MODEL 1
REMARK VINA RESULT:      -6.4      0.000      0.000
REMARK  Name = 
REMARK  5 active torsions:
REMARK  status: ('A' for Active; 'I' for Inactive)
REMARK    1  A    between atoms: C_1  and  N_2
REMARK    2  A    between atoms: C_5  and  C_6
REMARK    3  A    between atoms: C_6  and  C_7
REMARK    4  A    between atoms: C_7  and  C_8
REMARK    5  A    between atoms: N_10  and  C_11
REMARK                            x       y       z     vdW  Elec       q    Type
REMARK                         _______ _______ _______ _____ _____    ______ ____
ROOT
ATOM      1  C   UNL     1       5.181   4.766  16.497  0.00  0.00    +0.000 C 
ENDROOT
BRANCH   1   6
ATOM      2  C   UNL     1       1.729   2.424  20.477  0.00  0.00    +0.000 C 
ATOM      3  N   UNL     1       2.488   3.294  19.578  0.00  0.00    +0.000 NA
ATOM      4  C   UNL     1       3.926   3.120  19.805  0.00  0.00    +0.000 C 
ATOM      5  C   UNL     1       4.750   4.031  18.898  0.00  0.00    +0.000 C 
ATOM      6  C   UNL     1       4.419   3.799  17.418  0.00  0.00    +0.000 C 
ATOM      7  C   UNL     1       2.901   3.937  17.219  0.00  0.00    +0.000 C 
ATOM      8  C   UNL     1       2.129   3.028  18.179  0.00  0.00    +0.000 C 
ENDBRANCH   1   6
BRANCH   1   9
ATOM      9  C   UNL     1       6.493   4.185  15.961  0.00  0.00    +0.000 C 
BRANCH   9  10
ATOM     10  C   UNL     1       6.617   4.363  14.462  0.00  0.00    +0.000 C 
ATOM     11  O   UNL     1       7.273   5.263  13.943  0.00  0.00    +0.000 OA
ATOM     12  N   UNL     1       5.926   3.410  13.741  0.00  0.00    +0.000 N 
ATOM     13  H   UNL     1       5.377   2.713  14.230  0.00  0.00    +0.000 HD
BRANCH  12  14
ATOM     14  C   UNL     1       5.948   3.403  12.315  0.00  0.00    +0.000 C 
ATOM     15  C   UNL     1       5.678   2.125  11.569  0.00  0.00    +0.000 C 
ATOM     16  C   UNL     1       4.694   3.256  11.500  0.00  0.00    +0.000 C 
ENDBRANCH  12  14
ENDBRANCH   9  10
ENDBRANCH   1   9
TORSDOF 4
ENDMDL
MODEL 2
REMARK VINA RESULT:      -6.3      1.015      1.366
REMARK  Name = 
REMARK  5 active torsions:
REMARK  status: ('A' for Active; 'I' for Inactive)
REMARK    1  A    between atoms: C_1  and  N_2
REMARK    2  A    between atoms: C_5  and  C_6
REMARK    3  A    between atoms: C_6  and  C_7
REMARK    4  A    between atoms: C_7  and  C_8
REMARK    5  A    between atoms: N_10  and  C_11
REMARK                            x       y       z     vdW  Elec       q    Type
REMARK                         _______ _______ _______ _____ _____    ______ ____
ROOT
ATOM      1  C   UNL     1       5.829   5.477  16.931  0.00  0.00    +0.000 C 
ENDROOT
BRANCH   1   6
ATOM      2  C   UNL     1       1.134   3.086  19.271  0.00  0.00    +0.000 C 
ATOM      3  N   UNL     1       2.481   3.520  18.897  0.00  0.00    +0.000 NA
ATOM      4  C   UNL     1       2.771   3.126  17.515  0.00  0.00    +0.000 C 
ATOM      5  C   UNL     1       4.178   3.544  17.098  0.00  0.00    +0.000 C 
ATOM      6  C   UNL     1       4.391   5.054  17.269  0.00  0.00    +0.000 C 
ATOM      7  C   UNL     1       4.030   5.447  18.711  0.00  0.00    +0.000 C 
ATOM      8  C   UNL     1       2.623   4.970  19.082  0.00  0.00    +0.000 C 
ENDBRANCH   1   6
BRANCH   1   9
ATOM      9  C   UNL     1       6.662   4.353  16.309  0.00  0.00    +0.000 C 
BRANCH   9  10
ATOM     10  C   UNL     1       6.840   4.542  14.817  0.00  0.00    +0.000 C 
ATOM     11  O   UNL     1       7.549   5.419  14.329  0.00  0.00    +0.000 OA
ATOM     12  N   UNL     1       6.132   3.626  14.064  0.00  0.00    +0.000 N 
ATOM     13  H   UNL     1       5.540   2.948  14.528  0.00  0.00    +0.000 HD
BRANCH  12  14
ATOM     14  C   UNL     1       6.198   3.634  12.639  0.00  0.00    +0.000 C 
ATOM     15  C   UNL     1       6.077   2.342  11.878  0.00  0.00    +0.000 C 
ATOM     16  C   UNL     1       4.991   3.373  11.785  0.00  0.00    +0.000 C 
ENDBRANCH  12  14
ENDBRANCH   9  10
ENDBRANCH   1   9
TORSDOF 4
ENDMDL
MODEL 3
REMARK VINA RESULT:      -6.2      1.257      1.344
REMARK  Name = 
REMARK  5 active torsions:
REMARK  status: ('A' for Active; 'I' for Inactive)
REMARK    1  A    between atoms: C_1  and  N_2
REMARK    2  A    between atoms: C_5  and  C_6
REMARK    3  A    between atoms: C_6  and  C_7
REMARK    4  A    between atoms: C_7  and  C_8
REMARK    5  A    between atoms: N_10  and  C_11
REMARK                            x       y       z     vdW  Elec       q    Type
REMARK                         _______ _______ _______ _____ _____    ______ ____
ROOT
ATOM      1  C   UNL     1       5.903   5.597  16.870  0.00  0.00    +0.000 C 
ENDROOT
BRANCH   1   6
ATOM      2  C   UNL     1       1.153   3.794  19.596  0.00  0.00    +0.000 C 
ATOM      3  N   UNL     1       2.161   4.285  18.655  0.00  0.00    +0.000 NA
ATOM      4  C   UNL     1       2.728   5.547  19.138  0.00  0.00    +0.000 C 
ATOM      5  C   UNL     1       3.769   6.100  18.168  0.00  0.00    +0.000 C 
ATOM      6  C   UNL     1       4.890   5.086  17.908  0.00  0.00    +0.000 C 
ATOM      7  C   UNL     1       4.265   3.758  17.453  0.00  0.00    +0.000 C 
ATOM      8  C   UNL     1       3.205   3.273  18.446  0.00  0.00    +0.000 C 
ENDBRANCH   1   6
BRANCH   1   9
ATOM      9  C   UNL     1       6.773   4.488  16.275  0.00  0.00    +0.000 C 
BRANCH   9  10
ATOM     10  C   UNL     1       6.918   4.629  14.774  0.00  0.00    +0.000 C 
ATOM     11  O   UNL     1       7.635   5.474  14.243  0.00  0.00    +0.000 OA
ATOM     12  N   UNL     1       6.172   3.708  14.066  0.00  0.00    +0.000 N 
ATOM     13  H   UNL     1       5.576   3.058  14.563  0.00  0.00    +0.000 HD
BRANCH  12  14
ATOM     14  C   UNL     1       6.202   3.673  12.640  0.00  0.00    +0.000 C 
ATOM     15  C   UNL     1       6.160   2.351  11.924  0.00  0.00    +0.000 C 
ATOM     16  C   UNL     1       4.997   3.295  11.826  0.00  0.00    +0.000 C 
ENDBRANCH  12  14
ENDBRANCH   9  10
ENDBRANCH   1   9
TORSDOF 4
ENDMDL
MODEL 4
REMARK VINA RESULT:      -6.1      1.104      1.340
REMARK  Name = 
REMARK  5 active torsions:
REMARK  status: ('A' for Active; 'I' for Inactive)
REMARK    1  A    between atoms: C_1  and  N_2
REMARK    2  A    between atoms: C_5  and  C_6
REMARK    3  A    between atoms: C_6  and  C_7
REMARK    4  A    between atoms: C_7  and  C_8
REMARK    5  A    between atoms: N_10  and  C_11
REMARK                            x       y       z     vdW  Elec       q    Type
REMARK                         _______ _______ _______ _____ _____    ______ ____
ROOT
ATOM      1  C   UNL     1       5.320   5.751  17.446  0.00  0.00    +0.000 C 
ENDROOT
BRANCH   1   6
ATOM      2  C   UNL     1       1.086   2.797  20.012  0.00  0.00    +0.000 C 
ATOM      3  N   UNL     1       2.116   3.752  19.602  0.00  0.00    +0.000 NA
ATOM      4  C   UNL     1       3.432   3.106  19.606  0.00  0.00    +0.000 C 
ATOM      5  C   UNL     1       4.535   4.082  19.203  0.00  0.00    +0.000 C 
ATOM      6  C   UNL     1       4.260   4.706  17.829  0.00  0.00    +0.000 C 
ATOM      7  C   UNL     1       2.856   5.330  17.837  0.00  0.00    +0.000 C 
ATOM      8  C   UNL     1       1.798   4.316  18.283  0.00  0.00    +0.000 C 
ENDBRANCH   1   6
BRANCH   1   9
ATOM      9  C   UNL     1       5.270   6.154  15.970  0.00  0.00    +0.000 C 
BRANCH   9  10
ATOM     10  C   UNL     1       6.210   5.319  15.126  0.00  0.00    +0.000 C 
ATOM     11  O   UNL     1       7.433   5.390  15.210  0.00  0.00    +0.000 OA
ATOM     12  N   UNL     1       5.552   4.467  14.261  0.00  0.00    +0.000 N 
ATOM     13  H   UNL     1       4.541   4.480  14.217  0.00  0.00    +0.000 HD
BRANCH  12  14
ATOM     14  C   UNL     1       6.274   3.585  13.403  0.00  0.00    +0.000 C 
ATOM     15  C   UNL     1       5.663   3.140  12.102  0.00  0.00    +0.000 C 
ATOM     16  C   UNL     1       6.861   4.045  12.099  0.00  0.00    +0.000 C 
ENDBRANCH  12  14
ENDBRANCH   9  10
ENDBRANCH   1   9
TORSDOF 4
ENDMDL
MODEL 5
REMARK VINA RESULT:      -6.0      0.893      1.331
REMARK  Name = 
REMARK  5 active torsions:
REMARK  status: ('A' for Active; 'I' for Inactive)
REMARK    1  A    between atoms: C_1  and  N_2
REMARK    2  A    between atoms: C_5  and  C_6
REMARK    3  A    between atoms: C_6  and  C_7
REMARK    4  A    between atoms: C_7  and  C_8
REMARK    5  A    between atoms: N_10  and  C_11
REMARK                            x       y       z     vdW  Elec       q    Type
REMARK                         _______ _______ _______ _____ _____    ______ ____
ROOT
ATOM      1  C   UNL     1       4.629   4.788  16.632  0.00  0.00    +0.000 C 
ENDROOT
BRANCH   1   6
ATOM      2  C   UNL     1       1.734   2.893  21.243  0.00  0.00    +0.000 C 
ATOM      3  N   UNL     1       2.293   3.157  19.917  0.00  0.00    +0.000 NA
ATOM      4  C   UNL     1       2.019   4.542  19.522  0.00  0.00    +0.000 C 
ATOM      5  C   UNL     1       2.570   4.846  18.131  0.00  0.00    +0.000 C 
ATOM      6  C   UNL     1       4.076   4.564  18.049  0.00  0.00    +0.000 C 
ATOM      7  C   UNL     1       4.340   3.124  18.517  0.00  0.00    +0.000 C 
ATOM      8  C   UNL     1       3.734   2.869  19.900  0.00  0.00    +0.000 C 
ENDBRANCH   1   6
BRANCH   1   9
ATOM      9  C   UNL     1       6.054   4.260  16.447  0.00  0.00    +0.000 C 
BRANCH   9  10
ATOM     10  C   UNL     1       6.531   4.413  15.018  0.00  0.00    +0.000 C 
ATOM     11  O   UNL     1       7.435   5.177  14.688  0.00  0.00    +0.000 OA
ATOM     12  N   UNL     1       5.853   3.604  14.128  0.00  0.00    +0.000 N 
ATOM     13  H   UNL     1       5.095   3.020  14.460  0.00  0.00    +0.000 HD
BRANCH  12  14
ATOM     14  C   UNL     1       6.183   3.594  12.740  0.00  0.00    +0.000 C 
ATOM     15  C   UNL     1       6.115   2.307  11.965  0.00  0.00    +0.000 C 
ATOM     16  C   UNL     1       5.140   3.410  11.675  0.00  0.00    +0.000 C 
ENDBRANCH  12  14
ENDBRANCH   9  10
ENDBRANCH   1   9
TORSDOF 4
ENDMDL
MODEL 6
REMARK VINA RESULT:      -5.8      1.819      2.169
REMARK  Name = 
REMARK  5 active torsions:
REMARK  status: ('A' for Active; 'I' for Inactive)
REMARK    1  A    between atoms: C_1  and  N_2
REMARK    2  A    between atoms: C_5  and  C_6
REMARK    3  A    between atoms: C_6  and  C_7
REMARK    4  A    between atoms: C_7  and  C_8
REMARK    5  A    between atoms: N_10  and  C_11
REMARK                            x       y       z     vdW  Elec       q    Type
REMARK                         _______ _______ _______ _____ _____    ______ ____
ROOT
ATOM      1  C   UNL     1       4.999   6.597  17.229  0.00  0.00    +0.000 C 
ENDROOT
BRANCH   1   6
ATOM      2  C   UNL     1       1.337   3.059  19.934  0.00  0.00    +0.000 C 
ATOM      3  N   UNL     1       2.004   4.055  19.094  0.00  0.00    +0.000 NA
ATOM      4  C   UNL     1       2.625   5.085  19.932  0.00  0.00    +0.000 C 
ATOM      5  C   UNL     1       3.312   6.154  19.086  0.00  0.00    +0.000 C 
ATOM      6  C   UNL     1       4.357   5.542  18.145  0.00  0.00    +0.000 C 
ATOM      7  C   UNL     1       3.692   4.431  17.316  0.00  0.00    +0.000 C 
ATOM      8  C   UNL     1       2.990   3.410  18.217  0.00  0.00    +0.000 C 
ENDBRANCH   1   6
BRANCH   1   9
ATOM      9  C   UNL     1       6.529   6.543  17.222  0.00  0.00    +0.000 C 
BRANCH   9  10
ATOM     10  C   UNL     1       7.048   5.379  16.404  0.00  0.00    +0.000 C 
ATOM     11  O   UNL     1       7.797   4.518  16.858  0.00  0.00    +0.000 OA
ATOM     12  N   UNL     1       6.589   5.381  15.102  0.00  0.00    +0.000 N 
ATOM     13  H   UNL     1       5.998   6.138  14.780  0.00  0.00    +0.000 HD
BRANCH  12  14
ATOM     14  C   UNL     1       6.953   4.347  14.189  0.00  0.00    +0.000 C 
ATOM     15  C   UNL     1       5.909   3.738  13.294  0.00  0.00    +0.000 C 
ATOM     16  C   UNL     1       7.007   4.576  12.706  0.00  0.00    +0.000 C 
ENDBRANCH  12  14
ENDBRANCH   9  10
ENDBRANCH   1   9
TORSDOF 4
ENDMDL
MODEL 7
REMARK VINA RESULT:      -5.8      1.516      1.823
REMARK  Name = 
REMARK  5 active torsions:
REMARK  status: ('A' for Active; 'I' for Inactive)
REMARK    1  A    between atoms: C_1  and  N_2
REMARK    2  A    between atoms: C_5  and  C_6
REMARK    3  A    between atoms: C_6  and  C_7
REMARK    4  A    between atoms: C_7  and  C_8
REMARK    5  A    between atoms: N_10  and  C_11
REMARK                            x       y       z     vdW  Elec       q    Type
REMARK                         _______ _______ _______ _____ _____    ______ ____
ROOT
ATOM      1  C   UNL     1       5.042   5.848  17.798  0.00  0.00    +0.000 C 
ENDROOT
BRANCH   1   6
ATOM      2  C   UNL     1       1.653   2.913  21.423  0.00  0.00    +0.000 C 
ATOM      3  N   UNL     1       2.675   3.732  20.769  0.00  0.00    +0.000 NA
ATOM      4  C   UNL     1       3.436   2.920  19.816  0.00  0.00    +0.000 C 
ATOM      5  C   UNL     1       4.527   3.738  19.130  0.00  0.00    +0.000 C 
ATOM      6  C   UNL     1       3.946   4.970  18.424  0.00  0.00    +0.000 C 
ATOM      7  C   UNL     1       3.112   5.775  19.433  0.00  0.00    +0.000 C 
ATOM      8  C   UNL     1       2.060   4.894  20.113  0.00  0.00    +0.000 C 
ENDBRANCH   1   6
BRANCH   1   9
ATOM      9  C   UNL     1       4.969   5.911  16.270  0.00  0.00    +0.000 C 
BRANCH   9  10
ATOM     10  C   UNL     1       5.816   4.837  15.620  0.00  0.00    +0.000 C 
ATOM     11  O   UNL     1       6.654   4.178  16.231  0.00  0.00    +0.000 OA
ATOM     12  N   UNL     1       5.545   4.669  14.277  0.00  0.00    +0.000 N 
ATOM     13  H   UNL     1       4.864   5.266  13.825  0.00  0.00    +0.000 HD
BRANCH  12  14
ATOM     14  C   UNL     1       6.228   3.683  13.504  0.00  0.00    +0.000 C 
ATOM     15  C   UNL     1       5.641   3.216  12.200  0.00  0.00    +0.000 C 
ATOM     16  C   UNL     1       6.909   4.019  12.208  0.00  0.00    +0.000 C 
ENDBRANCH  12  14
ENDBRANCH   9  10
ENDBRANCH   1   9
TORSDOF 4
ENDMDL
MODEL 8
REMARK VINA RESULT:      -5.8      3.354      6.510
REMARK  Name = 
REMARK  5 active torsions:
REMARK  status: ('A' for Active; 'I' for Inactive)
REMARK    1  A    between atoms: C_1  and  N_2
REMARK    2  A    between atoms: C_5  and  C_6
REMARK    3  A    between atoms: C_6  and  C_7
REMARK    4  A    between atoms: C_7  and  C_8
REMARK    5  A    between atoms: N_10  and  C_11
REMARK                            x       y       z     vdW  Elec       q    Type
REMARK                         _______ _______ _______ _____ _____    ______ ____
ROOT
ATOM      1  C   UNL     1       4.853   3.631  16.524  0.00  0.00    +0.000 C 
ENDROOT
BRANCH   1   6
ATOM      2  C   UNL     1       7.909   8.371  17.724  0.00  0.00    +0.000 C 
ATOM      3  N   UNL     1       7.288   7.181  17.140  0.00  0.00    +0.000 NA
ATOM      4  C   UNL     1       7.610   5.999  17.944  0.00  0.00    +0.000 C 
ATOM      5  C   UNL     1       6.996   4.734  17.351  0.00  0.00    +0.000 C 
ATOM      6  C   UNL     1       5.475   4.866  17.196  0.00  0.00    +0.000 C 
ATOM      7  C   UNL     1       5.165   6.139  16.393  0.00  0.00    +0.000 C 
ATOM      8  C   UNL     1       5.836   7.367  17.016  0.00  0.00    +0.000 C 
ENDBRANCH   1   6
BRANCH   1   9
ATOM      9  C   UNL     1       3.400   3.385  16.935  0.00  0.00    +0.000 C 
BRANCH   9  10
ATOM     10  C   UNL     1       3.305   2.631  18.245  0.00  0.00    +0.000 C 
ATOM     11  O   UNL     1       3.516   1.424  18.345  0.00  0.00    +0.000 OA
ATOM     12  N   UNL     1       2.966   3.437  19.314  0.00  0.00    +0.000 N 
ATOM     13  H   UNL     1       2.773   4.419  19.159  0.00  0.00    +0.000 HD
BRANCH  12  14
ATOM     14  C   UNL     1       2.854   2.906  20.633  0.00  0.00    +0.000 C 
ATOM     15  C   UNL     1       2.203   3.723  21.716  0.00  0.00    +0.000 C 
ATOM     16  C   UNL     1       1.535   2.478  21.210  0.00  0.00    +0.000 C 
ENDBRANCH  12  14
ENDBRANCH   9  10
ENDBRANCH   1   9
TORSDOF 4
ENDMDL
MODEL 9
REMARK VINA RESULT:      -5.8      1.284      1.449
REMARK  Name = 
REMARK  5 active torsions:
REMARK  status: ('A' for Active; 'I' for Inactive)
REMARK    1  A    between atoms: C_1  and  N_2
REMARK    2  A    between atoms: C_5  and  C_6
REMARK    3  A    between atoms: C_6  and  C_7
REMARK    4  A    between atoms: C_7  and  C_8
REMARK    5  A    between atoms: N_10  and  C_11
REMARK                            x       y       z     vdW  Elec       q    Type
REMARK                         _______ _______ _______ _____ _____    ______ ____
ROOT
ATOM      1  C   UNL     1       6.138   5.163  17.717  0.00  0.00    +0.000 C 
ENDROOT
BRANCH   1   6
ATOM      2  C   UNL     1       1.078   3.942  20.196  0.00  0.00    +0.000 C 
ATOM      3  N   UNL     1       2.420   4.406  19.841  0.00  0.00    +0.000 NA
ATOM      4  C   UNL     1       3.302   3.260  19.604  0.00  0.00    +0.000 C 
ATOM      5  C   UNL     1       4.719   3.707  19.252  0.00  0.00    +0.000 C 
ATOM      6  C   UNL     1       4.728   4.639  18.033  0.00  0.00    +0.000 C 
ATOM      7  C   UNL     1       3.757   5.803  18.289  0.00  0.00    +0.000 C 
ATOM      8  C   UNL     1       2.365   5.293  18.672  0.00  0.00    +0.000 C 
ENDBRANCH   1   6
BRANCH   1   9
ATOM      9  C   UNL     1       6.854   4.359  16.629  0.00  0.00    +0.000 C 
BRANCH   9  10
ATOM     10  C   UNL     1       6.379   4.740  15.242  0.00  0.00    +0.000 C 
ATOM     11  O   UNL     1       6.057   5.885  14.931  0.00  0.00    +0.000 OA
ATOM     12  N   UNL     1       6.351   3.675  14.365  0.00  0.00    +0.000 N 
ATOM     13  H   UNL     1       6.598   2.749  14.693  0.00  0.00    +0.000 HD
BRANCH  12  14
ATOM     14  C   UNL     1       5.953   3.848  13.006  0.00  0.00    +0.000 C 
ATOM     15  C   UNL     1       6.981   3.765  11.909  0.00  0.00    +0.000 C 
ATOM     16  C   UNL     1       5.926   2.705  12.032  0.00  0.00    +0.000 C 
ENDBRANCH  12  14
ENDBRANCH   9  10
ENDBRANCH   1   9
TORSDOF 4
ENDMDL
