MODEL 1
REMARK VINA RESULT:      -7.6      0.000      0.000
REMARK  Name = 
REMARK  3 active torsions:
REMARK  status: ('A' for Active; 'I' for Inactive)
REMARK    1  A    between atoms: C_2  and  C_17
REMARK    2  A    between atoms: N_3  and  C_4
REMARK    3  A    between atoms: C_4  and  C_5
REMARK                            x       y       z     vdW  Elec       q    Type
REMARK                         _______ _______ _______ _____ _____    ______ ____
ROOT
ATOM      1  C   UNL     1       5.254   5.176  16.840  0.00  0.00    +0.000 C 
ATOM      2  N   UNL     1       5.455   6.670  16.588  0.00  0.00    +0.000 NA
ATOM      3  C   UNL     1       6.497   6.941  17.284  0.00  0.00    +0.000 C 
ATOM      4  S   UNL     1       7.298   8.449  17.495  0.00  0.00    +0.000 S 
ATOM      5  C   UNL     1       8.471   7.781  18.735  0.00  0.00    +0.000 C 
ATOM      6  C   UNL     1       8.095   6.319  18.958  0.00  0.00    +0.000 C 
ATOM      7  N   UNL     1       7.068   5.982  18.011  0.00  0.00    +0.000 N 
ATOM      8  C   UNL     1       6.266   4.892  17.965  0.00  0.00    +0.000 C 
ATOM      9  O   UNL     1       6.319   3.954  18.748  0.00  0.00    +0.000 OA
ENDROOT
BRANCH   1  12
ATOM     10  O   UNL     1       3.816   2.835  17.446  0.00  0.00    +0.000 OA
ATOM     11  C   UNL     1       3.241   3.905  17.566  0.00  0.00    +0.000 C 
ATOM     12  N   UNL     1       3.867   5.096  17.291  0.00  0.00    +0.000 N 
ATOM     13  H   UNL     1       3.334   5.948  17.199  0.00  0.00    +0.000 HD
BRANCH  11  14
ATOM     14  C   UNL     1       1.758   4.032  17.970  0.00  0.00    +0.000 C 
ATOM     15  C   UNL     1       1.171   2.711  18.490  0.00  0.00    +0.000 C 
ATOM     16  C   UNL     1       1.582   2.366  19.923  0.00  0.00    +0.000 C 
ATOM     17  C   UNL     1       1.398   3.522  20.900  0.00  0.00    +0.000 C 
ATOM     18  C   UNL     1       1.939   4.851  20.386  0.00  0.00    +0.000 C 
ATOM     19  C   UNL     1       1.479   5.166  18.966  0.00  0.00    +0.000 C 
ENDBRANCH  11  14
ENDBRANCH   1  12
BRANCH   1  20
ATOM     20  C   UNL     1       5.713   4.324  15.607  0.00  0.00    +0.000 C 
ATOM     21  F   UNL     1       4.795   4.280  14.615  0.00  0.00    +0.000 F 
ATOM     22  F   UNL     1       6.839   4.856  15.049  0.00  0.00    +0.000 F 
ATOM     23  F   UNL     1       6.042   3.051  15.926  0.00  0.00    +0.000 F 
ENDBRANCH   1  20
TORSDOF 3
ENDMDL
MODEL 2
REMARK VINA RESULT:      -7.2      0.846      1.318
REMARK  Name = 
REMARK  3 active torsions:
REMARK  status: ('A' for Active; 'I' for Inactive)
REMARK    1  A    between atoms: C_2  and  C_17
REMARK    2  A    between atoms: N_3  and  C_4
REMARK    3  A    between atoms: C_4  and  C_5
REMARK                            x       y       z     vdW  Elec       q    Type
REMARK                         _______ _______ _______ _____ _____    ______ ____
ROOT
ATOM      1  C   UNL     1       5.460   5.201  16.716  0.00  0.00    +0.000 C 
ATOM      2  N   UNL     1       5.664   6.699  16.492  0.00  0.00    +0.000 NA
ATOM      3  C   UNL     1       6.662   6.969  17.252  0.00  0.00    +0.000 C 
ATOM      4  S   UNL     1       7.439   8.479  17.525  0.00  0.00    +0.000 S 
ATOM      5  C   UNL     1       8.541   7.805  18.825  0.00  0.00    +0.000 C 
ATOM      6  C   UNL     1       8.162   6.339  19.010  0.00  0.00    +0.000 C 
ATOM      7  N   UNL     1       7.196   6.005  18.001  0.00  0.00    +0.000 N 
ATOM      8  C   UNL     1       6.405   4.911  17.896  0.00  0.00    +0.000 C 
ATOM      9  O   UNL     1       6.418   3.965  18.670  0.00  0.00    +0.000 OA
ENDROOT
BRANCH   1  12
ATOM     10  O   UNL     1       4.327   5.815  19.219  0.00  0.00    +0.000 OA
ATOM     11  C   UNL     1       3.580   5.430  18.333  0.00  0.00    +0.000 C 
ATOM     12  N   UNL     1       4.048   5.107  17.083  0.00  0.00    +0.000 N 
ATOM     13  H   UNL     1       3.467   4.605  16.429  0.00  0.00    +0.000 HD
BRANCH  11  14
ATOM     14  C   UNL     1       2.068   5.205  18.536  0.00  0.00    +0.000 C 
ATOM     15  C   UNL     1       1.538   4.003  17.740  0.00  0.00    +0.000 C 
ATOM     16  C   UNL     1       1.872   2.645  18.360  0.00  0.00    +0.000 C 
ATOM     17  C   UNL     1       1.546   2.562  19.847  0.00  0.00    +0.000 C 
ATOM     18  C   UNL     1       2.030   3.764  20.649  0.00  0.00    +0.000 C 
ATOM     19  C   UNL     1       1.647   5.095  20.008  0.00  0.00    +0.000 C 
ENDBRANCH  11  14
ENDBRANCH   1  12
BRANCH   1  20
ATOM     20  C   UNL     1       5.996   4.366  15.504  0.00  0.00    +0.000 C 
ATOM     21  F   UNL     1       5.870   3.029  15.677  0.00  0.00    +0.000 F 
ATOM     22  F   UNL     1       5.298   4.661  14.370  0.00  0.00    +0.000 F 
ATOM     23  F   UNL     1       7.290   4.625  15.203  0.00  0.00    +0.000 F 
ENDBRANCH   1  20
TORSDOF 3
ENDMDL
MODEL 3
REMARK VINA RESULT:      -6.9      1.275      1.884
REMARK  Name = 
REMARK  3 active torsions:
REMARK  status: ('A' for Active; 'I' for Inactive)
REMARK    1  A    between atoms: C_2  and  C_17
REMARK    2  A    between atoms: N_3  and  C_4
REMARK    3  A    between atoms: C_4  and  C_5
REMARK                            x       y       z     vdW  Elec       q    Type
REMARK                         _______ _______ _______ _____ _____    ______ ____
ROOT
ATOM      1  C   UNL     1       5.803   4.370  16.871  0.00  0.00    +0.000 C 
ATOM      2  N   UNL     1       4.985   5.658  16.955  0.00  0.00    +0.000 NA
ATOM      3  C   UNL     1       5.879   6.552  17.171  0.00  0.00    +0.000 C 
ATOM      4  S   UNL     1       5.687   8.247  17.396  0.00  0.00    +0.000 S 
ATOM      5  C   UNL     1       7.459   8.512  17.778  0.00  0.00    +0.000 C 
ATOM      6  C   UNL     1       8.127   7.141  17.753  0.00  0.00    +0.000 C 
ATOM      7  N   UNL     1       7.155   6.187  17.298  0.00  0.00    +0.000 N 
ATOM      8  C   UNL     1       7.199   4.835  17.324  0.00  0.00    +0.000 C 
ATOM      9  O   UNL     1       8.145   4.176  17.731  0.00  0.00    +0.000 OA
ENDROOT
BRANCH   1  12
ATOM     10  O   UNL     1       3.097   3.595  16.889  0.00  0.00    +0.000 OA
ATOM     11  C   UNL     1       3.820   3.166  17.775  0.00  0.00    +0.000 C 
ATOM     12  N   UNL     1       5.151   3.496  17.843  0.00  0.00    +0.000 N 
ATOM     13  H   UNL     1       5.687   3.306  18.677  0.00  0.00    +0.000 HD
BRANCH  11  14
ATOM     14  C   UNL     1       3.313   2.280  18.931  0.00  0.00    +0.000 C 
ATOM     15  C   UNL     1       3.530   2.923  20.309  0.00  0.00    +0.000 C 
ATOM     16  C   UNL     1       2.525   4.025  20.649  0.00  0.00    +0.000 C 
ATOM     17  C   UNL     1       1.076   3.618  20.406  0.00  0.00    +0.000 C 
ATOM     18  C   UNL     1       0.846   2.943  19.059  0.00  0.00    +0.000 C 
ATOM     19  C   UNL     1       1.852   1.831  18.777  0.00  0.00    +0.000 C 
ENDBRANCH  11  14
ENDBRANCH   1  12
BRANCH   1  20
ATOM     20  C   UNL     1       5.956   3.890  15.387  0.00  0.00    +0.000 C 
ATOM     21  F   UNL     1       7.163   4.186  14.851  0.00  0.00    +0.000 F 
ATOM     22  F   UNL     1       5.837   2.534  15.306  0.00  0.00    +0.000 F 
ATOM     23  F   UNL     1       5.003   4.382  14.561  0.00  0.00    +0.000 F 
ENDBRANCH   1  20
TORSDOF 3
ENDMDL
MODEL 4
REMARK VINA RESULT:      -6.2      1.435      2.119
REMARK  Name = 
REMARK  3 active torsions:
REMARK  status: ('A' for Active; 'I' for Inactive)
REMARK    1  A    between atoms: C_2  and  C_17
REMARK    2  A    between atoms: N_3  and  C_4
REMARK    3  A    between atoms: C_4  and  C_5
REMARK                            x       y       z     vdW  Elec       q    Type
REMARK                         _______ _______ _______ _____ _____    ______ ____
ROOT
ATOM      1  C   UNL     1       5.858   4.459  16.592  0.00  0.00    +0.000 C 
ATOM      2  N   UNL     1       5.056   5.756  16.685  0.00  0.00    +0.000 NA
ATOM      3  C   UNL     1       5.940   6.615  17.042  0.00  0.00    +0.000 C 
ATOM      4  S   UNL     1       5.753   8.295  17.360  0.00  0.00    +0.000 S 
ATOM      5  C   UNL     1       7.486   8.497  17.921  0.00  0.00    +0.000 C 
ATOM      6  C   UNL     1       8.132   7.116  17.867  0.00  0.00    +0.000 C 
ATOM      7  N   UNL     1       7.192   6.215  17.262  0.00  0.00    +0.000 N 
ATOM      8  C   UNL     1       7.213   4.863  17.202  0.00  0.00    +0.000 C 
ATOM      9  O   UNL     1       8.107   4.159  17.650  0.00  0.00    +0.000 OA
ENDROOT
BRANCH   1  12
ATOM     10  O   UNL     1       5.206   4.821  19.305  0.00  0.00    +0.000 OA
ATOM     11  C   UNL     1       4.829   3.796  18.760  0.00  0.00    +0.000 C 
ATOM     12  N   UNL     1       5.105   3.537  17.439  0.00  0.00    +0.000 N 
ATOM     13  H   UNL     1       4.970   2.614  17.056  0.00  0.00    +0.000 HD
BRANCH  11  14
ATOM     14  C   UNL     1       4.075   2.670  19.495  0.00  0.00    +0.000 C 
ATOM     15  C   UNL     1       3.073   3.206  20.529  0.00  0.00    +0.000 C 
ATOM     16  C   UNL     1       1.777   3.744  19.922  0.00  0.00    +0.000 C 
ATOM     17  C   UNL     1       1.139   2.792  18.916  0.00  0.00    +0.000 C 
ATOM     18  C   UNL     1       2.123   2.218  17.904  0.00  0.00    +0.000 C 
ATOM     19  C   UNL     1       3.387   1.666  18.558  0.00  0.00    +0.000 C 
ENDBRANCH  11  14
ENDBRANCH   1  12
BRANCH   1  20
ATOM     20  C   UNL     1       6.144   4.073  15.100  0.00  0.00    +0.000 C 
ATOM     21  F   UNL     1       6.017   2.748  14.856  0.00  0.00    +0.000 F 
ATOM     22  F   UNL     1       5.259   4.691  14.266  0.00  0.00    +0.000 F 
ATOM     23  F   UNL     1       7.367   4.459  14.669  0.00  0.00    +0.000 F 
ENDBRANCH   1  20
TORSDOF 3
ENDMDL
MODEL 5
REMARK VINA RESULT:      -6.2      2.603      3.567
REMARK  Name = 
REMARK  3 active torsions:
REMARK  status: ('A' for Active; 'I' for Inactive)
REMARK    1  A    between atoms: C_2  and  C_17
REMARK    2  A    between atoms: N_3  and  C_4
REMARK    3  A    between atoms: C_4  and  C_5
REMARK                            x       y       z     vdW  Elec       q    Type
REMARK                         _______ _______ _______ _____ _____    ______ ____
ROOT
ATOM      1  C   UNL     1       6.144   5.445  18.127  0.00  0.00    +0.000 C 
ATOM      2  N   UNL     1       5.968   4.076  17.471  0.00  0.00    +0.000 NA
ATOM      3  C   UNL     1       6.224   4.315  16.237  0.00  0.00    +0.000 C 
ATOM      4  S   UNL     1       6.203   3.236  14.897  0.00  0.00    +0.000 S 
ATOM      5  C   UNL     1       6.524   4.565  13.677  0.00  0.00    +0.000 C 
ATOM      6  C   UNL     1       6.579   5.877  14.455  0.00  0.00    +0.000 C 
ATOM      7  N   UNL     1       6.507   5.559  15.854  0.00  0.00    +0.000 N 
ATOM      8  C   UNL     1       6.295   6.378  16.911  0.00  0.00    +0.000 C 
ATOM      9  O   UNL     1       6.158   7.590  16.837  0.00  0.00    +0.000 OA
ENDROOT
BRANCH   1  12
ATOM     10  O   UNL     1       4.818   3.563  19.745  0.00  0.00    +0.000 OA
ATOM     11  C   UNL     1       4.305   4.662  19.612  0.00  0.00    +0.000 C 
ATOM     12  N   UNL     1       4.883   5.640  18.839  0.00  0.00    +0.000 N 
ATOM     13  H   UNL     1       4.361   6.462  18.574  0.00  0.00    +0.000 HD
BRANCH  11  14
ATOM     14  C   UNL     1       2.946   5.046  20.230  0.00  0.00    +0.000 C 
ATOM     15  C   UNL     1       1.845   5.227  19.173  0.00  0.00    +0.000 C 
ATOM     16  C   UNL     1       1.281   3.914  18.628  0.00  0.00    +0.000 C 
ATOM     17  C   UNL     1       0.898   2.921  19.719  0.00  0.00    +0.000 C 
ATOM     18  C   UNL     1       1.960   2.755  20.799  0.00  0.00    +0.000 C 
ATOM     19  C   UNL     1       2.471   4.090  21.334  0.00  0.00    +0.000 C 
ENDBRANCH  11  14
ENDBRANCH   1  12
BRANCH   1  20
ATOM     20  C   UNL     1       7.494   5.528  18.918  0.00  0.00    +0.000 C 
ATOM     21  F   UNL     1       8.360   4.536  18.606  0.00  0.00    +0.000 F 
ATOM     22  F   UNL     1       8.146   6.693  18.634  0.00  0.00    +0.000 F 
ATOM     23  F   UNL     1       7.332   5.530  20.261  0.00  0.00    +0.000 F 
ENDBRANCH   1  20
TORSDOF 3
ENDMDL
MODEL 6
REMARK VINA RESULT:      -6.2      2.508      3.533
REMARK  Name = 
REMARK  3 active torsions:
REMARK  status: ('A' for Active; 'I' for Inactive)
REMARK    1  A    between atoms: C_2  and  C_17
REMARK    2  A    between atoms: N_3  and  C_4
REMARK    3  A    between atoms: C_4  and  C_5
REMARK                            x       y       z     vdW  Elec       q    Type
REMARK                         _______ _______ _______ _____ _____    ______ ____
ROOT
ATOM      1  C   UNL     1       6.208   4.771  18.338  0.00  0.00    +0.000 C 
ATOM      2  N   UNL     1       6.665   3.867  17.194  0.00  0.00    +0.000 NA
ATOM      3  C   UNL     1       6.334   4.536  16.151  0.00  0.00    +0.000 C 
ATOM      4  S   UNL     1       6.526   4.123  14.492  0.00  0.00    +0.000 S 
ATOM      5  C   UNL     1       5.616   5.600  13.902  0.00  0.00    +0.000 C 
ATOM      6  C   UNL     1       5.140   6.351  15.141  0.00  0.00    +0.000 C 
ATOM      7  N   UNL     1       5.706   5.703  16.291  0.00  0.00    +0.000 N 
ATOM      8  C   UNL     1       5.401   5.855  17.601  0.00  0.00    +0.000 C 
ATOM      9  O   UNL     1       4.573   6.642  18.037  0.00  0.00    +0.000 OA
ENDROOT
BRANCH   1  12
ATOM     10  O   UNL     1       3.876   3.436  17.501  0.00  0.00    +0.000 OA
ATOM     11  C   UNL     1       4.243   3.275  18.655  0.00  0.00    +0.000 C 
ATOM     12  N   UNL     1       5.368   3.890  19.147  0.00  0.00    +0.000 N 
ATOM     13  H   UNL     1       5.549   3.914  20.139  0.00  0.00    +0.000 HD
BRANCH  11  14
ATOM     14  C   UNL     1       3.463   2.434  19.685  0.00  0.00    +0.000 C 
ATOM     15  C   UNL     1       3.238   3.179  21.009  0.00  0.00    +0.000 C 
ATOM     16  C   UNL     1       2.129   4.230  20.954  0.00  0.00    +0.000 C 
ATOM     17  C   UNL     1       0.834   3.711  20.340  0.00  0.00    +0.000 C 
ATOM     18  C   UNL     1       1.037   2.935  19.044  0.00  0.00    +0.000 C 
ATOM     19  C   UNL     1       2.132   1.878  19.156  0.00  0.00    +0.000 C 
ENDBRANCH  11  14
ENDBRANCH   1  12
BRANCH   1  20
ATOM     20  C   UNL     1       7.423   5.501  19.007  0.00  0.00    +0.000 C 
ATOM     21  F   UNL     1       7.307   5.614  20.350  0.00  0.00    +0.000 F 
ATOM     22  F   UNL     1       8.578   4.808  18.790  0.00  0.00    +0.000 F 
ATOM     23  F   UNL     1       7.650   6.737  18.504  0.00  0.00    +0.000 F 
ENDBRANCH   1  20
TORSDOF 3
ENDMDL
MODEL 7
REMARK VINA RESULT:      -6.1      1.456      2.259
REMARK  Name = 
REMARK  3 active torsions:
REMARK  status: ('A' for Active; 'I' for Inactive)
REMARK    1  A    between atoms: C_2  and  C_17
REMARK    2  A    between atoms: N_3  and  C_4
REMARK    3  A    between atoms: C_4  and  C_5
REMARK                            x       y       z     vdW  Elec       q    Type
REMARK                         _______ _______ _______ _____ _____    ______ ____
ROOT
ATOM      1  C   UNL     1       6.380   5.862  17.797  0.00  0.00    +0.000 C 
ATOM      2  N   UNL     1       6.215   7.220  17.116  0.00  0.00    +0.000 NA
ATOM      3  C   UNL     1       7.179   7.907  17.609  0.00  0.00    +0.000 C 
ATOM      4  S   UNL     1       7.605   9.547  17.312  0.00  0.00    +0.000 S 
ATOM      5  C   UNL     1       8.931   9.550  18.576  0.00  0.00    +0.000 C 
ATOM      6  C   UNL     1       8.917   8.175  19.236  0.00  0.00    +0.000 C 
ATOM      7  N   UNL     1       7.978   7.355  18.522  0.00  0.00    +0.000 N 
ATOM      8  C   UNL     1       7.456   6.153  18.859  0.00  0.00    +0.000 C 
ATOM      9  O   UNL     1       7.747   5.524  19.866  0.00  0.00    +0.000 OA
ENDROOT
BRANCH   1  12
ATOM     10  O   UNL     1       5.634   3.682  19.413  0.00  0.00    +0.000 OA
ATOM     11  C   UNL     1       4.784   4.521  19.159  0.00  0.00    +0.000 C 
ATOM     12  N   UNL     1       5.062   5.615  18.377  0.00  0.00    +0.000 N 
ATOM     13  H   UNL     1       4.316   6.188  18.010  0.00  0.00    +0.000 HD
BRANCH  11  14
ATOM     14  C   UNL     1       3.318   4.413  19.624  0.00  0.00    +0.000 C 
ATOM     15  C   UNL     1       2.319   4.819  18.529  0.00  0.00    +0.000 C 
ATOM     16  C   UNL     1       2.107   3.755  17.452  0.00  0.00    +0.000 C 
ATOM     17  C   UNL     1       1.834   2.366  18.018  0.00  0.00    +0.000 C 
ATOM     18  C   UNL     1       2.790   1.958  19.133  0.00  0.00    +0.000 C 
ATOM     19  C   UNL     1       2.947   3.038  20.199  0.00  0.00    +0.000 C 
ENDBRANCH  11  14
ENDBRANCH   1  12
BRANCH   1  20
ATOM     20  C   UNL     1       6.999   4.806  16.818  0.00  0.00    +0.000 C 
ATOM     21  F   UNL     1       7.493   5.352  15.683  0.00  0.00    +0.000 F 
ATOM     22  F   UNL     1       8.048   4.162  17.407  0.00  0.00    +0.000 F 
ATOM     23  F   UNL     1       6.134   3.827  16.466  0.00  0.00    +0.000 F 
ENDBRANCH   1  20
TORSDOF 3
ENDMDL
MODEL 8
REMARK VINA RESULT:      -6.1      1.344      1.993
REMARK  Name = 
REMARK  3 active torsions:
REMARK  status: ('A' for Active; 'I' for Inactive)
REMARK    1  A    between atoms: C_2  and  C_17
REMARK    2  A    between atoms: N_3  and  C_4
REMARK    3  A    between atoms: C_4  and  C_5
REMARK                            x       y       z     vdW  Elec       q    Type
REMARK                         _______ _______ _______ _____ _____    ______ ____
ROOT
ATOM      1  C   UNL     1       6.326   5.845  17.540  0.00  0.00    +0.000 C 
ATOM      2  N   UNL     1       6.382   7.220  16.876  0.00  0.00    +0.000 NA
ATOM      3  C   UNL     1       7.309   7.818  17.532  0.00  0.00    +0.000 C 
ATOM      4  S   UNL     1       7.908   9.419  17.347  0.00  0.00    +0.000 S 
ATOM      5  C   UNL     1       9.011   9.296  18.805  0.00  0.00    +0.000 C 
ATOM      6  C   UNL     1       8.780   7.919  19.420  0.00  0.00    +0.000 C 
ATOM      7  N   UNL     1       7.904   7.190  18.546  0.00  0.00    +0.000 N 
ATOM      8  C   UNL     1       7.239   6.032  18.765  0.00  0.00    +0.000 C 
ATOM      9  O   UNL     1       7.313   5.369  19.790  0.00  0.00    +0.000 OA
ENDROOT
BRANCH   1  12
ATOM     10  O   UNL     1       5.180   3.789  19.083  0.00  0.00    +0.000 OA
ATOM     11  C   UNL     1       4.441   4.664  18.660  0.00  0.00    +0.000 C 
ATOM     12  N   UNL     1       4.916   5.704  17.898  0.00  0.00    +0.000 N 
ATOM     13  H   UNL     1       4.281   6.302  17.391  0.00  0.00    +0.000 HD
BRANCH  11  14
ATOM     14  C   UNL     1       2.915   4.665  18.875  0.00  0.00    +0.000 C 
ATOM     15  C   UNL     1       2.161   3.920  17.762  0.00  0.00    +0.000 C 
ATOM     16  C   UNL     1       2.225   2.396  17.875  0.00  0.00    +0.000 C 
ATOM     17  C   UNL     1       1.888   1.879  19.269  0.00  0.00    +0.000 C 
ATOM     18  C   UNL     1       2.596   2.629  20.391  0.00  0.00    +0.000 C 
ATOM     19  C   UNL     1       2.479   4.144  20.252  0.00  0.00    +0.000 C 
ENDBRANCH  11  14
ENDBRANCH   1  12
BRANCH   1  20
ATOM     20  C   UNL     1       7.005   4.753  16.645  0.00  0.00    +0.000 C 
ATOM     21  F   UNL     1       8.020   4.107  17.266  0.00  0.00    +0.000 F 
ATOM     22  F   UNL     1       6.106   3.787  16.300  0.00  0.00    +0.000 F 
ATOM     23  F   UNL     1       7.476   5.235  15.472  0.00  0.00    +0.000 F 
ENDBRANCH   1  20
TORSDOF 3
ENDMDL
MODEL 9
REMARK VINA RESULT:      -6.0      2.569      3.239
REMARK  Name = 
REMARK  3 active torsions:
REMARK  status: ('A' for Active; 'I' for Inactive)
REMARK    1  A    between atoms: C_2  and  C_17
REMARK    2  A    between atoms: N_3  and  C_4
REMARK    3  A    between atoms: C_4  and  C_5
REMARK                            x       y       z     vdW  Elec       q    Type
REMARK                         _______ _______ _______ _____ _____    ______ ____
ROOT
ATOM      1  C   UNL     1       3.728   5.690  18.185  0.00  0.00    +0.000 C 
ATOM      2  N   UNL     1       4.750   5.898  19.301  0.00  0.00    +0.000 NA
ATOM      3  C   UNL     1       5.852   5.539  18.750  0.00  0.00    +0.000 C 
ATOM      4  S   UNL     1       7.434   5.491  19.423  0.00  0.00    +0.000 S 
ATOM      5  C   UNL     1       8.167   4.716  17.933  0.00  0.00    +0.000 C 
ATOM      6  C   UNL     1       7.024   4.480  16.950  0.00  0.00    +0.000 C 
ATOM      7  N   UNL     1       5.842   5.085  17.498  0.00  0.00    +0.000 N 
ATOM      8  C   UNL     1       4.551   4.951  17.115  0.00  0.00    +0.000 C 
ATOM      9  O   UNL     1       4.172   4.283  16.163  0.00  0.00    +0.000 OA
ENDROOT
BRANCH   1  12
ATOM     10  O   UNL     1       2.107   6.350  20.389  0.00  0.00    +0.000 OA
ATOM     11  C   UNL     1       1.966   5.246  19.887  0.00  0.00    +0.000 C 
ATOM     12  N   UNL     1       2.716   4.841  18.810  0.00  0.00    +0.000 N 
ATOM     13  H   UNL     1       2.737   3.872  18.533  0.00  0.00    +0.000 HD
BRANCH  11  14
ATOM     14  C   UNL     1       0.996   4.181  20.437  0.00  0.00    +0.000 C 
ATOM     15  C   UNL     1       0.451   3.254  19.339  0.00  0.00    +0.000 C 
ATOM     16  C   UNL     1       1.441   2.185  18.876  0.00  0.00    +0.000 C 
ATOM     17  C   UNL     1       2.090   1.423  20.026  0.00  0.00    +0.000 C 
ATOM     18  C   UNL     1       2.604   2.321  21.145  0.00  0.00    +0.000 C 
ATOM     19  C   UNL     1       1.572   3.352  21.594  0.00  0.00    +0.000 C 
ENDBRANCH  11  14
ENDBRANCH   1  12
BRANCH   1  20
ATOM     20  C   UNL     1       3.298   7.055  17.546  0.00  0.00    +0.000 C 
ATOM     21  F   UNL     1       1.962   7.161  17.357  0.00  0.00    +0.000 F 
ATOM     22  F   UNL     1       3.641   8.095  18.359  0.00  0.00    +0.000 F 
ATOM     23  F   UNL     1       3.906   7.311  16.364  0.00  0.00    +0.000 F 
ENDBRANCH   1  20
TORSDOF 3
ENDMDL
