MODEL 1
REMARK VINA RESULT:      -7.8      0.000      0.000
REMARK  Name = 
REMARK  7 active torsions:
REMARK  status: ('A' for Active; 'I' for Inactive)
REMARK    1  A    between atoms: C_1  and  N_2
REMARK    2  A    between atoms: N_2  and  C_3
REMARK    3  A    between atoms: C_8  and  C_9
REMARK    4  A    between atoms: C_11  and  N_12
REMARK    5  A    between atoms: C_13  and  C_14
REMARK    6  A    between atoms: C_17  and  C_18
REMARK    7  A    between atoms: C_18  and  C_19
REMARK                            x       y       z     vdW  Elec       q    Type
REMARK                         _______ _______ _______ _____ _____    ______ ____
ROOT
ATOM      1  C   UNL     1       5.165   4.930  18.993  0.00  0.00    +0.000 C 
ATOM      2  C   UNL     1       6.573   5.397  19.393  0.00  0.00    +0.000 C 
ATOM      3  C   UNL     1       7.538   5.653  18.234  0.00  0.00    +0.000 C 
ATOM      4  C   UNL     1       7.419   4.560  17.165  0.00  0.00    +0.000 C 
ATOM      5  C   UNL     1       6.031   3.955  16.898  0.00  0.00    +0.000 C 
ATOM      6  O   UNL     1       5.198   3.848  18.059  0.00  0.00    +0.000 OA
ENDROOT
BRANCH   1  12
ATOM      7  C   UNL     1       3.006   6.259  19.457  0.00  0.00    +0.000 A 
ATOM      8  N   UNL     1       2.121   7.242  19.154  0.00  0.00    +0.000 NA
ATOM      9  C   UNL     1       2.294   7.965  18.031  0.00  0.00    +0.000 A 
ATOM     10  C   UNL     1       3.347   7.782  17.178  0.00  0.00    +0.000 A 
ATOM     11  C   UNL     1       4.269   6.807  17.515  0.00  0.00    +0.000 A 
ATOM     12  C   UNL     1       4.135   6.005  18.657  0.00  0.00    +0.000 A 
BRANCH   7  14
ATOM     13  C   UNL     1       1.694   4.520  20.468  0.00  0.00    +0.000 C 
ATOM     14  N   UNL     1       2.765   5.500  20.617  0.00  0.00    +0.000 N 
ATOM     15  H   UNL     1       3.638   5.056  20.892  0.00  0.00    +0.000 HD
ENDBRANCH   7  14
ENDBRANCH   1  12
BRANCH   3  16
ATOM     16  N   UNL     1       7.429   7.021  17.737  0.00  0.00    +0.000 N 
ATOM     17  C   UNL     1       8.132   8.084  18.257  0.00  0.00    +0.000 C 
ATOM     18  C   UNL     1       7.879   9.386  17.542  0.00  0.00    +0.000 C 
ATOM     19  O   UNL     1       8.924   7.998  19.190  0.00  0.00    +0.000 OA
ATOM     20  H   UNL     1       6.564   7.264  17.264  0.00  0.00    +0.000 HD
ENDBRANCH   3  16
BRANCH   5  21
ATOM     21  C   UNL     1       5.214   4.466  15.692  0.00  0.00    +0.000 C 
BRANCH  21  22
ATOM     22  C   UNL     1       5.840   4.349  14.327  0.00  0.00    +0.000 A 
ATOM     23  C   UNL     1       7.012   5.044  14.012  0.00  0.00    +0.000 A 
ATOM     24  C   UNL     1       7.605   4.896  12.760  0.00  0.00    +0.000 A 
ATOM     25  C   UNL     1       7.037   4.046  11.810  0.00  0.00    +0.000 A 
ATOM     26  C   UNL     1       5.881   3.334  12.117  0.00  0.00    +0.000 A 
ATOM     27  C   UNL     1       5.285   3.483  13.369  0.00  0.00    +0.000 A 
ENDBRANCH  21  22
ENDBRANCH   5  21
TORSDOF 5
ENDMDL
MODEL 2
REMARK VINA RESULT:      -7.7      2.849      6.282
REMARK  Name = 
REMARK  7 active torsions:
REMARK  status: ('A' for Active; 'I' for Inactive)
REMARK    1  A    between atoms: C_1  and  N_2
REMARK    2  A    between atoms: N_2  and  C_3
REMARK    3  A    between atoms: C_8  and  C_9
REMARK    4  A    between atoms: C_11  and  N_12
REMARK    5  A    between atoms: C_13  and  C_14
REMARK    6  A    between atoms: C_17  and  C_18
REMARK    7  A    between atoms: C_18  and  C_19
REMARK                            x       y       z     vdW  Elec       q    Type
REMARK                         _______ _______ _______ _____ _____    ______ ____
ROOT
ATOM      1  C   UNL     1       3.058   4.250  17.522  0.00  0.00    +0.000 C 
ATOM      2  C   UNL     1       4.268   4.616  16.648  0.00  0.00    +0.000 C 
ATOM      3  C   UNL     1       4.967   5.929  17.003  0.00  0.00    +0.000 C 
ATOM      4  C   UNL     1       3.946   7.031  17.315  0.00  0.00    +0.000 C 
ATOM      5  C   UNL     1       2.642   6.631  18.024  0.00  0.00    +0.000 C 
ATOM      6  O   UNL     1       2.141   5.339  17.659  0.00  0.00    +0.000 OA
ENDROOT
BRANCH   1  12
ATOM      7  C   UNL     1       2.318   3.185  19.748  0.00  0.00    +0.000 A 
ATOM      8  N   UNL     1       2.580   2.492  20.886  0.00  0.00    +0.000 NA
ATOM      9  C   UNL     1       3.848   2.142  21.170  0.00  0.00    +0.000 A 
ATOM     10  C   UNL     1       4.904   2.422  20.347  0.00  0.00    +0.000 A 
ATOM     11  C   UNL     1       4.625   3.090  19.168  0.00  0.00    +0.000 A 
ATOM     12  C   UNL     1       3.330   3.504  18.825  0.00  0.00    +0.000 A 
BRANCH   7  14
ATOM     13  C   UNL     1       0.189   2.550  18.835  0.00  0.00    +0.000 C 
ATOM     14  N   UNL     1       0.985   3.569  19.512  0.00  0.00    +0.000 N 
ATOM     15  H   UNL     1       0.569   3.831  20.403  0.00  0.00    +0.000 HD
ENDBRANCH   7  14
ENDBRANCH   1  12
BRANCH   3  16
ATOM     16  N   UNL     1       5.997   5.733  18.019  0.00  0.00    +0.000 N 
ATOM     17  C   UNL     1       7.267   6.254  17.932  0.00  0.00    +0.000 C 
ATOM     18  C   UNL     1       8.131   5.947  19.129  0.00  0.00    +0.000 C 
ATOM     19  O   UNL     1       7.672   6.938  16.998  0.00  0.00    +0.000 OA
ATOM     20  H   UNL     1       5.906   4.907  18.602  0.00  0.00    +0.000 HD
ENDBRANCH   3  16
BRANCH   5  21
ATOM     21  C   UNL     1       2.527   6.844  19.549  0.00  0.00    +0.000 C 
BRANCH  21  22
ATOM     22  C   UNL     1       1.688   7.999  20.029  0.00  0.00    +0.000 A 
ATOM     23  C   UNL     1       1.396   9.075  19.184  0.00  0.00    +0.000 A 
ATOM     24  C   UNL     1       0.586  10.119  19.626  0.00  0.00    +0.000 A 
ATOM     25  C   UNL     1       0.051  10.096  20.914  0.00  0.00    +0.000 A 
ATOM     26  C   UNL     1       0.318   9.022  21.759  0.00  0.00    +0.000 A 
ATOM     27  C   UNL     1       1.131   7.977  21.320  0.00  0.00    +0.000 A 
ENDBRANCH  21  22
ENDBRANCH   5  21
TORSDOF 5
ENDMDL
MODEL 3
REMARK VINA RESULT:      -7.6      3.088      6.547
REMARK  Name = 
REMARK  7 active torsions:
REMARK  status: ('A' for Active; 'I' for Inactive)
REMARK    1  A    between atoms: C_1  and  N_2
REMARK    2  A    between atoms: N_2  and  C_3
REMARK    3  A    between atoms: C_8  and  C_9
REMARK    4  A    between atoms: C_11  and  N_12
REMARK    5  A    between atoms: C_13  and  C_14
REMARK    6  A    between atoms: C_17  and  C_18
REMARK    7  A    between atoms: C_18  and  C_19
REMARK                            x       y       z     vdW  Elec       q    Type
REMARK                         _______ _______ _______ _____ _____    ______ ____
ROOT
ATOM      1  C   UNL     1       2.523   4.632  17.805  0.00  0.00    +0.000 C 
ATOM      2  C   UNL     1       3.832   4.710  17.005  0.00  0.00    +0.000 C 
ATOM      3  C   UNL     1       4.732   5.905  17.325  0.00  0.00    +0.000 C 
ATOM      4  C   UNL     1       3.909   7.189  17.484  0.00  0.00    +0.000 C 
ATOM      5  C   UNL     1       2.511   7.080  18.115  0.00  0.00    +0.000 C 
ATOM      6  O   UNL     1       1.810   5.872  17.799  0.00  0.00    +0.000 OA
ENDROOT
BRANCH   1  12
ATOM      7  C   UNL     1       3.467   2.915  19.478  0.00  0.00    +0.000 A 
ATOM      8  N   UNL     1       3.512   2.349  20.710  0.00  0.00    +0.000 NA
ATOM      9  C   UNL     1       2.644   2.753  21.656  0.00  0.00    +0.000 A 
ATOM     10  C   UNL     1       1.721   3.742  21.452  0.00  0.00    +0.000 A 
ATOM     11  C   UNL     1       1.709   4.345  20.206  0.00  0.00    +0.000 A 
ATOM     12  C   UNL     1       2.571   3.954  19.171  0.00  0.00    +0.000 A 
BRANCH   7  14
ATOM     13  C   UNL     1       4.000   1.127  17.964  0.00  0.00    +0.000 C 
ATOM     14  N   UNL     1       4.364   2.432  18.506  0.00  0.00    +0.000 N 
ATOM     15  H   UNL     1       4.438   3.131  17.770  0.00  0.00    +0.000 HD
ENDBRANCH   7  14
ENDBRANCH   1  12
BRANCH   3  16
ATOM     16  N   UNL     1       5.642   5.611  18.429  0.00  0.00    +0.000 N 
ATOM     17  C   UNL     1       6.975   5.956  18.435  0.00  0.00    +0.000 C 
ATOM     18  C   UNL     1       7.691   5.581  19.707  0.00  0.00    +0.000 C 
ATOM     19  O   UNL     1       7.541   6.545  17.520  0.00  0.00    +0.000 OA
ATOM     20  H   UNL     1       5.395   4.827  19.024  0.00  0.00    +0.000 HD
ENDBRANCH   3  16
BRANCH   5  21
ATOM     21  C   UNL     1       2.338   7.429  19.610  0.00  0.00    +0.000 C 
BRANCH  21  22
ATOM     22  C   UNL     1       1.387   8.544  19.959  0.00  0.00    +0.000 A 
ATOM     23  C   UNL     1       1.058   9.528  19.021  0.00  0.00    +0.000 A 
ATOM     24  C   UNL     1       0.147  10.532  19.342  0.00  0.00    +0.000 A 
ATOM     25  C   UNL     1      -0.454  10.559  20.601  0.00  0.00    +0.000 A 
ATOM     26  C   UNL     1      -0.150   9.574  21.537  0.00  0.00    +0.000 A 
ATOM     27  C   UNL     1       0.764   8.570  21.219  0.00  0.00    +0.000 A 
ENDBRANCH  21  22
ENDBRANCH   5  21
TORSDOF 5
ENDMDL
MODEL 4
REMARK VINA RESULT:      -7.3      2.680      5.824
REMARK  Name = 
REMARK  7 active torsions:
REMARK  status: ('A' for Active; 'I' for Inactive)
REMARK    1  A    between atoms: C_1  and  N_2
REMARK    2  A    between atoms: N_2  and  C_3
REMARK    3  A    between atoms: C_8  and  C_9
REMARK    4  A    between atoms: C_11  and  N_12
REMARK    5  A    between atoms: C_13  and  C_14
REMARK    6  A    between atoms: C_17  and  C_18
REMARK    7  A    between atoms: C_18  and  C_19
REMARK                            x       y       z     vdW  Elec       q    Type
REMARK                         _______ _______ _______ _____ _____    ______ ____
ROOT
ATOM      1  C   UNL     1       3.630   3.825  17.420  0.00  0.00    +0.000 C 
ATOM      2  C   UNL     1       5.004   3.959  16.747  0.00  0.00    +0.000 C 
ATOM      3  C   UNL     1       5.787   5.227  17.089  0.00  0.00    +0.000 C 
ATOM      4  C   UNL     1       4.870   6.456  17.100  0.00  0.00    +0.000 C 
ATOM      5  C   UNL     1       3.427   6.278  17.599  0.00  0.00    +0.000 C 
ATOM      6  O   UNL     1       2.841   5.010  17.281  0.00  0.00    +0.000 OA
ENDROOT
BRANCH   1  12
ATOM      7  C   UNL     1       2.410   3.145  19.586  0.00  0.00    +0.000 A 
ATOM      8  N   UNL     1       2.390   2.570  20.815  0.00  0.00    +0.000 NA
ATOM      9  C   UNL     1       3.535   2.096  21.342  0.00  0.00    +0.000 A 
ATOM     10  C   UNL     1       4.734   2.135  20.685  0.00  0.00    +0.000 A 
ATOM     11  C   UNL     1       4.739   2.684  19.415  0.00  0.00    +0.000 A 
ATOM     12  C   UNL     1       3.586   3.215  18.818  0.00  0.00    +0.000 A 
BRANCH   7  14
ATOM     13  C   UNL     1       0.233   2.643  18.704  0.00  0.00    +0.000 C 
ATOM     14  N   UNL     1       1.200   3.665  19.091  0.00  0.00    +0.000 N 
ATOM     15  H   UNL     1       0.814   4.292  19.794  0.00  0.00    +0.000 HD
ENDBRANCH   7  14
ENDBRANCH   1  12
BRANCH   3  16
ATOM     16  N   UNL     1       6.601   5.049  18.288  0.00  0.00    +0.000 N 
ATOM     17  C   UNL     1       7.580   5.931  18.687  0.00  0.00    +0.000 C 
ATOM     18  C   UNL     1       8.248   5.547  19.983  0.00  0.00    +0.000 C 
ATOM     19  O   UNL     1       7.874   6.957  18.083  0.00  0.00    +0.000 OA
ATOM     20  H   UNL     1       6.712   4.098  18.623  0.00  0.00    +0.000 HD
ENDBRANCH   3  16
BRANCH   5  21
ATOM     21  C   UNL     1       3.084   6.682  19.050  0.00  0.00    +0.000 C 
BRANCH  21  22
ATOM     22  C   UNL     1       2.116   7.820  19.245  0.00  0.00    +0.000 A 
ATOM     23  C   UNL     1       1.561   8.083  20.502  0.00  0.00    +0.000 A 
ATOM     24  C   UNL     1       0.698   9.162  20.680  0.00  0.00    +0.000 A 
ATOM     25  C   UNL     1       0.388   9.998  19.607  0.00  0.00    +0.000 A 
ATOM     26  C   UNL     1       0.949   9.759  18.355  0.00  0.00    +0.000 A 
ATOM     27  C   UNL     1       1.810   8.677  18.174  0.00  0.00    +0.000 A 
ENDBRANCH  21  22
ENDBRANCH   5  21
TORSDOF 5
ENDMDL
MODEL 5
REMARK VINA RESULT:      -7.1      2.298      3.557
REMARK  Name = 
REMARK  7 active torsions:
REMARK  status: ('A' for Active; 'I' for Inactive)
REMARK    1  A    between atoms: C_1  and  N_2
REMARK    2  A    between atoms: N_2  and  C_3
REMARK    3  A    between atoms: C_8  and  C_9
REMARK    4  A    between atoms: C_11  and  N_12
REMARK    5  A    between atoms: C_13  and  C_14
REMARK    6  A    between atoms: C_17  and  C_18
REMARK    7  A    between atoms: C_18  and  C_19
REMARK                            x       y       z     vdW  Elec       q    Type
REMARK                         _______ _______ _______ _____ _____    ______ ____
ROOT
ATOM      1  C   UNL     1       5.007   4.650  18.890  0.00  0.00    +0.000 C 
ATOM      2  C   UNL     1       4.843   6.132  19.257  0.00  0.00    +0.000 C 
ATOM      3  C   UNL     1       4.608   7.082  18.082  0.00  0.00    +0.000 C 
ATOM      4  C   UNL     1       5.517   6.731  16.897  0.00  0.00    +0.000 C 
ATOM      5  C   UNL     1       5.837   5.248  16.645  0.00  0.00    +0.000 C 
ATOM      6  O   UNL     1       5.949   4.455  17.832  0.00  0.00    +0.000 OA
ENDROOT
BRANCH   1  12
ATOM      7  C   UNL     1       3.683   2.446  19.071  0.00  0.00    +0.000 A 
ATOM      8  N   UNL     1       2.534   1.732  18.966  0.00  0.00    +0.000 NA
ATOM      9  C   UNL     1       1.424   2.329  18.495  0.00  0.00    +0.000 A 
ATOM     10  C   UNL     1       1.379   3.648  18.137  0.00  0.00    +0.000 A 
ATOM     11  C   UNL     1       2.542   4.382  18.286  0.00  0.00    +0.000 A 
ATOM     12  C   UNL     1       3.738   3.814  18.749  0.00  0.00    +0.000 A 
BRANCH   7  14
ATOM     13  C   UNL     1       4.834   1.520  20.965  0.00  0.00    +0.000 C 
ATOM     14  N   UNL     1       4.831   1.771  19.528  0.00  0.00    +0.000 N 
ATOM     15  H   UNL     1       4.919   0.905  19.001  0.00  0.00    +0.000 HD
ENDBRANCH   7  14
ENDBRANCH   1  12
BRANCH   3  16
ATOM     16  N   UNL     1       3.188   7.198  17.760  0.00  0.00    +0.000 N 
ATOM     17  C   UNL     1       2.470   8.366  17.873  0.00  0.00    +0.000 C 
ATOM     18  C   UNL     1       1.032   8.238  17.439  0.00  0.00    +0.000 C 
ATOM     19  O   UNL     1       2.941   9.433  18.254  0.00  0.00    +0.000 OA
ATOM     20  H   UNL     1       2.640   6.345  17.816  0.00  0.00    +0.000 HD
ENDBRANCH   3  16
BRANCH   5  21
ATOM     21  C   UNL     1       5.042   4.488  15.561  0.00  0.00    +0.000 C 
BRANCH  21  22
ATOM     22  C   UNL     1       5.704   4.291  14.221  0.00  0.00    +0.000 A 
ATOM     23  C   UNL     1       6.957   4.850  13.951  0.00  0.00    +0.000 A 
ATOM     24  C   UNL     1       7.578   4.628  12.723  0.00  0.00    +0.000 A 
ATOM     25  C   UNL     1       6.957   3.838  11.755  0.00  0.00    +0.000 A 
ATOM     26  C   UNL     1       5.718   3.260  12.019  0.00  0.00    +0.000 A 
ATOM     27  C   UNL     1       5.094   3.484  13.246  0.00  0.00    +0.000 A 
ENDBRANCH  21  22
ENDBRANCH   5  21
TORSDOF 5
ENDMDL
MODEL 6
REMARK VINA RESULT:      -6.7      7.596     11.180
REMARK  Name = 
REMARK  7 active torsions:
REMARK  status: ('A' for Active; 'I' for Inactive)
REMARK    1  A    between atoms: C_1  and  N_2
REMARK    2  A    between atoms: N_2  and  C_3
REMARK    3  A    between atoms: C_8  and  C_9
REMARK    4  A    between atoms: C_11  and  N_12
REMARK    5  A    between atoms: C_13  and  C_14
REMARK    6  A    between atoms: C_17  and  C_18
REMARK    7  A    between atoms: C_18  and  C_19
REMARK                            x       y       z     vdW  Elec       q    Type
REMARK                         _______ _______ _______ _____ _____    ______ ____
ROOT
ATOM      1  C   UNL     1      -0.351  13.013  21.014  0.00  0.00    +0.000 C 
ATOM      2  C   UNL     1      -0.770  14.076  22.041  0.00  0.00    +0.000 C 
ATOM      3  C   UNL     1      -2.277  14.252  22.234  0.00  0.00    +0.000 C 
ATOM      4  C   UNL     1      -3.014  14.222  20.889  0.00  0.00    +0.000 C 
ATOM      5  C   UNL     1      -2.476  13.292  19.789  0.00  0.00    +0.000 C 
ATOM      6  O   UNL     1      -1.050  13.153  19.774  0.00  0.00    +0.000 OA
ENDROOT
BRANCH   1  12
ATOM      7  C   UNL     1       0.406  10.563  20.760  0.00  0.00    +0.000 A 
ATOM      8  N   UNL     1       0.521   9.294  21.228  0.00  0.00    +0.000 NA
ATOM      9  C   UNL     1      -0.040   8.971  22.408  0.00  0.00    +0.000 A 
ATOM     10  C   UNL     1      -0.705   9.872  23.193  0.00  0.00    +0.000 A 
ATOM     11  C   UNL     1      -0.781  11.174  22.731  0.00  0.00    +0.000 A 
ATOM     12  C   UNL     1      -0.239  11.570  21.500  0.00  0.00    +0.000 A 
BRANCH   7  14
ATOM     13  C   UNL     1       1.362   9.659  18.751  0.00  0.00    +0.000 C 
ATOM     14  N   UNL     1       0.970  10.847  19.502  0.00  0.00    +0.000 N 
ATOM     15  H   UNL     1       0.305  11.413  18.979  0.00  0.00    +0.000 HD
ENDBRANCH   7  14
ENDBRANCH   1  12
BRANCH   3  16
ATOM     16  N   UNL     1      -2.799  13.338  23.246  0.00  0.00    +0.000 N 
ATOM     17  C   UNL     1      -4.000  13.518  23.894  0.00  0.00    +0.000 C 
ATOM     18  C   UNL     1      -4.336  12.415  24.864  0.00  0.00    +0.000 C 
ATOM     19  O   UNL     1      -4.760  14.460  23.693  0.00  0.00    +0.000 OA
ATOM     20  H   UNL     1      -2.116  12.780  23.747  0.00  0.00    +0.000 HD
ENDBRANCH   3  16
BRANCH   5  21
ATOM     21  C   UNL     1      -3.154  11.921  19.575  0.00  0.00    +0.000 C 
BRANCH  21  22
ATOM     22  C   UNL     1      -3.067  11.308  18.201  0.00  0.00    +0.000 A 
ATOM     23  C   UNL     1      -2.069  10.379  17.890  0.00  0.00    +0.000 A 
ATOM     24  C   UNL     1      -2.023   9.789  16.629  0.00  0.00    +0.000 A 
ATOM     25  C   UNL     1      -2.979  10.113  15.666  0.00  0.00    +0.000 A 
ATOM     26  C   UNL     1      -3.990  11.022  15.969  0.00  0.00    +0.000 A 
ATOM     27  C   UNL     1      -4.036  11.616  17.230  0.00  0.00    +0.000 A 
ENDBRANCH  21  22
ENDBRANCH   5  21
TORSDOF 5
ENDMDL
MODEL 7
REMARK VINA RESULT:      -6.7     10.618     14.108
REMARK  Name = 
REMARK  7 active torsions:
REMARK  status: ('A' for Active; 'I' for Inactive)
REMARK    1  A    between atoms: C_1  and  N_2
REMARK    2  A    between atoms: N_2  and  C_3
REMARK    3  A    between atoms: C_8  and  C_9
REMARK    4  A    between atoms: C_11  and  N_12
REMARK    5  A    between atoms: C_13  and  C_14
REMARK    6  A    between atoms: C_17  and  C_18
REMARK    7  A    between atoms: C_18  and  C_19
REMARK                            x       y       z     vdW  Elec       q    Type
REMARK                         _______ _______ _______ _____ _____    ______ ____
ROOT
ATOM      1  C   UNL     1      -7.812  13.760  19.719  0.00  0.00    +0.000 C 
ATOM      2  C   UNL     1      -7.646  12.952  21.015  0.00  0.00    +0.000 C 
ATOM      3  C   UNL     1      -6.557  11.878  20.989  0.00  0.00    +0.000 C 
ATOM      4  C   UNL     1      -6.568  11.112  19.660  0.00  0.00    +0.000 C 
ATOM      5  C   UNL     1      -6.923  11.887  18.380  0.00  0.00    +0.000 C 
ATOM      6  O   UNL     1      -7.897  12.921  18.564  0.00  0.00    +0.000 OA
ENDROOT
BRANCH   1  12
ATOM      7  C   UNL     1      -6.996  15.823  18.406  0.00  0.00    +0.000 A 
ATOM      8  N   UNL     1      -6.208  16.920  18.276  0.00  0.00    +0.000 NA
ATOM      9  C   UNL     1      -5.286  17.189  19.220  0.00  0.00    +0.000 A 
ATOM     10  C   UNL     1      -5.116  16.422  20.339  0.00  0.00    +0.000 A 
ATOM     11  C   UNL     1      -5.951  15.328  20.487  0.00  0.00    +0.000 A 
ATOM     12  C   UNL     1      -6.915  14.981  19.530  0.00  0.00    +0.000 A 
BRANCH   7  14
ATOM     13  C   UNL     1      -7.322  15.541  16.044  0.00  0.00    +0.000 C 
ATOM     14  N   UNL     1      -7.916  15.556  17.376  0.00  0.00    +0.000 N 
ATOM     15  H   UNL     1      -8.377  14.672  17.585  0.00  0.00    +0.000 HD
ENDBRANCH   7  14
ENDBRANCH   1  12
BRANCH   3  16
ATOM     16  N   UNL     1      -5.259  12.419  21.382  0.00  0.00    +0.000 N 
ATOM     17  C   UNL     1      -4.875  12.617  22.689  0.00  0.00    +0.000 C 
ATOM     18  C   UNL     1      -3.471  13.145  22.834  0.00  0.00    +0.000 C 
ATOM     19  O   UNL     1      -5.577  12.360  23.662  0.00  0.00    +0.000 OA
ATOM     20  H   UNL     1      -4.786  13.002  20.699  0.00  0.00    +0.000 HD
ENDBRANCH   3  16
BRANCH   5  21
ATOM     21  C   UNL     1      -5.781  12.378  17.465  0.00  0.00    +0.000 C 
BRANCH  21  22
ATOM     22  C   UNL     1      -4.505  11.576  17.452  0.00  0.00    +0.000 A 
ATOM     23  C   UNL     1      -4.230  10.681  16.413  0.00  0.00    +0.000 A 
ATOM     24  C   UNL     1      -3.030   9.974  16.390  0.00  0.00    +0.000 A 
ATOM     25  C   UNL     1      -2.085  10.161  17.400  0.00  0.00    +0.000 A 
ATOM     26  C   UNL     1      -2.338  11.064  18.430  0.00  0.00    +0.000 A 
ATOM     27  C   UNL     1      -3.541  11.770  18.456  0.00  0.00    +0.000 A 
ENDBRANCH  21  22
ENDBRANCH   5  21
TORSDOF 5
ENDMDL
MODEL 8
REMARK VINA RESULT:      -6.6      9.218     11.541
REMARK  Name = 
REMARK  7 active torsions:
REMARK  status: ('A' for Active; 'I' for Inactive)
REMARK    1  A    between atoms: C_1  and  N_2
REMARK    2  A    between atoms: N_2  and  C_3
REMARK    3  A    between atoms: C_8  and  C_9
REMARK    4  A    between atoms: C_11  and  N_12
REMARK    5  A    between atoms: C_13  and  C_14
REMARK    6  A    between atoms: C_17  and  C_18
REMARK    7  A    between atoms: C_18  and  C_19
REMARK                            x       y       z     vdW  Elec       q    Type
REMARK                         _______ _______ _______ _____ _____    ______ ____
ROOT
ATOM      1  C   UNL     1      -0.794  11.439  18.699  0.00  0.00    +0.000 C 
ATOM      2  C   UNL     1      -0.310  10.838  20.027  0.00  0.00    +0.000 C 
ATOM      3  C   UNL     1      -0.027  11.844  21.144  0.00  0.00    +0.000 C 
ATOM      4  C   UNL     1       0.706  13.078  20.603  0.00  0.00    +0.000 C 
ATOM      5  C   UNL     1       0.355  13.568  19.189  0.00  0.00    +0.000 C 
ATOM      6  O   UNL     1       0.030  12.524  18.263  0.00  0.00    +0.000 OA
ENDROOT
BRANCH   1  12
ATOM      7  C   UNL     1      -2.969  11.570  17.323  0.00  0.00    +0.000 A 
ATOM      8  N   UNL     1      -4.306  11.778  17.220  0.00  0.00    +0.000 NA
ATOM      9  C   UNL     1      -5.000  12.169  18.305  0.00  0.00    +0.000 A 
ATOM     10  C   UNL     1      -4.430  12.342  19.536  0.00  0.00    +0.000 A 
ATOM     11  C   UNL     1      -3.074  12.088  19.644  0.00  0.00    +0.000 A 
ATOM     12  C   UNL     1      -2.290  11.701  18.547  0.00  0.00    +0.000 A 
BRANCH   7  14
ATOM     13  C   UNL     1      -3.086  10.464  15.194  0.00  0.00    +0.000 C 
ATOM     14  N   UNL     1      -2.275  11.205  16.154  0.00  0.00    +0.000 N 
ATOM     15  H   UNL     1      -1.889  12.050  15.738  0.00  0.00    +0.000 HD
ENDBRANCH   7  14
ENDBRANCH   1  12
BRANCH   3  16
ATOM     16  N   UNL     1      -1.227  12.129  21.926  0.00  0.00    +0.000 N 
ATOM     17  C   UNL     1      -1.595  11.423  23.048  0.00  0.00    +0.000 C 
ATOM     18  C   UNL     1      -2.851  11.939  23.703  0.00  0.00    +0.000 C 
ATOM     19  O   UNL     1      -0.960  10.482  23.513  0.00  0.00    +0.000 OA
ATOM     20  H   UNL     1      -1.985  12.595  21.438  0.00  0.00    +0.000 HD
ENDBRANCH   3  16
BRANCH   5  21
ATOM     21  C   UNL     1      -0.624  14.752  19.032  0.00  0.00    +0.000 C 
BRANCH  21  22
ATOM     22  C   UNL     1      -0.071  16.045  18.491  0.00  0.00    +0.000 A 
ATOM     23  C   UNL     1      -0.918  17.115  18.182  0.00  0.00    +0.000 A 
ATOM     24  C   UNL     1      -0.392  18.319  17.720  0.00  0.00    +0.000 A 
ATOM     25  C   UNL     1       0.987  18.473  17.572  0.00  0.00    +0.000 A 
ATOM     26  C   UNL     1       1.842  17.423  17.895  0.00  0.00    +0.000 A 
ATOM     27  C   UNL     1       1.318  16.215  18.354  0.00  0.00    +0.000 A 
ENDBRANCH  21  22
ENDBRANCH   5  21
TORSDOF 5
ENDMDL
MODEL 9
REMARK VINA RESULT:      -6.6      8.378     11.733
REMARK  Name = 
REMARK  7 active torsions:
REMARK  status: ('A' for Active; 'I' for Inactive)
REMARK    1  A    between atoms: C_1  and  N_2
REMARK    2  A    between atoms: N_2  and  C_3
REMARK    3  A    between atoms: C_8  and  C_9
REMARK    4  A    between atoms: C_11  and  N_12
REMARK    5  A    between atoms: C_13  and  C_14
REMARK    6  A    between atoms: C_17  and  C_18
REMARK    7  A    between atoms: C_18  and  C_19
REMARK                            x       y       z     vdW  Elec       q    Type
REMARK                         _______ _______ _______ _____ _____    ______ ____
ROOT
ATOM      1  C   UNL     1      -3.031  14.576  22.215  0.00  0.00    +0.000 C 
ATOM      2  C   UNL     1      -2.204  15.198  21.079  0.00  0.00    +0.000 C 
ATOM      3  C   UNL     1      -1.079  14.322  20.525  0.00  0.00    +0.000 C 
ATOM      4  C   UNL     1      -0.326  13.609  21.655  0.00  0.00    +0.000 C 
ATOM      5  C   UNL     1      -1.129  13.153  22.885  0.00  0.00    +0.000 C 
ATOM      6  O   UNL     1      -2.207  14.025  23.246  0.00  0.00    +0.000 OA
ENDROOT
BRANCH   1  12
ATOM      7  C   UNL     1      -5.134  13.189  22.757  0.00  0.00    +0.000 A 
ATOM      8  N   UNL     1      -6.191  12.425  22.380  0.00  0.00    +0.000 NA
ATOM      9  C   UNL     1      -6.335  12.088  21.085  0.00  0.00    +0.000 A 
ATOM     10  C   UNL     1      -5.479  12.505  20.104  0.00  0.00    +0.000 A 
ATOM     11  C   UNL     1      -4.428  13.318  20.488  0.00  0.00    +0.000 A 
ATOM     12  C   UNL     1      -4.208  13.686  21.823  0.00  0.00    +0.000 A 
BRANCH   7  14
ATOM     13  C   UNL     1      -4.680  12.319  24.950  0.00  0.00    +0.000 C 
ATOM     14  N   UNL     1      -4.998  13.482  24.127  0.00  0.00    +0.000 N 
ATOM     15  H   UNL     1      -4.293  14.209  24.226  0.00  0.00    +0.000 HD
ENDBRANCH   7  14
ENDBRANCH   1  12
BRANCH   3  16
ATOM     16  N   UNL     1      -1.553  13.453  19.452  0.00  0.00    +0.000 N 
ATOM     17  C   UNL     1      -0.740  12.941  18.466  0.00  0.00    +0.000 C 
ATOM     18  C   UNL     1      -1.459  12.036  17.499  0.00  0.00    +0.000 C 
ATOM     19  O   UNL     1       0.465  13.155  18.382  0.00  0.00    +0.000 OA
ATOM     20  H   UNL     1      -2.535  13.530  19.207  0.00  0.00    +0.000 HD
ENDBRANCH   3  16
BRANCH   5  21
ATOM     21  C   UNL     1      -1.573  11.677  22.981  0.00  0.00    +0.000 C 
BRANCH  21  22
ATOM     22  C   UNL     1      -0.708  10.645  22.306  0.00  0.00    +0.000 A 
ATOM     23  C   UNL     1      -0.719  10.497  20.915  0.00  0.00    +0.000 A 
ATOM     24  C   UNL     1       0.115   9.567  20.298  0.00  0.00    +0.000 A 
ATOM     25  C   UNL     1       0.976   8.779  21.063  0.00  0.00    +0.000 A 
ATOM     26  C   UNL     1       1.011   8.930  22.447  0.00  0.00    +0.000 A 
ATOM     27  C   UNL     1       0.175   9.858  23.067  0.00  0.00    +0.000 A 
ENDBRANCH  21  22
ENDBRANCH   5  21
TORSDOF 5
ENDMDL
