MODEL 1
REMARK VINA RESULT:      -7.3      0.000      0.000
REMARK  Name = 
REMARK  7 active torsions:
REMARK  status: ('A' for Active; 'I' for Inactive)
REMARK    1  A    between atoms: C_2  and  C_3
REMARK    2  A    between atoms: C_3  and  S_4
REMARK    3  A    between atoms: S_4  and  C_5
REMARK    4  A    between atoms: C_8  and  C_9
REMARK    5  A    between atoms: N_16  and  C_17
REMARK    6  A    between atoms: C_20  and  C_21
REMARK    7  A    between atoms: C_21  and  O_23
REMARK                            x       y       z     vdW  Elec       q    Type
REMARK                         _______ _______ _______ _____ _____    ______ ____
ROOT
ATOM      1  O   UNL     1       0.937   4.610  19.714  0.00  0.00    +0.000 OA
ATOM      2  C   UNL     1       1.719   4.842  20.641  0.00  0.00    +0.000 C 
ATOM      3  N   UNL     1       2.288   6.082  20.915  0.00  0.00    +0.000 N 
ATOM      4  H   UNL     1       3.076   6.101  21.566  0.00  0.00    +0.000 HD
ENDROOT
BRANCH   3   5
ATOM      5  C   UNL     1       1.991   7.290  20.237  0.00  0.00    +0.000 A 
ATOM      6  C   UNL     1       1.262   8.312  20.844  0.00  0.00    +0.000 A 
ATOM      7  C   UNL     1       1.051   9.534  20.201  0.00  0.00    +0.000 A 
ATOM      8  C   UNL     1       1.551   9.748  18.911  0.00  0.00    +0.000 A 
ATOM      9  C   UNL     1       2.263   8.722  18.281  0.00  0.00    +0.000 A 
ATOM     10  C   UNL     1       2.476   7.492  18.943  0.00  0.00    +0.000 A 
BRANCH   8  11
ATOM     11  C   UNL     1       1.397  11.074  18.256  0.00  0.00    +0.000 C 
ATOM     12  O   UNL     1       2.334  11.692  17.780  0.00  0.00    +0.000 OA
BRANCH  11  13
ATOM     13  O   UNL     1       0.128  11.538  18.234  0.00  0.00    +0.000 OA
ATOM     14  H   UNL     1      -0.469  11.133  17.578  0.00  0.00    +0.000 HD
ENDBRANCH  11  13
ENDBRANCH   8  11
ENDBRANCH   3   5
BRANCH   2  15
ATOM     15  C   UNL     1       2.164   3.725  21.560  0.00  0.00    +0.000 C 
BRANCH  15  16
ATOM     16  S   UNL     1       2.819   2.328  20.609  0.00  0.00    +0.000 S 
BRANCH  16  17
ATOM     17  C   UNL     1       3.910   3.136  19.513  0.00  0.00    +0.000 A 
ATOM     18  N   UNL     1       4.876   3.930  19.922  0.00  0.00    +0.000 NA
ATOM     19  N   UNL     1       5.631   4.404  18.866  0.00  0.00    +0.000 NA
ATOM     20  C   UNL     1       5.203   3.964  17.695  0.00  0.00    +0.000 A 
ATOM     21  S   UNL     1       3.815   2.950  17.817  0.00  0.00    +0.000 S 
BRANCH  20  22
ATOM     22  C   UNL     1       5.828   4.259  16.404  0.00  0.00    +0.000 A 
ATOM     23  C   UNL     1       5.353   3.761  15.183  0.00  0.00    +0.000 A 
ATOM     24  C   UNL     1       5.976   4.121  13.989  0.00  0.00    +0.000 A 
ATOM     25  C   UNL     1       7.070   4.965  14.045  0.00  0.00    +0.000 A 
ATOM     26  N   UNL     1       7.571   5.454  15.198  0.00  0.00    +0.000 NA
ATOM     27  C   UNL     1       6.942   5.096  16.343  0.00  0.00    +0.000 A 
ENDBRANCH  20  22
ENDBRANCH  16  17
ENDBRANCH  15  16
ENDBRANCH   2  15
TORSDOF 7
ENDMDL
MODEL 2
REMARK VINA RESULT:      -7.2      1.499      2.059
REMARK  Name = 
REMARK  7 active torsions:
REMARK  status: ('A' for Active; 'I' for Inactive)
REMARK    1  A    between atoms: C_2  and  C_3
REMARK    2  A    between atoms: C_3  and  S_4
REMARK    3  A    between atoms: S_4  and  C_5
REMARK    4  A    between atoms: C_8  and  C_9
REMARK    5  A    between atoms: N_16  and  C_17
REMARK    6  A    between atoms: C_20  and  C_21
REMARK    7  A    between atoms: C_21  and  O_23
REMARK                            x       y       z     vdW  Elec       q    Type
REMARK                         _______ _______ _______ _____ _____    ______ ____
ROOT
ATOM      1  O   UNL     1       1.226   4.488  18.553  0.00  0.00    +0.000 OA
ATOM      2  C   UNL     1       2.394   4.655  18.915  0.00  0.00    +0.000 C 
ATOM      3  N   UNL     1       2.979   5.888  19.187  0.00  0.00    +0.000 N 
ATOM      4  H   UNL     1       3.997   5.915  19.266  0.00  0.00    +0.000 HD
ENDROOT
BRANCH   3   5
ATOM      5  C   UNL     1       2.307   7.135  19.183  0.00  0.00    +0.000 A 
ATOM      6  C   UNL     1       1.748   7.670  20.343  0.00  0.00    +0.000 A 
ATOM      7  C   UNL     1       1.167   8.940  20.348  0.00  0.00    +0.000 A 
ATOM      8  C   UNL     1       1.109   9.695  19.171  0.00  0.00    +0.000 A 
ATOM      9  C   UNL     1       1.643   9.160  17.995  0.00  0.00    +0.000 A 
ATOM     10  C   UNL     1       2.236   7.876  18.002  0.00  0.00    +0.000 A 
BRANCH   8  11
ATOM     11  C   UNL     1       0.562  11.078  19.192  0.00  0.00    +0.000 C 
ATOM     12  O   UNL     1      -0.302  11.438  19.974  0.00  0.00    +0.000 OA
BRANCH  11  13
ATOM     13  O   UNL     1       1.103  11.904  18.270  0.00  0.00    +0.000 OA
ATOM     14  H   UNL     1       2.057  11.791  18.094  0.00  0.00    +0.000 HD
ENDBRANCH  11  13
ENDBRANCH   8  11
ENDBRANCH   3   5
BRANCH   2  15
ATOM     15  C   UNL     1       3.325   3.469  19.052  0.00  0.00    +0.000 C 
BRANCH  15  16
ATOM     16  S   UNL     1       4.948   3.988  19.670  0.00  0.00    +0.000 S 
BRANCH  16  17
ATOM     17  C   UNL     1       5.820   4.242  18.180  0.00  0.00    +0.000 A 
ATOM     18  N   UNL     1       7.103   4.531  18.143  0.00  0.00    +0.000 NA
ATOM     19  N   UNL     1       7.569   4.631  16.845  0.00  0.00    +0.000 NA
ATOM     20  C   UNL     1       6.621   4.427  15.947  0.00  0.00    +0.000 A 
ATOM     21  S   UNL     1       5.076   4.122  16.646  0.00  0.00    +0.000 S 
BRANCH  20  22
ATOM     22  C   UNL     1       6.822   4.423  14.496  0.00  0.00    +0.000 A 
ATOM     23  C   UNL     1       6.160   3.546  13.626  0.00  0.00    +0.000 A 
ATOM     24  C   UNL     1       6.370   3.630  12.251  0.00  0.00    +0.000 A 
ATOM     25  C   UNL     1       7.248   4.587  11.776  0.00  0.00    +0.000 A 
ATOM     26  N   UNL     1       7.920   5.440  12.577  0.00  0.00    +0.000 NA
ATOM     27  C   UNL     1       7.691   5.342  13.909  0.00  0.00    +0.000 A 
ENDBRANCH  20  22
ENDBRANCH  16  17
ENDBRANCH  15  16
ENDBRANCH   2  15
TORSDOF 7
ENDMDL
MODEL 3
REMARK VINA RESULT:      -7.1      3.888      7.718
REMARK  Name = 
REMARK  7 active torsions:
REMARK  status: ('A' for Active; 'I' for Inactive)
REMARK    1  A    between atoms: C_2  and  C_3
REMARK    2  A    between atoms: C_3  and  S_4
REMARK    3  A    between atoms: S_4  and  C_5
REMARK    4  A    between atoms: C_8  and  C_9
REMARK    5  A    between atoms: N_16  and  C_17
REMARK    6  A    between atoms: C_20  and  C_21
REMARK    7  A    between atoms: C_21  and  O_23
REMARK                            x       y       z     vdW  Elec       q    Type
REMARK                         _______ _______ _______ _____ _____    ______ ____
ROOT
ATOM      1  O   UNL     1       5.537   7.088  16.331  0.00  0.00    +0.000 OA
ATOM      2  C   UNL     1       6.728   6.801  16.485  0.00  0.00    +0.000 C 
ATOM      3  N   UNL     1       7.412   5.819  15.776  0.00  0.00    +0.000 N 
ATOM      4  H   UNL     1       8.323   5.530  16.138  0.00  0.00    +0.000 HD
ENDROOT
BRANCH   3   5
ATOM      5  C   UNL     1       6.881   5.059  14.704  0.00  0.00    +0.000 A 
ATOM      6  C   UNL     1       7.521   4.988  13.468  0.00  0.00    +0.000 A 
ATOM      7  C   UNL     1       7.039   4.166  12.447  0.00  0.00    +0.000 A 
ATOM      8  C   UNL     1       5.876   3.411  12.640  0.00  0.00    +0.000 A 
ATOM      9  C   UNL     1       5.210   3.493  13.866  0.00  0.00    +0.000 A 
ATOM     10  C   UNL     1       5.710   4.323  14.895  0.00  0.00    +0.000 A 
BRANCH   8  11
ATOM     11  C   UNL     1       5.404   2.475  11.584  0.00  0.00    +0.000 C 
ATOM     12  O   UNL     1       4.344   2.617  10.997  0.00  0.00    +0.000 OA
BRANCH  11  13
ATOM     13  O   UNL     1       6.250   1.453  11.329  0.00  0.00    +0.000 OA
ATOM     14  H   UNL     1       5.855   0.654  10.930  0.00  0.00    +0.000 HD
ENDBRANCH  11  13
ENDBRANCH   8  11
ENDBRANCH   3   5
BRANCH   2  15
ATOM     15  C   UNL     1       7.550   7.508  17.541  0.00  0.00    +0.000 C 
BRANCH  15  16
ATOM     16  S   UNL     1       7.887   6.409  18.942  0.00  0.00    +0.000 S 
BRANCH  16  17
ATOM     17  C   UNL     1       6.523   5.324  18.866  0.00  0.00    +0.000 A 
ATOM     18  N   UNL     1       6.614   4.092  18.412  0.00  0.00    +0.000 NA
ATOM     19  N   UNL     1       5.409   3.421  18.505  0.00  0.00    +0.000 NA
ATOM     20  C   UNL     1       4.446   4.172  19.011  0.00  0.00    +0.000 A 
ATOM     21  S   UNL     1       4.959   5.773  19.387  0.00  0.00    +0.000 S 
BRANCH  20  22
ATOM     22  C   UNL     1       3.077   3.723  19.272  0.00  0.00    +0.000 A 
ATOM     23  C   UNL     1       2.254   3.143  18.297  0.00  0.00    +0.000 A 
ATOM     24  C   UNL     1       0.975   2.700  18.631  0.00  0.00    +0.000 A 
ATOM     25  C   UNL     1       0.543   2.857  19.935  0.00  0.00    +0.000 A 
ATOM     26  N   UNL     1       1.294   3.424  20.902  0.00  0.00    +0.000 NA
ATOM     27  C   UNL     1       2.536   3.839  20.552  0.00  0.00    +0.000 A 
ENDBRANCH  20  22
ENDBRANCH  16  17
ENDBRANCH  15  16
ENDBRANCH   2  15
TORSDOF 7
ENDMDL
MODEL 4
REMARK VINA RESULT:      -7.1      1.228      1.237
REMARK  Name = 
REMARK  7 active torsions:
REMARK  status: ('A' for Active; 'I' for Inactive)
REMARK    1  A    between atoms: C_2  and  C_3
REMARK    2  A    between atoms: C_3  and  S_4
REMARK    3  A    between atoms: S_4  and  C_5
REMARK    4  A    between atoms: C_8  and  C_9
REMARK    5  A    between atoms: N_16  and  C_17
REMARK    6  A    between atoms: C_20  and  C_21
REMARK    7  A    between atoms: C_21  and  O_23
REMARK                            x       y       z     vdW  Elec       q    Type
REMARK                         _______ _______ _______ _____ _____    ______ ____
ROOT
ATOM      1  O   UNL     1       0.518   4.581  20.314  0.00  0.00    +0.000 OA
ATOM      2  C   UNL     1       1.602   4.715  20.890  0.00  0.00    +0.000 C 
ATOM      3  N   UNL     1       2.424   5.835  20.796  0.00  0.00    +0.000 N 
ATOM      4  H   UNL     1       3.382   5.741  21.140  0.00  0.00    +0.000 HD
ENDROOT
BRANCH   3   5
ATOM      5  C   UNL     1       2.108   7.031  20.106  0.00  0.00    +0.000 A 
ATOM      6  C   UNL     1       1.402   8.066  20.718  0.00  0.00    +0.000 A 
ATOM      7  C   UNL     1       1.174   9.276  20.059  0.00  0.00    +0.000 A 
ATOM      8  C   UNL     1       1.631   9.464  18.750  0.00  0.00    +0.000 A 
ATOM      9  C   UNL     1       2.319   8.425  18.116  0.00  0.00    +0.000 A 
ATOM     10  C   UNL     1       2.550   7.207  18.794  0.00  0.00    +0.000 A 
BRANCH   8  11
ATOM     11  C   UNL     1       1.459  10.779  18.076  0.00  0.00    +0.000 C 
ATOM     12  O   UNL     1       2.370  11.360  17.510  0.00  0.00    +0.000 OA
BRANCH  11  13
ATOM     13  O   UNL     1       0.205  11.278  18.143  0.00  0.00    +0.000 OA
ATOM     14  H   UNL     1      -0.419  10.802  18.723  0.00  0.00    +0.000 HD
ENDBRANCH  11  13
ENDBRANCH   8  11
ENDBRANCH   3   5
BRANCH   2  15
ATOM     15  C   UNL     1       2.154   3.595  21.743  0.00  0.00    +0.000 C 
BRANCH  15  16
ATOM     16  S   UNL     1       2.176   2.032  20.826  0.00  0.00    +0.000 S 
BRANCH  16  17
ATOM     17  C   UNL     1       2.903   2.526  19.319  0.00  0.00    +0.000 A 
ATOM     18  N   UNL     1       2.266   2.478  18.168  0.00  0.00    +0.000 NA
ATOM     19  N   UNL     1       3.038   2.972  17.134  0.00  0.00    +0.000 NA
ATOM     20  C   UNL     1       4.236   3.362  17.534  0.00  0.00    +0.000 A 
ATOM     21  S   UNL     1       4.501   3.122  19.220  0.00  0.00    +0.000 S 
BRANCH  20  22
ATOM     22  C   UNL     1       5.255   3.969  16.676  0.00  0.00    +0.000 A 
ATOM     23  C   UNL     1       5.038   4.296  15.330  0.00  0.00    +0.000 A 
ATOM     24  C   UNL     1       6.044   4.913  14.587  0.00  0.00    +0.000 A 
ATOM     25  C   UNL     1       7.251   5.180  15.206  0.00  0.00    +0.000 A 
ATOM     26  N   UNL     1       7.510   4.868  16.493  0.00  0.00    +0.000 NA
ATOM     27  C   UNL     1       6.513   4.277  17.195  0.00  0.00    +0.000 A 
ENDBRANCH  20  22
ENDBRANCH  16  17
ENDBRANCH  15  16
ENDBRANCH   2  15
TORSDOF 7
ENDMDL
MODEL 5
REMARK VINA RESULT:      -7.1      4.005      7.587
REMARK  Name = 
REMARK  7 active torsions:
REMARK  status: ('A' for Active; 'I' for Inactive)
REMARK    1  A    between atoms: C_2  and  C_3
REMARK    2  A    between atoms: C_3  and  S_4
REMARK    3  A    between atoms: S_4  and  C_5
REMARK    4  A    between atoms: C_8  and  C_9
REMARK    5  A    between atoms: N_16  and  C_17
REMARK    6  A    between atoms: C_20  and  C_21
REMARK    7  A    between atoms: C_21  and  O_23
REMARK                            x       y       z     vdW  Elec       q    Type
REMARK                         _______ _______ _______ _____ _____    ______ ____
ROOT
ATOM      1  O   UNL     1       5.560   7.073  16.283  0.00  0.00    +0.000 OA
ATOM      2  C   UNL     1       6.747   6.794  16.477  0.00  0.00    +0.000 C 
ATOM      3  N   UNL     1       7.439   5.763  15.849  0.00  0.00    +0.000 N 
ATOM      4  H   UNL     1       8.342   5.497  16.247  0.00  0.00    +0.000 HD
ENDROOT
BRANCH   3   5
ATOM      5  C   UNL     1       6.925   4.934  14.822  0.00  0.00    +0.000 A 
ATOM      6  C   UNL     1       5.802   4.132  15.021  0.00  0.00    +0.000 A 
ATOM      7  C   UNL     1       5.249   3.387  13.977  0.00  0.00    +0.000 A 
ATOM      8  C   UNL     1       5.834   3.411  12.706  0.00  0.00    +0.000 A 
ATOM      9  C   UNL     1       6.976   4.192  12.499  0.00  0.00    +0.000 A 
ATOM     10  C   UNL     1       7.523   4.947  13.561  0.00  0.00    +0.000 A 
BRANCH   8  11
ATOM     11  C   UNL     1       5.203   2.681  11.574  0.00  0.00    +0.000 C 
ATOM     12  O   UNL     1       5.665   1.654  11.106  0.00  0.00    +0.000 OA
BRANCH  11  13
ATOM     13  O   UNL     1       4.072   3.254  11.105  0.00  0.00    +0.000 OA
ATOM     14  H   UNL     1       4.060   4.230  11.081  0.00  0.00    +0.000 HD
ENDBRANCH  11  13
ENDBRANCH   8  11
ENDBRANCH   3   5
BRANCH   2  15
ATOM     15  C   UNL     1       7.553   7.569  17.497  0.00  0.00    +0.000 C 
BRANCH  15  16
ATOM     16  S   UNL     1       7.877   6.561  18.968  0.00  0.00    +0.000 S 
BRANCH  16  17
ATOM     17  C   UNL     1       6.561   5.417  18.899  0.00  0.00    +0.000 A 
ATOM     18  N   UNL     1       6.722   4.164  18.529  0.00  0.00    +0.000 NA
ATOM     19  N   UNL     1       5.541   3.450  18.609  0.00  0.00    +0.000 NA
ATOM     20  C   UNL     1       4.526   4.190  19.022  0.00  0.00    +0.000 A 
ATOM     21  S   UNL     1       4.958   5.831  19.318  0.00  0.00    +0.000 S 
BRANCH  20  22
ATOM     22  C   UNL     1       3.164   3.701  19.248  0.00  0.00    +0.000 A 
ATOM     23  C   UNL     1       2.609   3.518  20.522  0.00  0.00    +0.000 A 
ATOM     24  C   UNL     1       1.289   3.090  20.657  0.00  0.00    +0.000 A 
ATOM     25  C   UNL     1       0.555   2.844  19.511  0.00  0.00    +0.000 A 
ATOM     26  N   UNL     1       1.054   2.990  18.266  0.00  0.00    +0.000 NA
ATOM     27  C   UNL     1       2.336   3.415  18.163  0.00  0.00    +0.000 A 
ENDBRANCH  20  22
ENDBRANCH  16  17
ENDBRANCH  15  16
ENDBRANCH   2  15
TORSDOF 7
ENDMDL
MODEL 6
REMARK VINA RESULT:      -7.0      5.818      7.511
REMARK  Name = 
REMARK  7 active torsions:
REMARK  status: ('A' for Active; 'I' for Inactive)
REMARK    1  A    between atoms: C_2  and  C_3
REMARK    2  A    between atoms: C_3  and  S_4
REMARK    3  A    between atoms: S_4  and  C_5
REMARK    4  A    between atoms: C_8  and  C_9
REMARK    5  A    between atoms: N_16  and  C_17
REMARK    6  A    between atoms: C_20  and  C_21
REMARK    7  A    between atoms: C_21  and  O_23
REMARK                            x       y       z     vdW  Elec       q    Type
REMARK                         _______ _______ _______ _____ _____    ______ ____
ROOT
ATOM      1  O   UNL     1       7.732   9.193  17.441  0.00  0.00    +0.000 OA
ATOM      2  C   UNL     1       8.303   8.587  18.353  0.00  0.00    +0.000 C 
ATOM      3  N   UNL     1       9.188   9.160  19.262  0.00  0.00    +0.000 N 
ATOM      4  H   UNL     1       9.755   8.523  19.825  0.00  0.00    +0.000 HD
ENDROOT
BRANCH   3   5
ATOM      5  C   UNL     1       9.501  10.539  19.346  0.00  0.00    +0.000 A 
ATOM      6  C   UNL     1       9.405  11.240  20.547  0.00  0.00    +0.000 A 
ATOM      7  C   UNL     1       9.801  12.576  20.641  0.00  0.00    +0.000 A 
ATOM      8  C   UNL     1      10.283  13.250  19.512  0.00  0.00    +0.000 A 
ATOM      9  C   UNL     1      10.361  12.565  18.296  0.00  0.00    +0.000 A 
ATOM     10  C   UNL     1       9.964  11.211  18.214  0.00  0.00    +0.000 A 
BRANCH   8  11
ATOM     11  C   UNL     1      10.780  14.647  19.627  0.00  0.00    +0.000 C 
ATOM     12  O   UNL     1      11.795  15.038  19.075  0.00  0.00    +0.000 OA
BRANCH  11  13
ATOM     13  O   UNL     1      10.011  15.449  20.396  0.00  0.00    +0.000 OA
ATOM     14  H   UNL     1       9.414  16.059  19.924  0.00  0.00    +0.000 HD
ENDBRANCH  11  13
ENDBRANCH   8  11
ENDBRANCH   3   5
BRANCH   2  15
ATOM     15  C   UNL     1       8.099   7.097  18.521  0.00  0.00    +0.000 C 
BRANCH  15  16
ATOM     16  S   UNL     1       7.197   6.404  17.110  0.00  0.00    +0.000 S 
BRANCH  16  17
ATOM     17  C   UNL     1       6.100   5.306  17.907  0.00  0.00    +0.000 A 
ATOM     18  N   UNL     1       6.482   4.477  18.855  0.00  0.00    +0.000 NA
ATOM     19  N   UNL     1       5.419   3.753  19.361  0.00  0.00    +0.000 NA
ATOM     20  C   UNL     1       4.274   4.047  18.770  0.00  0.00    +0.000 A 
ATOM     21  S   UNL     1       4.437   5.227  17.524  0.00  0.00    +0.000 S 
BRANCH  20  22
ATOM     22  C   UNL     1       2.973   3.477  19.122  0.00  0.00    +0.000 A 
ATOM     23  C   UNL     1       2.532   3.313  20.442  0.00  0.00    +0.000 A 
ATOM     24  C   UNL     1       1.260   2.803  20.699  0.00  0.00    +0.000 A 
ATOM     25  C   UNL     1       0.460   2.456  19.626  0.00  0.00    +0.000 A 
ATOM     26  N   UNL     1       0.849   2.581  18.340  0.00  0.00    +0.000 NA
ATOM     27  C   UNL     1       2.086   3.087  18.118  0.00  0.00    +0.000 A 
ENDBRANCH  20  22
ENDBRANCH  16  17
ENDBRANCH  15  16
ENDBRANCH   2  15
TORSDOF 7
ENDMDL
MODEL 7
REMARK VINA RESULT:      -7.0      0.814      1.011
REMARK  Name = 
REMARK  7 active torsions:
REMARK  status: ('A' for Active; 'I' for Inactive)
REMARK    1  A    between atoms: C_2  and  C_3
REMARK    2  A    between atoms: C_3  and  S_4
REMARK    3  A    between atoms: S_4  and  C_5
REMARK    4  A    between atoms: C_8  and  C_9
REMARK    5  A    between atoms: N_16  and  C_17
REMARK    6  A    between atoms: C_20  and  C_21
REMARK    7  A    between atoms: C_21  and  O_23
REMARK                            x       y       z     vdW  Elec       q    Type
REMARK                         _______ _______ _______ _____ _____    ______ ____
ROOT
ATOM      1  O   UNL     1       1.361   5.051  19.399  0.00  0.00    +0.000 OA
ATOM      2  C   UNL     1       1.873   5.333  20.487  0.00  0.00    +0.000 C 
ATOM      3  N   UNL     1       1.980   6.618  21.011  0.00  0.00    +0.000 N 
ATOM      4  H   UNL     1       2.607   6.747  21.807  0.00  0.00    +0.000 HD
ENDROOT
BRANCH   3   5
ATOM      5  C   UNL     1       1.437   7.790  20.430  0.00  0.00    +0.000 A 
ATOM      6  C   UNL     1       0.524   8.593  21.114  0.00  0.00    +0.000 A 
ATOM      7  C   UNL     1       0.064   9.793  20.569  0.00  0.00    +0.000 A 
ATOM      8  C   UNL     1       0.494  10.204  19.302  0.00  0.00    +0.000 A 
ATOM      9  C   UNL     1       1.390   9.396  18.595  0.00  0.00    +0.000 A 
ATOM     10  C   UNL     1       1.854   8.186  19.158  0.00  0.00    +0.000 A 
BRANCH   8  11
ATOM     11  C   UNL     1       0.067  11.519  18.753  0.00  0.00    +0.000 C 
ATOM     12  O   UNL     1      -0.941  11.662  18.080  0.00  0.00    +0.000 OA
BRANCH  11  13
ATOM     13  O   UNL     1       0.890  12.544  19.062  0.00  0.00    +0.000 OA
ATOM     14  H   UNL     1       1.642  12.334  19.649  0.00  0.00    +0.000 HD
ENDBRANCH  11  13
ENDBRANCH   8  11
ENDBRANCH   3   5
BRANCH   2  15
ATOM     15  C   UNL     1       2.489   4.247  21.342  0.00  0.00    +0.000 C 
BRANCH  15  16
ATOM     16  S   UNL     1       2.917   2.799  20.341  0.00  0.00    +0.000 S 
BRANCH  16  17
ATOM     17  C   UNL     1       4.079   3.477  19.230  0.00  0.00    +0.000 A 
ATOM     18  N   UNL     1       5.129   4.166  19.625  0.00  0.00    +0.000 NA
ATOM     19  N   UNL     1       5.921   4.549  18.560  0.00  0.00    +0.000 NA
ATOM     20  C   UNL     1       5.437   4.150  17.395  0.00  0.00    +0.000 A 
ATOM     21  S   UNL     1       3.949   3.292  17.536  0.00  0.00    +0.000 S 
BRANCH  20  22
ATOM     22  C   UNL     1       6.078   4.367  16.097  0.00  0.00    +0.000 A 
ATOM     23  C   UNL     1       5.706   3.692  14.928  0.00  0.00    +0.000 A 
ATOM     24  C   UNL     1       6.334   3.984  13.718  0.00  0.00    +0.000 A 
ATOM     25  C   UNL     1       7.332   4.941  13.708  0.00  0.00    +0.000 A 
ATOM     26  N   UNL     1       7.735   5.604  14.812  0.00  0.00    +0.000 NA
ATOM     27  C   UNL     1       7.101   5.307  15.973  0.00  0.00    +0.000 A 
ENDBRANCH  20  22
ENDBRANCH  16  17
ENDBRANCH  15  16
ENDBRANCH   2  15
TORSDOF 7
ENDMDL
MODEL 8
REMARK VINA RESULT:      -6.9      1.318      1.737
REMARK  Name = 
REMARK  7 active torsions:
REMARK  status: ('A' for Active; 'I' for Inactive)
REMARK    1  A    between atoms: C_2  and  C_3
REMARK    2  A    between atoms: C_3  and  S_4
REMARK    3  A    between atoms: S_4  and  C_5
REMARK    4  A    between atoms: C_8  and  C_9
REMARK    5  A    between atoms: N_16  and  C_17
REMARK    6  A    between atoms: C_20  and  C_21
REMARK    7  A    between atoms: C_21  and  O_23
REMARK                            x       y       z     vdW  Elec       q    Type
REMARK                         _______ _______ _______ _____ _____    ______ ____
ROOT
ATOM      1  O   UNL     1       0.830   4.089  19.429  0.00  0.00    +0.000 OA
ATOM      2  C   UNL     1       1.340   4.234  20.543  0.00  0.00    +0.000 C 
ATOM      3  N   UNL     1       1.890   5.418  21.024  0.00  0.00    +0.000 N 
ATOM      4  H   UNL     1       2.468   5.358  21.864  0.00  0.00    +0.000 HD
ENDROOT
BRANCH   3   5
ATOM      5  C   UNL     1       1.869   6.666  20.353  0.00  0.00    +0.000 A 
ATOM      6  C   UNL     1       2.416   6.824  19.080  0.00  0.00    +0.000 A 
ATOM      7  C   UNL     1       2.310   8.034  18.390  0.00  0.00    +0.000 A 
ATOM      8  C   UNL     1       1.669   9.129  18.981  0.00  0.00    +0.000 A 
ATOM      9  C   UNL     1       1.138   8.991  20.267  0.00  0.00    +0.000 A 
ATOM     10  C   UNL     1       1.245   7.761  20.953  0.00  0.00    +0.000 A 
BRANCH   8  11
ATOM     11  C   UNL     1       1.486  10.393  18.218  0.00  0.00    +0.000 C 
ATOM     12  O   UNL     1       2.403  11.161  17.977  0.00  0.00    +0.000 OA
BRANCH  11  13
ATOM     13  O   UNL     1       0.217  10.620  17.814  0.00  0.00    +0.000 OA
ATOM     14  H   UNL     1      -0.365   9.838  17.757  0.00  0.00    +0.000 HD
ENDBRANCH  11  13
ENDBRANCH   8  11
ENDBRANCH   3   5
BRANCH   2  15
ATOM     15  C   UNL     1       1.444   3.058  21.491  0.00  0.00    +0.000 C 
BRANCH  15  16
ATOM     16  S   UNL     1       3.118   2.362  21.479  0.00  0.00    +0.000 S 
BRANCH  16  17
ATOM     17  C   UNL     1       3.583   2.611  19.816  0.00  0.00    +0.000 A 
ATOM     18  N   UNL     1       3.152   1.852  18.831  0.00  0.00    +0.000 NA
ATOM     19  N   UNL     1       3.621   2.285  17.606  0.00  0.00    +0.000 NA
ATOM     20  C   UNL     1       4.402   3.347  17.706  0.00  0.00    +0.000 A 
ATOM     21  S   UNL     1       4.631   3.871  19.332  0.00  0.00    +0.000 S 
BRANCH  20  22
ATOM     22  C   UNL     1       5.009   4.057  16.578  0.00  0.00    +0.000 A 
ATOM     23  C   UNL     1       4.905   5.442  16.390  0.00  0.00    +0.000 A 
ATOM     24  C   UNL     1       5.547   6.053  15.314  0.00  0.00    +0.000 A 
ATOM     25  C   UNL     1       6.272   5.261  14.442  0.00  0.00    +0.000 A 
ATOM     26  N   UNL     1       6.385   3.923  14.575  0.00  0.00    +0.000 NA
ATOM     27  C   UNL     1       5.758   3.356  15.634  0.00  0.00    +0.000 A 
ENDBRANCH  20  22
ENDBRANCH  16  17
ENDBRANCH  15  16
ENDBRANCH   2  15
TORSDOF 7
ENDMDL
MODEL 9
REMARK VINA RESULT:      -6.9      3.751      7.775
REMARK  Name = 
REMARK  7 active torsions:
REMARK  status: ('A' for Active; 'I' for Inactive)
REMARK    1  A    between atoms: C_2  and  C_3
REMARK    2  A    between atoms: C_3  and  S_4
REMARK    3  A    between atoms: S_4  and  C_5
REMARK    4  A    between atoms: C_8  and  C_9
REMARK    5  A    between atoms: N_16  and  C_17
REMARK    6  A    between atoms: C_20  and  C_21
REMARK    7  A    between atoms: C_21  and  O_23
REMARK                            x       y       z     vdW  Elec       q    Type
REMARK                         _______ _______ _______ _____ _____    ______ ____
ROOT
ATOM      1  O   UNL     1       1.469   4.003  17.319  0.00  0.00    +0.000 OA
ATOM      2  C   UNL     1       2.010   4.439  18.340  0.00  0.00    +0.000 C 
ATOM      3  N   UNL     1       3.353   4.787  18.447  0.00  0.00    +0.000 N 
ATOM      4  H   UNL     1       3.726   4.927  19.388  0.00  0.00    +0.000 HD
ENDROOT
BRANCH   3   5
ATOM      5  C   UNL     1       4.289   4.789  17.383  0.00  0.00    +0.000 A 
ATOM      6  C   UNL     1       4.840   3.608  16.889  0.00  0.00    +0.000 A 
ATOM      7  C   UNL     1       5.692   3.612  15.782  0.00  0.00    +0.000 A 
ATOM      8  C   UNL     1       6.032   4.818  15.158  0.00  0.00    +0.000 A 
ATOM      9  C   UNL     1       5.506   6.013  15.659  0.00  0.00    +0.000 A 
ATOM     10  C   UNL     1       4.640   5.996  16.776  0.00  0.00    +0.000 A 
BRANCH   8  11
ATOM     11  C   UNL     1       6.875   4.818  13.933  0.00  0.00    +0.000 C 
ATOM     12  O   UNL     1       7.813   5.581  13.773  0.00  0.00    +0.000 OA
BRANCH  11  13
ATOM     13  O   UNL     1       6.513   3.901  13.009  0.00  0.00    +0.000 OA
ATOM     14  H   UNL     1       6.883   3.004  13.122  0.00  0.00    +0.000 HD
ENDBRANCH  11  13
ENDBRANCH   8  11
ENDBRANCH   3   5
BRANCH   2  15
ATOM     15  C   UNL     1       1.215   4.587  19.619  0.00  0.00    +0.000 C 
BRANCH  15  16
ATOM     16  S   UNL     1       2.120   5.583  20.833  0.00  0.00    +0.000 S 
BRANCH  16  17
ATOM     17  C   UNL     1       1.757   7.201  20.291  0.00  0.00    +0.000 A 
ATOM     18  N   UNL     1       2.149   7.670  19.125  0.00  0.00    +0.000 NA
ATOM     19  N   UNL     1       1.692   8.956  18.909  0.00  0.00    +0.000 NA
ATOM     20  C   UNL     1       0.983   9.422  19.924  0.00  0.00    +0.000 A 
ATOM     21  S   UNL     1       0.853   8.306  21.231  0.00  0.00    +0.000 S 
BRANCH  20  22
ATOM     22  C   UNL     1       0.332  10.732  19.965  0.00  0.00    +0.000 A 
ATOM     23  C   UNL     1      -0.956  10.972  19.469  0.00  0.00    +0.000 A 
ATOM     24  C   UNL     1      -1.528  12.239  19.583  0.00  0.00    +0.000 A 
ATOM     25  C   UNL     1      -0.791  13.242  20.185  0.00  0.00    +0.000 A 
ATOM     26  N   UNL     1       0.458  13.061  20.662  0.00  0.00    +0.000 NA
ATOM     27  C   UNL     1       0.987  11.819  20.546  0.00  0.00    +0.000 A 
ENDBRANCH  20  22
ENDBRANCH  16  17
ENDBRANCH  15  16
ENDBRANCH   2  15
TORSDOF 7
ENDMDL
