MODEL 1
REMARK VINA RESULT:      -8.4      0.000      0.000
REMARK  Name = 
REMARK  9 active torsions:
REMARK  status: ('A' for Active; 'I' for Inactive)
REMARK    1  A    between atoms: N_1  and  C_2
REMARK    2  A    between atoms: C_7  and  S_8
REMARK    3  A    between atoms: S_8  and  C_9
REMARK    4  A    between atoms: C_12  and  C_13
REMARK    5  A    between atoms: C_13  and  N_14
REMARK    6  A    between atoms: N_14  and  C_15
REMARK    7  A    between atoms: C_18  and  C_19
REMARK    8  A    between atoms: C_19  and  O_21
REMARK    9  A    between atoms: C_25  and  N_26
REMARK                            x       y       z     vdW  Elec       q    Type
REMARK                         _______ _______ _______ _____ _____    ______ ____
ROOT
ATOM      1  C   UNL     1       1.277   9.703  19.124  0.00  0.00    +0.000 A 
ATOM      2  C   UNL     1       1.862   9.031  18.041  0.00  0.00    +0.000 A 
ATOM      3  C   UNL     1       2.351   7.723  18.170  0.00  0.00    +0.000 A 
ATOM      4  C   UNL     1       2.262   7.035  19.387  0.00  0.00    +0.000 A 
ATOM      5  C   UNL     1       1.661   7.684  20.475  0.00  0.00    +0.000 A 
ATOM      6  C   UNL     1       1.164   8.995  20.329  0.00  0.00    +0.000 A 
ENDROOT
BRANCH   6   7
ATOM      7  N   UNL     1       0.503   9.573  21.486  0.00  0.00    +0.000 N 
ATOM      8  O   UNL     1      -0.605   9.119  21.802  0.00  0.00    +0.000 OA
ATOM      9  O   UNL     1       1.125  10.438  22.115  0.00  0.00    +0.000 OA
ENDBRANCH   6   7
BRANCH   1  10
ATOM     10  S   UNL     1       0.716  11.376  18.810  0.00  0.00    +0.000 S 
BRANCH  10  16
ATOM     11  C   UNL     1      -2.038  12.015  18.809  0.00  0.00    +0.000 A 
ATOM     12  C   UNL     1      -3.371  11.687  18.523  0.00  0.00    +0.000 A 
ATOM     13  C   UNL     1      -3.687  10.559  17.764  0.00  0.00    +0.000 A 
ATOM     14  C   UNL     1      -2.673   9.717  17.320  0.00  0.00    +0.000 A 
ATOM     15  C   UNL     1      -1.347   9.987  17.658  0.00  0.00    +0.000 A 
ATOM     16  C   UNL     1      -1.019  11.111  18.430  0.00  0.00    +0.000 A 
BRANCH  11  17
ATOM     17  N   UNL     1      -1.784  13.144  19.618  0.00  0.00    +0.000 N 
ATOM     18  H   UNL     1      -0.796  13.373  19.681  0.00  0.00    +0.000 HD
ATOM     19  H   UNL     1      -2.205  13.035  20.538  0.00  0.00    +0.000 HD
ENDBRANCH  11  17
ENDBRANCH  10  16
ENDBRANCH   1  10
BRANCH   4  20
ATOM     20  C   UNL     1       2.840   5.639  19.527  0.00  0.00    +0.000 C 
BRANCH  20  21
ATOM     21  N   UNL     1       4.295   5.721  19.556  0.00  0.00    +0.000 N 
ATOM     22  H   UNL     1       4.620   6.572  20.007  0.00  0.00    +0.000 HD
BRANCH  21  23
ATOM     23  C   UNL     1       5.019   5.433  18.391  0.00  0.00    +0.000 A 
ATOM     24  C   UNL     1       4.465   4.547  17.454  0.00  0.00    +0.000 A 
ATOM     25  C   UNL     1       5.101   4.283  16.232  0.00  0.00    +0.000 A 
ATOM     26  C   UNL     1       6.295   4.928  15.906  0.00  0.00    +0.000 A 
ATOM     27  C   UNL     1       6.838   5.850  16.805  0.00  0.00    +0.000 A 
ATOM     28  C   UNL     1       6.201   6.093  18.035  0.00  0.00    +0.000 A 
BRANCH  26  29
ATOM     29  C   UNL     1       6.890   4.654  14.567  0.00  0.00    +0.000 C 
ATOM     30  O   UNL     1       7.713   5.382  14.051  0.00  0.00    +0.000 OA
BRANCH  29  31
ATOM     31  O   UNL     1       6.411   3.546  13.961  0.00  0.00    +0.000 OA
ATOM     32  H   UNL     1       6.080   2.851  14.554  0.00  0.00    +0.000 HD
ENDBRANCH  29  31
ENDBRANCH  26  29
ENDBRANCH  21  23
ENDBRANCH  20  21
ENDBRANCH   4  20
TORSDOF 9
ENDMDL
MODEL 2
REMARK VINA RESULT:      -8.1      1.210      1.389
REMARK  Name = 
REMARK  9 active torsions:
REMARK  status: ('A' for Active; 'I' for Inactive)
REMARK    1  A    between atoms: N_1  and  C_2
REMARK    2  A    between atoms: C_7  and  S_8
REMARK    3  A    between atoms: S_8  and  C_9
REMARK    4  A    between atoms: C_12  and  C_13
REMARK    5  A    between atoms: C_13  and  N_14
REMARK    6  A    between atoms: N_14  and  C_15
REMARK    7  A    between atoms: C_18  and  C_19
REMARK    8  A    between atoms: C_19  and  O_21
REMARK    9  A    between atoms: C_25  and  N_26
REMARK                            x       y       z     vdW  Elec       q    Type
REMARK                         _______ _______ _______ _____ _____    ______ ____
ROOT
ATOM      1  C   UNL     1       0.537   9.778  19.993  0.00  0.00    +0.000 A 
ATOM      2  C   UNL     1       1.146   9.443  18.776  0.00  0.00    +0.000 A 
ATOM      3  C   UNL     1       1.953   8.303  18.650  0.00  0.00    +0.000 A 
ATOM      4  C   UNL     1       2.172   7.450  19.740  0.00  0.00    +0.000 A 
ATOM      5  C   UNL     1       1.554   7.758  20.960  0.00  0.00    +0.000 A 
ATOM      6  C   UNL     1       0.736   8.902  21.069  0.00  0.00    +0.000 A 
ENDROOT
BRANCH   6   7
ATOM      7  N   UNL     1       0.086   9.117  22.349  0.00  0.00    +0.000 N 
ATOM      8  O   UNL     1      -0.974   8.512  22.565  0.00  0.00    +0.000 OA
ATOM      9  O   UNL     1       0.672   9.842  23.164  0.00  0.00    +0.000 OA
ENDBRANCH   6   7
BRANCH   1  10
ATOM     10  S   UNL     1      -0.450  11.275  20.002  0.00  0.00    +0.000 S 
BRANCH  10  16
ATOM     11  C   UNL     1      -1.624  11.812  17.488  0.00  0.00    +0.000 A 
ATOM     12  C   UNL     1      -2.577  11.536  16.497  0.00  0.00    +0.000 A 
ATOM     13  C   UNL     1      -3.370  10.388  16.562  0.00  0.00    +0.000 A 
ATOM     14  C   UNL     1      -3.251   9.525  17.646  0.00  0.00    +0.000 A 
ATOM     15  C   UNL     1      -2.360   9.823  18.678  0.00  0.00    +0.000 A 
ATOM     16  C   UNL     1      -1.568  10.980  18.628  0.00  0.00    +0.000 A 
BRANCH  11  17
ATOM     17  N   UNL     1      -0.884  13.010  17.389  0.00  0.00    +0.000 N 
ATOM     18  H   UNL     1      -0.047  12.915  16.820  0.00  0.00    +0.000 HD
ATOM     19  H   UNL     1      -0.671  13.384  18.312  0.00  0.00    +0.000 HD
ENDBRANCH  11  17
ENDBRANCH  10  16
ENDBRANCH   1  10
BRANCH   4  20
ATOM     20  C   UNL     1       3.087   6.248  19.606  0.00  0.00    +0.000 C 
BRANCH  20  21
ATOM     21  N   UNL     1       2.804   5.565  18.349  0.00  0.00    +0.000 N 
ATOM     22  H   UNL     1       2.281   4.706  18.492  0.00  0.00    +0.000 HD
BRANCH  21  23
ATOM     23  C   UNL     1       3.834   5.405  17.411  0.00  0.00    +0.000 A 
ATOM     24  C   UNL     1       4.131   4.113  16.949  0.00  0.00    +0.000 A 
ATOM     25  C   UNL     1       5.091   3.896  15.950  0.00  0.00    +0.000 A 
ATOM     26  C   UNL     1       5.756   4.976  15.366  0.00  0.00    +0.000 A 
ATOM     27  C   UNL     1       5.439   6.274  15.779  0.00  0.00    +0.000 A 
ATOM     28  C   UNL     1       4.487   6.478  16.794  0.00  0.00    +0.000 A 
BRANCH  26  29
ATOM     29  C   UNL     1       6.720   4.687  14.267  0.00  0.00    +0.000 C 
ATOM     30  O   UNL     1       6.537   3.814  13.443  0.00  0.00    +0.000 OA
BRANCH  29  31
ATOM     31  O   UNL     1       7.832   5.454  14.286  0.00  0.00    +0.000 OA
ATOM     32  H   UNL     1       7.758   6.314  13.839  0.00  0.00    +0.000 HD
ENDBRANCH  29  31
ENDBRANCH  26  29
ENDBRANCH  21  23
ENDBRANCH  20  21
ENDBRANCH   4  20
TORSDOF 9
ENDMDL
MODEL 3
REMARK VINA RESULT:      -8.1      3.475      8.895
REMARK  Name = 
REMARK  9 active torsions:
REMARK  status: ('A' for Active; 'I' for Inactive)
REMARK    1  A    between atoms: N_1  and  C_2
REMARK    2  A    between atoms: C_7  and  S_8
REMARK    3  A    between atoms: S_8  and  C_9
REMARK    4  A    between atoms: C_12  and  C_13
REMARK    5  A    between atoms: C_13  and  N_14
REMARK    6  A    between atoms: N_14  and  C_15
REMARK    7  A    between atoms: C_18  and  C_19
REMARK    8  A    between atoms: C_19  and  O_21
REMARK    9  A    between atoms: C_25  and  N_26
REMARK                            x       y       z     vdW  Elec       q    Type
REMARK                         _______ _______ _______ _____ _____    ______ ____
ROOT
ATOM      1  C   UNL     1       2.640   5.029  18.402  0.00  0.00    +0.000 A 
ATOM      2  C   UNL     1       2.810   6.313  17.865  0.00  0.00    +0.000 A 
ATOM      3  C   UNL     1       2.428   7.460  18.575  0.00  0.00    +0.000 A 
ATOM      4  C   UNL     1       1.870   7.364  19.856  0.00  0.00    +0.000 A 
ATOM      5  C   UNL     1       1.712   6.089  20.418  0.00  0.00    +0.000 A 
ATOM      6  C   UNL     1       2.110   4.944  19.697  0.00  0.00    +0.000 A 
ENDROOT
BRANCH   6   7
ATOM      7  N   UNL     1       1.967   3.667  20.374  0.00  0.00    +0.000 N 
ATOM      8  O   UNL     1       0.861   3.112  20.327  0.00  0.00    +0.000 OA
ATOM      9  O   UNL     1       2.983   3.192  20.897  0.00  0.00    +0.000 OA
ENDBRANCH   6   7
BRANCH   1  10
ATOM     10  S   UNL     1       3.159   3.660  17.368  0.00  0.00    +0.000 S 
BRANCH  10  16
ATOM     11  C   UNL     1       5.895   4.162  17.870  0.00  0.00    +0.000 A 
ATOM     12  C   UNL     1       7.153   4.619  17.453  0.00  0.00    +0.000 A 
ATOM     13  C   UNL     1       7.397   4.929  16.114  0.00  0.00    +0.000 A 
ATOM     14  C   UNL     1       6.369   4.831  15.182  0.00  0.00    +0.000 A 
ATOM     15  C   UNL     1       5.092   4.448  15.592  0.00  0.00    +0.000 A 
ATOM     16  C   UNL     1       4.833   4.145  16.938  0.00  0.00    +0.000 A 
BRANCH  11  17
ATOM     17  N   UNL     1       5.698   3.906  19.245  0.00  0.00    +0.000 N 
ATOM     18  H   UNL     1       4.723   3.739  19.482  0.00  0.00    +0.000 HD
ATOM     19  H   UNL     1       6.102   4.645  19.815  0.00  0.00    +0.000 HD
ENDBRANCH  11  17
ENDBRANCH  10  16
ENDBRANCH   1  10
BRANCH   4  20
ATOM     20  C   UNL     1       1.414   8.608  20.594  0.00  0.00    +0.000 C 
BRANCH  20  21
ATOM     21  N   UNL     1       1.304   9.714  19.650  0.00  0.00    +0.000 N 
ATOM     22  H   UNL     1       1.831  10.529  19.955  0.00  0.00    +0.000 HD
BRANCH  21  23
ATOM     23  C   UNL     1       0.043  10.061  19.146  0.00  0.00    +0.000 A 
ATOM     24  C   UNL     1      -0.738  10.983  19.860  0.00  0.00    +0.000 A 
ATOM     25  C   UNL     1      -1.972  11.433  19.366  0.00  0.00    +0.000 A 
ATOM     26  C   UNL     1      -2.437  10.993  18.125  0.00  0.00    +0.000 A 
ATOM     27  C   UNL     1      -1.650  10.111  17.378  0.00  0.00    +0.000 A 
ATOM     28  C   UNL     1      -0.424   9.653  17.891  0.00  0.00    +0.000 A 
BRANCH  26  29
ATOM     29  C   UNL     1      -3.724  11.554  17.626  0.00  0.00    +0.000 C 
ATOM     30  O   UNL     1      -4.186  11.274  16.539  0.00  0.00    +0.000 OA
BRANCH  29  31
ATOM     31  O   UNL     1      -4.315  12.428  18.469  0.00  0.00    +0.000 OA
ATOM     32  H   UNL     1      -4.155  12.275  19.416  0.00  0.00    +0.000 HD
ENDBRANCH  29  31
ENDBRANCH  26  29
ENDBRANCH  21  23
ENDBRANCH  20  21
ENDBRANCH   4  20
TORSDOF 9
ENDMDL
MODEL 4
REMARK VINA RESULT:      -8.0      0.770      1.134
REMARK  Name = 
REMARK  9 active torsions:
REMARK  status: ('A' for Active; 'I' for Inactive)
REMARK    1  A    between atoms: N_1  and  C_2
REMARK    2  A    between atoms: C_7  and  S_8
REMARK    3  A    between atoms: S_8  and  C_9
REMARK    4  A    between atoms: C_12  and  C_13
REMARK    5  A    between atoms: C_13  and  N_14
REMARK    6  A    between atoms: N_14  and  C_15
REMARK    7  A    between atoms: C_18  and  C_19
REMARK    8  A    between atoms: C_19  and  O_21
REMARK    9  A    between atoms: C_25  and  N_26
REMARK                            x       y       z     vdW  Elec       q    Type
REMARK                         _______ _______ _______ _____ _____    ______ ____
ROOT
ATOM      1  C   UNL     1       1.203   9.474  19.608  0.00  0.00    +0.000 A 
ATOM      2  C   UNL     1       1.756   9.001  18.409  0.00  0.00    +0.000 A 
ATOM      3  C   UNL     1       2.297   7.712  18.311  0.00  0.00    +0.000 A 
ATOM      4  C   UNL     1       2.296   6.843  19.410  0.00  0.00    +0.000 A 
ATOM      5  C   UNL     1       1.728   7.291  20.611  0.00  0.00    +0.000 A 
ATOM      6  C   UNL     1       1.178   8.586  20.693  0.00  0.00    +0.000 A 
ENDROOT
BRANCH   6   7
ATOM      7  N   UNL     1       0.556   8.951  21.953  0.00  0.00    +0.000 N 
ATOM      8  O   UNL     1       1.219   9.636  22.745  0.00  0.00    +0.000 OA
ATOM      9  O   UNL     1      -0.620   8.605  22.121  0.00  0.00    +0.000 OA
ENDBRANCH   6   7
BRANCH   1  10
ATOM     10  S   UNL     1       0.566  11.150  19.582  0.00  0.00    +0.000 S 
BRANCH  10  16
ATOM     11  C   UNL     1      -1.403  11.947  17.718  0.00  0.00    +0.000 A 
ATOM     12  C   UNL     1      -2.615  11.729  17.048  0.00  0.00    +0.000 A 
ATOM     13  C   UNL     1      -3.280  10.505  17.146  0.00  0.00    +0.000 A 
ATOM     14  C   UNL     1      -2.762   9.499  17.955  0.00  0.00    +0.000 A 
ATOM     15  C   UNL     1      -1.597   9.725  18.687  0.00  0.00    +0.000 A 
ATOM     16  C   UNL     1      -0.927  10.955  18.605  0.00  0.00    +0.000 A 
BRANCH  11  17
ATOM     17  N   UNL     1      -0.801  13.221  17.616  0.00  0.00    +0.000 N 
ATOM     18  H   UNL     1      -0.763  13.715  18.503  0.00  0.00    +0.000 HD
ATOM     19  H   UNL     1      -1.250  13.779  16.893  0.00  0.00    +0.000 HD
ENDBRANCH  11  17
ENDBRANCH  10  16
ENDBRANCH   1  10
BRANCH   4  20
ATOM     20  C   UNL     1       2.930   5.469  19.307  0.00  0.00    +0.000 C 
BRANCH  20  21
ATOM     21  N   UNL     1       4.381   5.607  19.302  0.00  0.00    +0.000 N 
ATOM     22  H   UNL     1       4.684   6.461  19.763  0.00  0.00    +0.000 HD
BRANCH  21  23
ATOM     23  C   UNL     1       5.087   5.370  18.115  0.00  0.00    +0.000 A 
ATOM     24  C   UNL     1       4.517   4.527  17.148  0.00  0.00    +0.000 A 
ATOM     25  C   UNL     1       5.134   4.317  15.906  0.00  0.00    +0.000 A 
ATOM     26  C   UNL     1       6.323   4.976  15.590  0.00  0.00    +0.000 A 
ATOM     27  C   UNL     1       6.881   5.856  16.521  0.00  0.00    +0.000 A 
ATOM     28  C   UNL     1       6.264   6.045  17.770  0.00  0.00    +0.000 A 
BRANCH  26  29
ATOM     29  C   UNL     1       6.898   4.761  14.232  0.00  0.00    +0.000 C 
ATOM     30  O   UNL     1       6.464   3.932  13.457  0.00  0.00    +0.000 OA
BRANCH  29  31
ATOM     31  O   UNL     1       7.964   5.540  13.948  0.00  0.00    +0.000 OA
ATOM     32  H   UNL     1       8.760   5.374  14.480  0.00  0.00    +0.000 HD
ENDBRANCH  29  31
ENDBRANCH  26  29
ENDBRANCH  21  23
ENDBRANCH  20  21
ENDBRANCH   4  20
TORSDOF 9
ENDMDL
MODEL 5
REMARK VINA RESULT:      -8.0      0.961      1.379
REMARK  Name = 
REMARK  9 active torsions:
REMARK  status: ('A' for Active; 'I' for Inactive)
REMARK    1  A    between atoms: N_1  and  C_2
REMARK    2  A    between atoms: C_7  and  S_8
REMARK    3  A    between atoms: S_8  and  C_9
REMARK    4  A    between atoms: C_12  and  C_13
REMARK    5  A    between atoms: C_13  and  N_14
REMARK    6  A    between atoms: N_14  and  C_15
REMARK    7  A    between atoms: C_18  and  C_19
REMARK    8  A    between atoms: C_19  and  O_21
REMARK    9  A    between atoms: C_25  and  N_26
REMARK                            x       y       z     vdW  Elec       q    Type
REMARK                         _______ _______ _______ _____ _____    ______ ____
ROOT
ATOM      1  C   UNL     1       0.878   9.919  19.833  0.00  0.00    +0.000 A 
ATOM      2  C   UNL     1       1.492   9.495  18.645  0.00  0.00    +0.000 A 
ATOM      3  C   UNL     1       2.163   8.266  18.567  0.00  0.00    +0.000 A 
ATOM      4  C   UNL     1       2.235   7.411  19.674  0.00  0.00    +0.000 A 
ATOM      5  C   UNL     1       1.609   7.809  20.863  0.00  0.00    +0.000 A 
ATOM      6  C   UNL     1       0.928   9.042  20.925  0.00  0.00    +0.000 A 
ENDROOT
BRANCH   6   7
ATOM      7  N   UNL     1       0.256   9.352  22.175  0.00  0.00    +0.000 N 
ATOM      8  O   UNL     1       0.864  10.051  22.997  0.00  0.00    +0.000 OA
ATOM      9  O   UNL     1      -0.907   8.949  22.303  0.00  0.00    +0.000 OA
ENDBRANCH   6   7
BRANCH   1  10
ATOM     10  S   UNL     1       0.075  11.521  19.783  0.00  0.00    +0.000 S 
BRANCH  10  16
ATOM     11  C   UNL     1      -2.603  11.908  18.968  0.00  0.00    +0.000 A 
ATOM     12  C   UNL     1      -3.737  11.501  18.249  0.00  0.00    +0.000 A 
ATOM     13  C   UNL     1      -3.667  10.446  17.337  0.00  0.00    +0.000 A 
ATOM     14  C   UNL     1      -2.472   9.756  17.166  0.00  0.00    +0.000 A 
ATOM     15  C   UNL     1      -1.355  10.100  17.925  0.00  0.00    +0.000 A 
ATOM     16  C   UNL     1      -1.416  11.150  18.855  0.00  0.00    +0.000 A 
BRANCH  11  17
ATOM     17  N   UNL     1      -2.747  12.952  19.909  0.00  0.00    +0.000 N 
ATOM     18  H   UNL     1      -3.569  12.846  20.497  0.00  0.00    +0.000 HD
ATOM     19  H   UNL     1      -2.726  13.860  19.451  0.00  0.00    +0.000 HD
ENDBRANCH  11  17
ENDBRANCH  10  16
ENDBRANCH   1  10
BRANCH   4  20
ATOM     20  C   UNL     1       3.007   6.108  19.591  0.00  0.00    +0.000 C 
BRANCH  20  21
ATOM     21  N   UNL     1       2.614   5.391  18.384  0.00  0.00    +0.000 N 
ATOM     22  H   UNL     1       2.067   4.560  18.595  0.00  0.00    +0.000 HD
BRANCH  21  23
ATOM     23  C   UNL     1       3.571   5.152  17.388  0.00  0.00    +0.000 A 
ATOM     24  C   UNL     1       4.333   6.231  16.913  0.00  0.00    +0.000 A 
ATOM     25  C   UNL     1       5.363   6.043  15.979  0.00  0.00    +0.000 A 
ATOM     26  C   UNL     1       5.675   4.762  15.523  0.00  0.00    +0.000 A 
ATOM     27  C   UNL     1       4.959   3.669  16.021  0.00  0.00    +0.000 A 
ATOM     28  C   UNL     1       3.917   3.871  16.944  0.00  0.00    +0.000 A 
BRANCH  26  29
ATOM     29  C   UNL     1       6.820   4.619  14.579  0.00  0.00    +0.000 C 
ATOM     30  O   UNL     1       7.780   5.362  14.592  0.00  0.00    +0.000 OA
BRANCH  29  31
ATOM     31  O   UNL     1       6.683   3.616  13.685  0.00  0.00    +0.000 OA
ATOM     32  H   UNL     1       6.788   2.717  14.040  0.00  0.00    +0.000 HD
ENDBRANCH  29  31
ENDBRANCH  26  29
ENDBRANCH  21  23
ENDBRANCH  20  21
ENDBRANCH   4  20
TORSDOF 9
ENDMDL
MODEL 6
REMARK VINA RESULT:      -7.9      3.655      9.519
REMARK  Name = 
REMARK  9 active torsions:
REMARK  status: ('A' for Active; 'I' for Inactive)
REMARK    1  A    between atoms: N_1  and  C_2
REMARK    2  A    between atoms: C_7  and  S_8
REMARK    3  A    between atoms: S_8  and  C_9
REMARK    4  A    between atoms: C_12  and  C_13
REMARK    5  A    between atoms: C_13  and  N_14
REMARK    6  A    between atoms: N_14  and  C_15
REMARK    7  A    between atoms: C_18  and  C_19
REMARK    8  A    between atoms: C_19  and  O_21
REMARK    9  A    between atoms: C_25  and  N_26
REMARK                            x       y       z     vdW  Elec       q    Type
REMARK                         _______ _______ _______ _____ _____    ______ ____
ROOT
ATOM      1  C   UNL     1       2.671   4.846  18.522  0.00  0.00    +0.000 A 
ATOM      2  C   UNL     1       2.766   6.175  18.085  0.00  0.00    +0.000 A 
ATOM      3  C   UNL     1       2.411   7.247  18.917  0.00  0.00    +0.000 A 
ATOM      4  C   UNL     1       1.956   7.026  20.223  0.00  0.00    +0.000 A 
ATOM      5  C   UNL     1       1.874   5.705  20.684  0.00  0.00    +0.000 A 
ATOM      6  C   UNL     1       2.245   4.637  19.841  0.00  0.00    +0.000 A 
ENDROOT
BRANCH   6   7
ATOM      7  N   UNL     1       2.188   3.305  20.415  0.00  0.00    +0.000 N 
ATOM      8  O   UNL     1       1.074   2.774  20.529  0.00  0.00    +0.000 OA
ATOM      9  O   UNL     1       3.267   2.765  20.690  0.00  0.00    +0.000 OA
ENDBRANCH   6   7
BRANCH   1  10
ATOM     10  S   UNL     1       3.143   3.586  17.338  0.00  0.00    +0.000 S 
BRANCH  10  16
ATOM     11  C   UNL     1       5.887   4.134  17.740  0.00  0.00    +0.000 A 
ATOM     12  C   UNL     1       7.113   4.644  17.290  0.00  0.00    +0.000 A 
ATOM     13  C   UNL     1       7.286   5.029  15.959  0.00  0.00    +0.000 A 
ATOM     14  C   UNL     1       6.218   4.950  15.071  0.00  0.00    +0.000 A 
ATOM     15  C   UNL     1       4.971   4.514  15.519  0.00  0.00    +0.000 A 
ATOM     16  C   UNL     1       4.783   4.136  16.858  0.00  0.00    +0.000 A 
BRANCH  11  17
ATOM     17  N   UNL     1       5.761   3.803  19.107  0.00  0.00    +0.000 N 
ATOM     18  H   UNL     1       6.656   3.662  19.566  0.00  0.00    +0.000 HD
ATOM     19  H   UNL     1       5.143   3.005  19.234  0.00  0.00    +0.000 HD
ENDBRANCH  11  17
ENDBRANCH  10  16
ENDBRANCH   1  10
BRANCH   4  20
ATOM     20  C   UNL     1       1.527   8.190  21.097  0.00  0.00    +0.000 C 
BRANCH  20  21
ATOM     21  N   UNL     1       0.615   9.045  20.346  0.00  0.00    +0.000 N 
ATOM     22  H   UNL     1       1.016   9.344  19.461  0.00  0.00    +0.000 HD
BRANCH  21  23
ATOM     23  C   UNL     1      -0.041  10.092  21.008  0.00  0.00    +0.000 A 
ATOM     24  C   UNL     1      -0.447   9.900  22.338  0.00  0.00    +0.000 A 
ATOM     25  C   UNL     1      -1.033  10.936  23.080  0.00  0.00    +0.000 A 
ATOM     26  C   UNL     1      -1.195  12.202  22.516  0.00  0.00    +0.000 A 
ATOM     27  C   UNL     1      -0.753  12.426  21.209  0.00  0.00    +0.000 A 
ATOM     28  C   UNL     1      -0.184  11.375  20.468  0.00  0.00    +0.000 A 
BRANCH  26  29
ATOM     29  C   UNL     1      -1.766  13.278  23.374  0.00  0.00    +0.000 C 
ATOM     30  O   UNL     1      -2.951  13.356  23.632  0.00  0.00    +0.000 OA
BRANCH  29  31
ATOM     31  O   UNL     1      -0.862  14.181  23.812  0.00  0.00    +0.000 OA
ATOM     32  H   UNL     1      -1.225  14.943  24.292  0.00  0.00    +0.000 HD
ENDBRANCH  29  31
ENDBRANCH  26  29
ENDBRANCH  21  23
ENDBRANCH  20  21
ENDBRANCH   4  20
TORSDOF 9
ENDMDL
MODEL 7
REMARK VINA RESULT:      -7.8      3.525      9.062
REMARK  Name = 
REMARK  9 active torsions:
REMARK  status: ('A' for Active; 'I' for Inactive)
REMARK    1  A    between atoms: N_1  and  C_2
REMARK    2  A    between atoms: C_7  and  S_8
REMARK    3  A    between atoms: S_8  and  C_9
REMARK    4  A    between atoms: C_12  and  C_13
REMARK    5  A    between atoms: C_13  and  N_14
REMARK    6  A    between atoms: N_14  and  C_15
REMARK    7  A    between atoms: C_18  and  C_19
REMARK    8  A    between atoms: C_19  and  O_21
REMARK    9  A    between atoms: C_25  and  N_26
REMARK                            x       y       z     vdW  Elec       q    Type
REMARK                         _______ _______ _______ _____ _____    ______ ____
ROOT
ATOM      1  C   UNL     1       2.609   5.689  18.815  0.00  0.00    +0.000 A 
ATOM      2  C   UNL     1       2.780   6.946  18.218  0.00  0.00    +0.000 A 
ATOM      3  C   UNL     1       2.278   8.113  18.812  0.00  0.00    +0.000 A 
ATOM      4  C   UNL     1       1.594   8.064  20.034  0.00  0.00    +0.000 A 
ATOM      5  C   UNL     1       1.432   6.818  20.655  0.00  0.00    +0.000 A 
ATOM      6  C   UNL     1       1.951   5.654  20.052  0.00  0.00    +0.000 A 
ENDROOT
BRANCH   6   7
ATOM      7  N   UNL     1       1.794   4.413  20.790  0.00  0.00    +0.000 N 
ATOM      8  O   UNL     1       2.591   4.185  21.710  0.00  0.00    +0.000 OA
ATOM      9  O   UNL     1       0.830   3.698  20.488  0.00  0.00    +0.000 OA
ENDBRANCH   6   7
BRANCH   1  10
ATOM     10  S   UNL     1       3.291   4.289  17.926  0.00  0.00    +0.000 S 
BRANCH  10  16
ATOM     11  C   UNL     1       5.929   4.447  16.924  0.00  0.00    +0.000 A 
ATOM     12  C   UNL     1       7.300   4.674  17.112  0.00  0.00    +0.000 A 
ATOM     13  C   UNL     1       7.783   5.191  18.316  0.00  0.00    +0.000 A 
ATOM     14  C   UNL     1       6.904   5.444  19.363  0.00  0.00    +0.000 A 
ATOM     15  C   UNL     1       5.547   5.156  19.218  0.00  0.00    +0.000 A 
ATOM     16  C   UNL     1       5.052   4.625  18.018  0.00  0.00    +0.000 A 
BRANCH  11  17
ATOM     17  N   UNL     1       5.506   3.882  15.701  0.00  0.00    +0.000 N 
ATOM     18  H   UNL     1       6.176   4.014  14.948  0.00  0.00    +0.000 HD
ATOM     19  H   UNL     1       4.581   4.219  15.444  0.00  0.00    +0.000 HD
ENDBRANCH  11  17
ENDBRANCH  10  16
ENDBRANCH   1  10
BRANCH   4  20
ATOM     20  C   UNL     1       1.012   9.326  20.642  0.00  0.00    +0.000 C 
BRANCH  20  21
ATOM     21  N   UNL     1       0.925  10.359  19.616  0.00  0.00    +0.000 N 
ATOM     22  H   UNL     1       1.530  11.150  19.821  0.00  0.00    +0.000 HD
BRANCH  21  23
ATOM     23  C   UNL     1      -0.336  10.765  19.160  0.00  0.00    +0.000 A 
ATOM     24  C   UNL     1      -0.921  10.074  18.087  0.00  0.00    +0.000 A 
ATOM     25  C   UNL     1      -2.215  10.377  17.639  0.00  0.00    +0.000 A 
ATOM     26  C   UNL     1      -2.969  11.362  18.279  0.00  0.00    +0.000 A 
ATOM     27  C   UNL     1      -2.422  12.029  19.380  0.00  0.00    +0.000 A 
ATOM     28  C   UNL     1      -1.117  11.729  19.809  0.00  0.00    +0.000 A 
BRANCH  26  29
ATOM     29  C   UNL     1      -4.359  11.597  17.798  0.00  0.00    +0.000 C 
ATOM     30  O   UNL     1      -5.340  11.349  18.470  0.00  0.00    +0.000 OA
BRANCH  29  31
ATOM     31  O   UNL     1      -4.439  12.074  16.537  0.00  0.00    +0.000 OA
ATOM     32  H   UNL     1      -5.187  11.748  16.009  0.00  0.00    +0.000 HD
ENDBRANCH  29  31
ENDBRANCH  26  29
ENDBRANCH  21  23
ENDBRANCH  20  21
ENDBRANCH   4  20
TORSDOF 9
ENDMDL
MODEL 8
REMARK VINA RESULT:      -7.8      3.500      9.007
REMARK  Name = 
REMARK  9 active torsions:
REMARK  status: ('A' for Active; 'I' for Inactive)
REMARK    1  A    between atoms: N_1  and  C_2
REMARK    2  A    between atoms: C_7  and  S_8
REMARK    3  A    between atoms: S_8  and  C_9
REMARK    4  A    between atoms: C_12  and  C_13
REMARK    5  A    between atoms: C_13  and  N_14
REMARK    6  A    between atoms: N_14  and  C_15
REMARK    7  A    between atoms: C_18  and  C_19
REMARK    8  A    between atoms: C_19  and  O_21
REMARK    9  A    between atoms: C_25  and  N_26
REMARK                            x       y       z     vdW  Elec       q    Type
REMARK                         _______ _______ _______ _____ _____    ______ ____
ROOT
ATOM      1  C   UNL     1       2.565   5.742  18.805  0.00  0.00    +0.000 A 
ATOM      2  C   UNL     1       2.734   7.002  18.213  0.00  0.00    +0.000 A 
ATOM      3  C   UNL     1       2.244   8.167  18.819  0.00  0.00    +0.000 A 
ATOM      4  C   UNL     1       1.573   8.114  20.048  0.00  0.00    +0.000 A 
ATOM      5  C   UNL     1       1.413   6.866  20.665  0.00  0.00    +0.000 A 
ATOM      6  C   UNL     1       1.921   5.703  20.050  0.00  0.00    +0.000 A 
ENDROOT
BRANCH   6   7
ATOM      7  N   UNL     1       1.767   4.459  20.782  0.00  0.00    +0.000 N 
ATOM      8  O   UNL     1       0.824   3.720  20.469  0.00  0.00    +0.000 OA
ATOM      9  O   UNL     1       2.631   4.194  21.628  0.00  0.00    +0.000 OA
ENDBRANCH   6   7
BRANCH   1  10
ATOM     10  S   UNL     1       3.231   4.344  17.902  0.00  0.00    +0.000 S 
BRANCH  10  16
ATOM     11  C   UNL     1       5.864   4.506  16.884  0.00  0.00    +0.000 A 
ATOM     12  C   UNL     1       7.237   4.718  17.069  0.00  0.00    +0.000 A 
ATOM     13  C   UNL     1       7.733   5.203  18.280  0.00  0.00    +0.000 A 
ATOM     14  C   UNL     1       6.863   5.439  19.339  0.00  0.00    +0.000 A 
ATOM     15  C   UNL     1       5.504   5.164  19.198  0.00  0.00    +0.000 A 
ATOM     16  C   UNL     1       4.996   4.664  17.989  0.00  0.00    +0.000 A 
BRANCH  11  17
ATOM     17  N   UNL     1       5.428   3.972  15.652  0.00  0.00    +0.000 N 
ATOM     18  H   UNL     1       5.504   4.633  14.883  0.00  0.00    +0.000 HD
ATOM     19  H   UNL     1       4.486   3.594  15.731  0.00  0.00    +0.000 HD
ENDBRANCH  11  17
ENDBRANCH  10  16
ENDBRANCH   1  10
BRANCH   4  20
ATOM     20  C   UNL     1       1.002   9.375  20.669  0.00  0.00    +0.000 C 
BRANCH  20  21
ATOM     21  N   UNL     1       0.828  10.386  19.633  0.00  0.00    +0.000 N 
ATOM     22  H   UNL     1       1.280  11.264  19.877  0.00  0.00    +0.000 HD
BRANCH  21  23
ATOM     23  C   UNL     1      -0.444  10.585  19.078  0.00  0.00    +0.000 A 
ATOM     24  C   UNL     1      -1.279  11.564  19.639  0.00  0.00    +0.000 A 
ATOM     25  C   UNL     1      -2.528  11.868  19.078  0.00  0.00    +0.000 A 
ATOM     26  C   UNL     1      -2.957  11.218  17.919  0.00  0.00    +0.000 A 
ATOM     27  C   UNL     1      -2.118  10.275  17.319  0.00  0.00    +0.000 A 
ATOM     28  C   UNL     1      -0.876   9.965  17.899  0.00  0.00    +0.000 A 
BRANCH  26  29
ATOM     29  C   UNL     1      -4.265  11.628  17.336  0.00  0.00    +0.000 C 
ATOM     30  O   UNL     1      -4.666  11.219  16.264  0.00  0.00    +0.000 OA
BRANCH  29  31
ATOM     31  O   UNL     1      -4.952  12.521  18.081  0.00  0.00    +0.000 OA
ATOM     32  H   UNL     1      -4.437  12.988  18.760  0.00  0.00    +0.000 HD
ENDBRANCH  29  31
ENDBRANCH  26  29
ENDBRANCH  21  23
ENDBRANCH  20  21
ENDBRANCH   4  20
TORSDOF 9
ENDMDL
MODEL 9
REMARK VINA RESULT:      -7.8      3.498      9.478
REMARK  Name = 
REMARK  9 active torsions:
REMARK  status: ('A' for Active; 'I' for Inactive)
REMARK    1  A    between atoms: N_1  and  C_2
REMARK    2  A    between atoms: C_7  and  S_8
REMARK    3  A    between atoms: S_8  and  C_9
REMARK    4  A    between atoms: C_12  and  C_13
REMARK    5  A    between atoms: C_13  and  N_14
REMARK    6  A    between atoms: N_14  and  C_15
REMARK    7  A    between atoms: C_18  and  C_19
REMARK    8  A    between atoms: C_19  and  O_21
REMARK    9  A    between atoms: C_25  and  N_26
REMARK                            x       y       z     vdW  Elec       q    Type
REMARK                         _______ _______ _______ _____ _____    ______ ____
ROOT
ATOM      1  C   UNL     1       2.665   4.939  18.435  0.00  0.00    +0.000 A 
ATOM      2  C   UNL     1       2.755   6.283  18.047  0.00  0.00    +0.000 A 
ATOM      3  C   UNL     1       2.369   7.321  18.906  0.00  0.00    +0.000 A 
ATOM      4  C   UNL     1       1.887   7.051  20.194  0.00  0.00    +0.000 A 
ATOM      5  C   UNL     1       1.809   5.714  20.607  0.00  0.00    +0.000 A 
ATOM      6  C   UNL     1       2.211   4.680  19.736  0.00  0.00    +0.000 A 
ENDROOT
BRANCH   6   7
ATOM      7  N   UNL     1       2.156   3.327  20.263  0.00  0.00    +0.000 N 
ATOM      8  O   UNL     1       3.214   2.823  20.665  0.00  0.00    +0.000 OA
ATOM      9  O   UNL     1       1.041   2.796  20.332  0.00  0.00    +0.000 OA
ENDBRANCH   6   7
BRANCH   1  10
ATOM     10  S   UNL     1       3.179   3.724  17.221  0.00  0.00    +0.000 S 
BRANCH  10  16
ATOM     11  C   UNL     1       5.905   4.216  17.782  0.00  0.00    +0.000 A 
ATOM     12  C   UNL     1       7.159   4.727  17.416  0.00  0.00    +0.000 A 
ATOM     13  C   UNL     1       7.403   5.162  16.112  0.00  0.00    +0.000 A 
ATOM     14  C   UNL     1       6.381   5.134  15.169  0.00  0.00    +0.000 A 
ATOM     15  C   UNL     1       5.108   4.698  15.536  0.00  0.00    +0.000 A 
ATOM     16  C   UNL     1       4.848   4.270  16.846  0.00  0.00    +0.000 A 
BRANCH  11  17
ATOM     17  N   UNL     1       5.705   3.833  19.127  0.00  0.00    +0.000 N 
ATOM     18  H   UNL     1       6.193   2.976  19.373  0.00  0.00    +0.000 HD
ATOM     19  H   UNL     1       4.713   3.778  19.346  0.00  0.00    +0.000 HD
ENDBRANCH  11  17
ENDBRANCH  10  16
ENDBRANCH   1  10
BRANCH   4  20
ATOM     20  C   UNL     1       1.425   8.179  21.096  0.00  0.00    +0.000 C 
BRANCH  20  21
ATOM     21  N   UNL     1       1.014   9.313  20.277  0.00  0.00    +0.000 N 
ATOM     22  H   UNL     1       1.804   9.760  19.820  0.00  0.00    +0.000 HD
BRANCH  21  23
ATOM     23  C   UNL     1       0.114  10.249  20.807  0.00  0.00    +0.000 A 
ATOM     24  C   UNL     1      -0.662  11.014  19.923  0.00  0.00    +0.000 A 
ATOM     25  C   UNL     1      -1.639  11.905  20.391  0.00  0.00    +0.000 A 
ATOM     26  C   UNL     1      -1.883  12.027  21.760  0.00  0.00    +0.000 A 
ATOM     27  C   UNL     1      -1.153  11.238  22.654  0.00  0.00    +0.000 A 
ATOM     28  C   UNL     1      -0.165  10.360  22.174  0.00  0.00    +0.000 A 
BRANCH  26  29
ATOM     29  C   UNL     1      -2.975  12.944  22.193  0.00  0.00    +0.000 C 
ATOM     30  O   UNL     1      -2.956  14.139  21.976  0.00  0.00    +0.000 OA
BRANCH  29  31
ATOM     31  O   UNL     1      -3.970  12.341  22.878  0.00  0.00    +0.000 OA
ATOM     32  H   UNL     1      -4.210  12.753  23.725  0.00  0.00    +0.000 HD
ENDBRANCH  29  31
ENDBRANCH  26  29
ENDBRANCH  21  23
ENDBRANCH  20  21
ENDBRANCH   4  20
TORSDOF 9
ENDMDL
