MODEL 1
REMARK VINA RESULT:      -7.3      0.000      0.000
REMARK  Name = 
REMARK  5 active torsions:
REMARK  status: ('A' for Active; 'I' for Inactive)
REMARK    1  A    between atoms: C_1  and  O_2
REMARK    2  A    between atoms: O_2  and  C_3
REMARK    3  A    between atoms: C_5  and  C_6
REMARK    4  A    between atoms: C_12  and  N_13
REMARK    5  A    between atoms: C_31  and  O_32
REMARK                            x       y       z     vdW  Elec       q    Type
REMARK                         _______ _______ _______ _____ _____    ______ ____
ROOT
ATOM      1  C   UNL     1      -0.667  13.290  22.382  0.00  0.00    +0.000 C 
ATOM      2  C   UNL     1      -1.943  13.450  23.148  0.00  0.00    +0.000 A 
ATOM      3  C   UNL     1      -2.493  12.211  23.513  0.00  0.00    +0.000 A 
ATOM      4  N   UNL     1      -3.792  12.029  23.761  0.00  0.00    +0.000 NA
ATOM      5  C   UNL     1      -4.553  13.146  23.700  0.00  0.00    +0.000 A 
ATOM      6  C   UNL     1      -4.018  14.446  23.712  0.00  0.00    +0.000 A 
ATOM      7  C   UNL     1      -2.632  14.589  23.551  0.00  0.00    +0.000 A 
ATOM      8  C   UNL     1      -4.941  15.620  23.946  0.00  0.00    +0.000 C 
ATOM      9  C   UNL     1      -6.358  15.401  23.415  0.00  0.00    +0.000 C 
ATOM     10  C   UNL     1      -6.908  14.047  23.844  0.00  0.00    +0.000 C 
ATOM     11  C   UNL     1      -6.003  12.928  23.351  0.00  0.00    +0.000 C 
ATOM     12  O   UNL     1      -1.660  11.073  23.556  0.00  0.00    +0.000 OA
ATOM     13  C   UNL     1      -0.878  10.909  22.429  0.00  0.00    +0.000 A 
ATOM     14  C   UNL     1      -0.332   9.694  22.090  0.00  0.00    +0.000 A 
ATOM     15  C   UNL     1      -0.037   9.459  20.750  0.00  0.00    +0.000 A 
ATOM     16  C   UNL     1      -0.521  10.361  19.789  0.00  0.00    +0.000 A 
ATOM     17  C   UNL     1      -0.685   9.894  18.467  0.00  0.00    +0.000 A 
ATOM     18  C   UNL     1      -1.382  10.646  17.532  0.00  0.00    +0.000 A 
ATOM     19  C   UNL     1      -1.849  11.908  17.882  0.00  0.00    +0.000 A 
ATOM     20  C   UNL     1      -1.599  12.420  19.171  0.00  0.00    +0.000 A 
ATOM     21  C   UNL     1      -0.942  11.663  20.175  0.00  0.00    +0.000 A 
ATOM     22  C   UNL     1      -0.781  11.981  21.559  0.00  0.00    +0.000 A 
ENDROOT
BRANCH   1  25
ATOM     23  C   UNL     1       2.212  14.452  20.445  0.00  0.00    +0.000 A 
ATOM     24  C   UNL     1       1.480  14.216  21.602  0.00  0.00    +0.000 A 
ATOM     25  C   UNL     1       0.073  14.347  21.594  0.00  0.00    +0.000 A 
ATOM     26  C   UNL     1      -0.542  15.047  20.567  0.00  0.00    +0.000 A 
ATOM     27  C   UNL     1       0.174  15.261  19.397  0.00  0.00    +0.000 A 
ATOM     28  C   UNL     1       1.509  14.848  19.309  0.00  0.00    +0.000 A 
BRANCH  23  30
ATOM     29  C   UNL     1       4.159  14.357  21.767  0.00  0.00    +0.000 C 
ATOM     30  O   UNL     1       3.525  14.083  20.528  0.00  0.00    +0.000 OA
ENDBRANCH  23  30
BRANCH  28  31
ATOM     31  O   UNL     1       2.034  14.696  18.058  0.00  0.00    +0.000 OA
ATOM     32  H   UNL     1       2.589  13.895  18.115  0.00  0.00    +0.000 HD
ENDBRANCH  28  31
ENDBRANCH   1  25
BRANCH   7  33
ATOM     33  N   UNL     1      -2.029  15.859  23.562  0.00  0.00    +0.000 N 
ATOM     34  H   UNL     1      -1.905  16.251  22.627  0.00  0.00    +0.000 HD
ATOM     35  H   UNL     1      -2.523  16.521  24.152  0.00  0.00    +0.000 HD
ENDBRANCH   7  33
TORSDOF 4
ENDMDL
MODEL 2
REMARK VINA RESULT:      -7.1      3.047      5.935
REMARK  Name = 
REMARK  5 active torsions:
REMARK  status: ('A' for Active; 'I' for Inactive)
REMARK    1  A    between atoms: C_1  and  O_2
REMARK    2  A    between atoms: O_2  and  C_3
REMARK    3  A    between atoms: C_5  and  C_6
REMARK    4  A    between atoms: C_12  and  N_13
REMARK    5  A    between atoms: C_31  and  O_32
REMARK                            x       y       z     vdW  Elec       q    Type
REMARK                         _______ _______ _______ _____ _____    ______ ____
ROOT
ATOM      1  C   UNL     1       0.074  13.373  20.203  0.00  0.00    +0.000 C 
ATOM      2  C   UNL     1       0.344  14.778  19.763  0.00  0.00    +0.000 A 
ATOM      3  C   UNL     1      -0.799  15.586  19.862  0.00  0.00    +0.000 A 
ATOM      4  N   UNL     1      -0.985  16.688  19.131  0.00  0.00    +0.000 NA
ATOM      5  C   UNL     1       0.042  17.019  18.315  0.00  0.00    +0.000 A 
ATOM      6  C   UNL     1       1.333  16.479  18.443  0.00  0.00    +0.000 A 
ATOM      7  C   UNL     1       1.508  15.385  19.303  0.00  0.00    +0.000 A 
ATOM      8  C   UNL     1       2.479  17.124  17.695  0.00  0.00    +0.000 C 
ATOM      9  C   UNL     1       2.063  17.761  16.369  0.00  0.00    +0.000 C 
ATOM     10  C   UNL     1       0.823  18.631  16.535  0.00  0.00    +0.000 C 
ATOM     11  C   UNL     1      -0.330  17.807  17.086  0.00  0.00    +0.000 C 
ATOM     12  O   UNL     1      -1.847  15.195  20.723  0.00  0.00    +0.000 OA
ATOM     13  C   UNL     1      -2.235  13.878  20.569  0.00  0.00    +0.000 A 
ATOM     14  C   UNL     1      -3.464  13.425  20.983  0.00  0.00    +0.000 A 
ATOM     15  C   UNL     1      -3.997  12.305  20.353  0.00  0.00    +0.000 A 
ATOM     16  C   UNL     1      -3.379  11.837  19.182  0.00  0.00    +0.000 A 
ATOM     17  C   UNL     1      -4.157  11.079  18.281  0.00  0.00    +0.000 A 
ATOM     18  C   UNL     1      -3.690  10.798  17.005  0.00  0.00    +0.000 A 
ATOM     19  C   UNL     1      -2.407  11.197  16.644  0.00  0.00    +0.000 A 
ATOM     20  C   UNL     1      -1.589  11.866  17.576  0.00  0.00    +0.000 A 
ATOM     21  C   UNL     1      -2.047  12.224  18.870  0.00  0.00    +0.000 A 
ATOM     22  C   UNL     1      -1.398  13.048  19.841  0.00  0.00    +0.000 A 
ENDROOT
BRANCH   1  25
ATOM     23  C   UNL     1       0.633   9.756  20.196  0.00  0.00    +0.000 A 
ATOM     24  C   UNL     1       0.583  11.026  20.758  0.00  0.00    +0.000 A 
ATOM     25  C   UNL     1       0.949  12.158  19.995  0.00  0.00    +0.000 A 
ATOM     26  C   UNL     1       1.690  11.989  18.835  0.00  0.00    +0.000 A 
ATOM     27  C   UNL     1       1.720  10.730  18.252  0.00  0.00    +0.000 A 
ATOM     28  C   UNL     1       1.084   9.653  18.881  0.00  0.00    +0.000 A 
BRANCH  23  30
ATOM     29  C   UNL     1      -0.279   9.164  22.285  0.00  0.00    +0.000 C 
ATOM     30  O   UNL     1       0.052   8.783  20.960  0.00  0.00    +0.000 OA
ENDBRANCH  23  30
BRANCH  28  31
ATOM     31  O   UNL     1       0.782   8.568  18.109  0.00  0.00    +0.000 OA
ATOM     32  H   UNL     1       1.166   7.808  18.585  0.00  0.00    +0.000 HD
ENDBRANCH  28  31
ENDBRANCH   1  25
BRANCH   7  33
ATOM     33  N   UNL     1       2.774  14.801  19.484  0.00  0.00    +0.000 N 
ATOM     34  H   UNL     1       3.543  15.448  19.304  0.00  0.00    +0.000 HD
ATOM     35  H   UNL     1       2.883  14.381  20.402  0.00  0.00    +0.000 HD
ENDBRANCH   7  33
TORSDOF 4
ENDMDL
MODEL 3
REMARK VINA RESULT:      -7.1      1.975      2.215
REMARK  Name = 
REMARK  5 active torsions:
REMARK  status: ('A' for Active; 'I' for Inactive)
REMARK    1  A    between atoms: C_1  and  O_2
REMARK    2  A    between atoms: O_2  and  C_3
REMARK    3  A    between atoms: C_5  and  C_6
REMARK    4  A    between atoms: C_12  and  N_13
REMARK    5  A    between atoms: C_31  and  O_32
REMARK                            x       y       z     vdW  Elec       q    Type
REMARK                         _______ _______ _______ _____ _____    ______ ____
ROOT
ATOM      1  C   UNL     1      -1.509  13.730  21.951  0.00  0.00    +0.000 C 
ATOM      2  C   UNL     1      -2.995  13.830  21.794  0.00  0.00    +0.000 A 
ATOM      3  C   UNL     1      -3.650  12.686  22.276  0.00  0.00    +0.000 A 
ATOM      4  N   UNL     1      -4.857  12.300  21.855  0.00  0.00    +0.000 NA
ATOM      5  C   UNL     1      -5.449  13.127  20.962  0.00  0.00    +0.000 A 
ATOM      6  C   UNL     1      -5.021  14.446  20.731  0.00  0.00    +0.000 A 
ATOM      7  C   UNL     1      -3.794  14.846  21.280  0.00  0.00    +0.000 A 
ATOM      8  C   UNL     1      -5.915  15.384  19.953  0.00  0.00    +0.000 C 
ATOM      9  C   UNL     1      -6.771  14.682  18.899  0.00  0.00    +0.000 C 
ATOM     10  C   UNL     1      -7.464  13.453  19.475  0.00  0.00    +0.000 C 
ATOM     11  C   UNL     1      -6.436  12.478  20.028  0.00  0.00    +0.000 C 
ATOM     12  O   UNL     1      -2.989  11.851  23.202  0.00  0.00    +0.000 OA
ATOM     13  C   UNL     1      -1.702  11.514  22.830  0.00  0.00    +0.000 A 
ATOM     14  C   UNL     1      -1.056  10.417  23.347  0.00  0.00    +0.000 A 
ATOM     15  C   UNL     1      -0.046   9.831  22.589  0.00  0.00    +0.000 A 
ATOM     16  C   UNL     1       0.105  10.232  21.252  0.00  0.00    +0.000 A 
ATOM     17  C   UNL     1       0.730   9.335  20.360  0.00  0.00    +0.000 A 
ATOM     18  C   UNL     1       0.693   9.556  18.990  0.00  0.00    +0.000 A 
ATOM     19  C   UNL     1       0.106  10.719  18.503  0.00  0.00    +0.000 A 
ATOM     20  C   UNL     1      -0.430  11.667  19.397  0.00  0.00    +0.000 A 
ATOM     21  C   UNL     1      -0.465  11.453  20.800  0.00  0.00    +0.000 A 
ATOM     22  C   UNL     1      -1.127  12.235  21.797  0.00  0.00    +0.000 A 
ENDROOT
BRANCH   1  25
ATOM     23  C   UNL     1       1.973  14.577  21.214  0.00  0.00    +0.000 A 
ATOM     24  C   UNL     1       0.804  14.579  21.965  0.00  0.00    +0.000 A 
ATOM     25  C   UNL     1      -0.455  14.612  21.324  0.00  0.00    +0.000 A 
ATOM     26  C   UNL     1      -0.535  15.003  19.995  0.00  0.00    +0.000 A 
ATOM     27  C   UNL     1       0.624  14.976  19.231  0.00  0.00    +0.000 A 
ATOM     28  C   UNL     1       1.847  14.642  19.827  0.00  0.00    +0.000 A 
BRANCH  23  30
ATOM     29  C   UNL     1       3.767  15.469  22.454  0.00  0.00    +0.000 C 
ATOM     30  O   UNL     1       3.104  14.325  21.939  0.00  0.00    +0.000 OA
ENDBRANCH  23  30
BRANCH  28  31
ATOM     31  O   UNL     1       2.851  14.228  19.001  0.00  0.00    +0.000 OA
ATOM     32  H   UNL     1       2.820  13.253  19.038  0.00  0.00    +0.000 HD
ENDBRANCH  28  31
ENDBRANCH   1  25
BRANCH   7  33
ATOM     33  N   UNL     1      -3.309  16.153  21.095  0.00  0.00    +0.000 N 
ATOM     34  H   UNL     1      -2.845  16.285  20.195  0.00  0.00    +0.000 HD
ATOM     35  H   UNL     1      -4.030  16.858  21.220  0.00  0.00    +0.000 HD
ENDBRANCH   7  33
TORSDOF 4
ENDMDL
MODEL 4
REMARK VINA RESULT:      -7.1      0.942      1.048
REMARK  Name = 
REMARK  5 active torsions:
REMARK  status: ('A' for Active; 'I' for Inactive)
REMARK    1  A    between atoms: C_1  and  O_2
REMARK    2  A    between atoms: O_2  and  C_3
REMARK    3  A    between atoms: C_5  and  C_6
REMARK    4  A    between atoms: C_12  and  N_13
REMARK    5  A    between atoms: C_31  and  O_32
REMARK                            x       y       z     vdW  Elec       q    Type
REMARK                         _______ _______ _______ _____ _____    ______ ____
ROOT
ATOM      1  C   UNL     1      -1.446  13.715  22.562  0.00  0.00    +0.000 C 
ATOM      2  C   UNL     1      -2.879  13.809  22.989  0.00  0.00    +0.000 A 
ATOM      3  C   UNL     1      -3.380  12.569  23.415  0.00  0.00    +0.000 A 
ATOM      4  N   UNL     1      -4.678  12.256  23.394  0.00  0.00    +0.000 NA
ATOM      5  C   UNL     1      -5.504  13.247  22.986  0.00  0.00    +0.000 A 
ATOM      6  C   UNL     1      -5.113  14.594  22.910  0.00  0.00    +0.000 A 
ATOM      7  C   UNL     1      -3.749  14.893  23.041  0.00  0.00    +0.000 A 
ATOM      8  C   UNL     1      -6.172  15.660  22.741  0.00  0.00    +0.000 C 
ATOM      9  C   UNL     1      -7.393  15.191  21.951  0.00  0.00    +0.000 C 
ATOM     10  C   UNL     1      -7.899  13.846  22.457  0.00  0.00    +0.000 C 
ATOM     11  C   UNL     1      -6.800  12.799  22.364  0.00  0.00    +0.000 C 
ATOM     12  O   UNL     1      -2.477  11.565  23.825  0.00  0.00    +0.000 OA
ATOM     13  C   UNL     1      -1.436  11.354  22.941  0.00  0.00    +0.000 A 
ATOM     14  C   UNL     1      -0.712  10.186  22.930  0.00  0.00    +0.000 A 
ATOM     15  C   UNL     1      -0.084   9.814  21.745  0.00  0.00    +0.000 A 
ATOM     16  C   UNL     1      -0.407  10.510  20.569  0.00  0.00    +0.000 A 
ATOM     17  C   UNL     1      -0.205   9.854  19.336  0.00  0.00    +0.000 A 
ATOM     18  C   UNL     1      -0.726  10.378  18.160  0.00  0.00    +0.000 A 
ATOM     19  C   UNL     1      -1.380  11.604  18.192  0.00  0.00    +0.000 A 
ATOM     20  C   UNL     1      -1.496  12.312  19.405  0.00  0.00    +0.000 A 
ATOM     21  C   UNL     1      -1.030  11.786  20.638  0.00  0.00    +0.000 A 
ATOM     22  C   UNL     1      -1.236  12.305  21.954  0.00  0.00    +0.000 A 
ENDROOT
BRANCH   1  25
ATOM     23  C   UNL     1       1.596  14.824  20.859  0.00  0.00    +0.000 A 
ATOM     24  C   UNL     1       0.757  14.632  21.949  0.00  0.00    +0.000 A 
ATOM     25  C   UNL     1      -0.643  14.744  21.800  0.00  0.00    +0.000 A 
ATOM     26  C   UNL     1      -1.162  15.388  20.686  0.00  0.00    +0.000 A 
ATOM     27  C   UNL     1      -0.338  15.557  19.582  0.00  0.00    +0.000 A 
ATOM     28  C   UNL     1       1.003  15.158  19.642  0.00  0.00    +0.000 A 
BRANCH  23  30
ATOM     29  C   UNL     1       3.513  15.105  22.198  0.00  0.00    +0.000 C 
ATOM     30  O   UNL     1       2.898  14.476  21.085  0.00  0.00    +0.000 OA
ENDBRANCH  23  30
BRANCH  28  31
ATOM     31  O   UNL     1       1.648  14.956  18.456  0.00  0.00    +0.000 OA
ATOM     32  H   UNL     1       1.110  15.432  17.796  0.00  0.00    +0.000 HD
ENDBRANCH  28  31
ENDBRANCH   1  25
BRANCH   7  33
ATOM     33  N   UNL     1      -3.289  16.221  22.982  0.00  0.00    +0.000 N 
ATOM     34  H   UNL     1      -2.496  16.342  22.351  0.00  0.00    +0.000 HD
ATOM     35  H   UNL     1      -4.025  16.879  22.745  0.00  0.00    +0.000 HD
ENDBRANCH   7  33
TORSDOF 4
ENDMDL
MODEL 5
REMARK VINA RESULT:      -7.0      2.296      5.825
REMARK  Name = 
REMARK  5 active torsions:
REMARK  status: ('A' for Active; 'I' for Inactive)
REMARK    1  A    between atoms: C_1  and  O_2
REMARK    2  A    between atoms: O_2  and  C_3
REMARK    3  A    between atoms: C_5  and  C_6
REMARK    4  A    between atoms: C_12  and  N_13
REMARK    5  A    between atoms: C_31  and  O_32
REMARK                            x       y       z     vdW  Elec       q    Type
REMARK                         _______ _______ _______ _____ _____    ______ ____
ROOT
ATOM      1  C   UNL     1      -0.790  12.458  22.392  0.00  0.00    +0.000 C 
ATOM      2  C   UNL     1       0.021  13.642  21.966  0.00  0.00    +0.000 A 
ATOM      3  C   UNL     1      -0.440  14.831  22.553  0.00  0.00    +0.000 A 
ATOM      4  N   UNL     1      -0.240  16.039  22.020  0.00  0.00    +0.000 NA
ATOM      5  C   UNL     1       0.503  16.054  20.888  0.00  0.00    +0.000 A 
ATOM      6  C   UNL     1       1.291  14.969  20.469  0.00  0.00    +0.000 A 
ATOM      7  C   UNL     1       1.125  13.740  21.125  0.00  0.00    +0.000 A 
ATOM      8  C   UNL     1       2.311  15.180  19.373  0.00  0.00    +0.000 C 
ATOM      9  C   UNL     1       1.906  16.246  18.355  0.00  0.00    +0.000 C 
ATOM     10  C   UNL     1       1.420  17.515  19.044  0.00  0.00    +0.000 C 
ATOM     11  C   UNL     1       0.240  17.205  19.953  0.00  0.00    +0.000 C 
ATOM     12  O   UNL     1      -1.216  14.763  23.730  0.00  0.00    +0.000 OA
ATOM     13  C   UNL     1      -2.257  13.857  23.661  0.00  0.00    +0.000 A 
ATOM     14  C   UNL     1      -3.346  13.931  24.495  0.00  0.00    +0.000 A 
ATOM     15  C   UNL     1      -4.547  13.380  24.058  0.00  0.00    +0.000 A 
ATOM     16  C   UNL     1      -4.655  12.991  22.713  0.00  0.00    +0.000 A 
ATOM     17  C   UNL     1      -5.945  12.929  22.144  0.00  0.00    +0.000 A 
ATOM     18  C   UNL     1      -6.109  12.795  20.772  0.00  0.00    +0.000 A 
ATOM     19  C   UNL     1      -4.989  12.636  19.964  0.00  0.00    +0.000 A 
ATOM     20  C   UNL     1      -3.703  12.597  20.539  0.00  0.00    +0.000 A 
ATOM     21  C   UNL     1      -3.487  12.788  21.929  0.00  0.00    +0.000 A 
ATOM     22  C   UNL     1      -2.244  12.949  22.616  0.00  0.00    +0.000 A 
ENDROOT
BRANCH   1  25
ATOM     23  C   UNL     1      -0.213  10.149  19.613  0.00  0.00    +0.000 A 
ATOM     24  C   UNL     1      -0.950  11.040  20.383  0.00  0.00    +0.000 A 
ATOM     25  C   UNL     1      -0.787  11.073  21.787  0.00  0.00    +0.000 A 
ATOM     26  C   UNL     1      -0.183  10.003  22.429  0.00  0.00    +0.000 A 
ATOM     27  C   UNL     1       0.580   9.126  21.670  0.00  0.00    +0.000 A 
ATOM     28  C   UNL     1       0.654   9.286  20.281  0.00  0.00    +0.000 A 
BRANCH  23  30
ATOM     29  C   UNL     1      -1.604  10.257  17.716  0.00  0.00    +0.000 C 
ATOM     30  O   UNL     1      -0.302  10.365  18.267  0.00  0.00    +0.000 OA
ENDBRANCH  23  30
BRANCH  28  31
ATOM     31  O   UNL     1       1.703   8.693  19.640  0.00  0.00    +0.000 OA
ATOM     32  H   UNL     1       2.115   9.409  19.121  0.00  0.00    +0.000 HD
ENDBRANCH  28  31
ENDBRANCH   1  25
BRANCH   7  33
ATOM     33  N   UNL     1       1.886  12.616  20.761  0.00  0.00    +0.000 N 
ATOM     34  H   UNL     1       1.508  11.741  21.127  0.00  0.00    +0.000 HD
ATOM     35  H   UNL     1       2.020  12.542  19.757  0.00  0.00    +0.000 HD
ENDBRANCH   7  33
TORSDOF 4
ENDMDL
MODEL 6
REMARK VINA RESULT:      -6.9      1.451      2.147
REMARK  Name = 
REMARK  5 active torsions:
REMARK  status: ('A' for Active; 'I' for Inactive)
REMARK    1  A    between atoms: C_1  and  O_2
REMARK    2  A    between atoms: O_2  and  C_3
REMARK    3  A    between atoms: C_5  and  C_6
REMARK    4  A    between atoms: C_12  and  N_13
REMARK    5  A    between atoms: C_31  and  O_32
REMARK                            x       y       z     vdW  Elec       q    Type
REMARK                         _______ _______ _______ _____ _____    ______ ____
ROOT
ATOM      1  C   UNL     1      -0.565  13.228  22.260  0.00  0.00    +0.000 C 
ATOM      2  C   UNL     1      -1.815  13.408  23.066  0.00  0.00    +0.000 A 
ATOM      3  C   UNL     1      -2.369  12.177  23.453  0.00  0.00    +0.000 A 
ATOM      4  N   UNL     1      -3.662  12.014  23.743  0.00  0.00    +0.000 NA
ATOM      5  C   UNL     1      -4.410  13.141  23.700  0.00  0.00    +0.000 A 
ATOM      6  C   UNL     1      -3.859  14.433  23.689  0.00  0.00    +0.000 A 
ATOM      7  C   UNL     1      -2.477  14.557  23.484  0.00  0.00    +0.000 A 
ATOM      8  C   UNL     1      -4.758  15.620  23.945  0.00  0.00    +0.000 C 
ATOM      9  C   UNL     1      -6.194  15.417  23.461  0.00  0.00    +0.000 C 
ATOM     10  C   UNL     1      -6.748  14.072  23.913  0.00  0.00    +0.000 C 
ATOM     11  C   UNL     1      -5.873  12.940  23.398  0.00  0.00    +0.000 C 
ATOM     12  O   UNL     1      -1.549  11.029  23.477  0.00  0.00    +0.000 OA
ATOM     13  C   UNL     1      -0.805  10.850  22.326  0.00  0.00    +0.000 A 
ATOM     14  C   UNL     1      -0.286   9.627  21.976  0.00  0.00    +0.000 A 
ATOM     15  C   UNL     1      -0.036   9.381  20.629  0.00  0.00    +0.000 A 
ATOM     16  C   UNL     1      -0.538  10.285  19.679  0.00  0.00    +0.000 A 
ATOM     17  C   UNL     1      -0.749   9.814  18.365  0.00  0.00    +0.000 A 
ATOM     18  C   UNL     1      -1.466  10.571  17.448  0.00  0.00    +0.000 A 
ATOM     19  C   UNL     1      -1.905  11.841  17.807  0.00  0.00    +0.000 A 
ATOM     20  C   UNL     1      -1.609  12.355  19.084  0.00  0.00    +0.000 A 
ATOM     21  C   UNL     1      -0.930  11.594  20.071  0.00  0.00    +0.000 A 
ATOM     22  C   UNL     1      -0.722  11.917  21.448  0.00  0.00    +0.000 A 
ENDROOT
BRANCH   1  25
ATOM     23  C   UNL     1      -0.473  16.343  20.342  0.00  0.00    +0.000 A 
ATOM     24  C   UNL     1      -0.647  14.977  20.526  0.00  0.00    +0.000 A 
ATOM     25  C   UNL     1       0.162  14.271  21.445  0.00  0.00    +0.000 A 
ATOM     26  C   UNL     1       1.346  14.841  21.889  0.00  0.00    +0.000 A 
ATOM     27  C   UNL     1       1.515  16.211  21.735  0.00  0.00    +0.000 A 
ATOM     28  C   UNL     1       0.541  16.965  21.070  0.00  0.00    +0.000 A 
BRANCH  23  30
ATOM     29  C   UNL     1      -1.042  17.431  18.333  0.00  0.00    +0.000 C 
ATOM     30  O   UNL     1      -1.452  16.937  19.597  0.00  0.00    +0.000 OA
ENDBRANCH  23  30
BRANCH  28  31
ATOM     31  O   UNL     1       0.531  18.311  21.296  0.00  0.00    +0.000 OA
ATOM     32  H   UNL     1       1.124  18.683  20.616  0.00  0.00    +0.000 HD
ENDBRANCH  28  31
ENDBRANCH   1  25
BRANCH   7  33
ATOM     33  N   UNL     1      -1.857  15.820  23.470  0.00  0.00    +0.000 N 
ATOM     34  H   UNL     1      -0.860  15.779  23.683  0.00  0.00    +0.000 HD
ATOM     35  H   UNL     1      -2.005  16.317  22.597  0.00  0.00    +0.000 HD
ENDBRANCH   7  33
TORSDOF 4
ENDMDL
MODEL 7
REMARK VINA RESULT:      -6.8      7.620     11.977
REMARK  Name = 
REMARK  5 active torsions:
REMARK  status: ('A' for Active; 'I' for Inactive)
REMARK    1  A    between atoms: C_1  and  O_2
REMARK    2  A    between atoms: O_2  and  C_3
REMARK    3  A    between atoms: C_5  and  C_6
REMARK    4  A    between atoms: C_12  and  N_13
REMARK    5  A    between atoms: C_31  and  O_32
REMARK                            x       y       z     vdW  Elec       q    Type
REMARK                         _______ _______ _______ _____ _____    ______ ____
ROOT
ATOM      1  C   UNL     1       9.851  15.267  18.505  0.00  0.00    +0.000 C 
ATOM      2  C   UNL     1       8.433  15.639  18.199  0.00  0.00    +0.000 A 
ATOM      3  C   UNL     1       8.234  17.028  18.247  0.00  0.00    +0.000 A 
ATOM      4  N   UNL     1       7.047  17.591  18.485  0.00  0.00    +0.000 NA
ATOM      5  C   UNL     1       6.014  16.726  18.618  0.00  0.00    +0.000 A 
ATOM      6  C   UNL     1       6.077  15.381  18.215  0.00  0.00    +0.000 A 
ATOM      7  C   UNL     1       7.331  14.854  17.874  0.00  0.00    +0.000 A 
ATOM      8  C   UNL     1       4.799  14.580  18.120  0.00  0.00    +0.000 C 
ATOM      9  C   UNL     1       3.730  15.009  19.125  0.00  0.00    +0.000 C 
ATOM     10  C   UNL     1       3.550  16.522  19.132  0.00  0.00    +0.000 C 
ATOM     11  C   UNL     1       4.866  17.209  19.465  0.00  0.00    +0.000 C 
ATOM     12  O   UNL     1       9.343  17.888  18.110  0.00  0.00    +0.000 OA
ATOM     13  C   UNL     1      10.413  17.555  18.918  0.00  0.00    +0.000 A 
ATOM     14  C   UNL     1      11.392  18.462  19.245  0.00  0.00    +0.000 A 
ATOM     15  C   UNL     1      12.102  18.264  20.426  0.00  0.00    +0.000 A 
ATOM     16  C   UNL     1      11.635  17.300  21.334  0.00  0.00    +0.000 A 
ATOM     17  C   UNL     1      11.999  17.440  22.691  0.00  0.00    +0.000 A 
ATOM     18  C   UNL     1      11.381  16.677  23.672  0.00  0.00    +0.000 A 
ATOM     19  C   UNL     1      10.455  15.708  23.301  0.00  0.00    +0.000 A 
ATOM     20  C   UNL     1      10.164  15.496  21.938  0.00  0.00    +0.000 A 
ATOM     21  C   UNL     1      10.729  16.292  20.908  0.00  0.00    +0.000 A 
ATOM     22  C   UNL     1      10.394  16.307  19.519  0.00  0.00    +0.000 A 
ENDROOT
BRANCH   1  25
ATOM     23  C   UNL     1       9.526  11.904  19.910  0.00  0.00    +0.000 A 
ATOM     24  C   UNL     1       9.814  13.263  19.938  0.00  0.00    +0.000 A 
ATOM     25  C   UNL     1      10.396  13.892  18.815  0.00  0.00    +0.000 A 
ATOM     26  C   UNL     1      11.006  13.119  17.839  0.00  0.00    +0.000 A 
ATOM     27  C   UNL     1      10.700  11.765  17.786  0.00  0.00    +0.000 A 
ATOM     28  C   UNL     1       9.862  11.200  18.755  0.00  0.00    +0.000 A 
BRANCH  23  30
ATOM     29  C   UNL     1       8.927  12.204  22.168  0.00  0.00    +0.000 C 
ATOM     30  O   UNL     1       8.774  11.469  20.964  0.00  0.00    +0.000 OA
ENDBRANCH  23  30
BRANCH  28  31
ATOM     31  O   UNL     1       9.265  10.012  18.446  0.00  0.00    +0.000 OA
ATOM     32  H   UNL     1       8.920   9.678  19.297  0.00  0.00    +0.000 HD
ENDBRANCH  28  31
ENDBRANCH   1  25
BRANCH   7  33
ATOM     33  N   UNL     1       7.466  13.519  17.454  0.00  0.00    +0.000 N 
ATOM     34  H   UNL     1       8.140  13.403  16.696  0.00  0.00    +0.000 HD
ATOM     35  H   UNL     1       7.694  12.891  18.219  0.00  0.00    +0.000 HD
ENDBRANCH   7  33
TORSDOF 4
ENDMDL
MODEL 8
REMARK VINA RESULT:      -6.8      5.851      9.436
REMARK  Name = 
REMARK  5 active torsions:
REMARK  status: ('A' for Active; 'I' for Inactive)
REMARK    1  A    between atoms: C_1  and  O_2
REMARK    2  A    between atoms: O_2  and  C_3
REMARK    3  A    between atoms: C_5  and  C_6
REMARK    4  A    between atoms: C_12  and  N_13
REMARK    5  A    between atoms: C_31  and  O_32
REMARK                            x       y       z     vdW  Elec       q    Type
REMARK                         _______ _______ _______ _____ _____    ______ ____
ROOT
ATOM      1  C   UNL     1       7.992  15.477  20.745  0.00  0.00    +0.000 C 
ATOM      2  C   UNL     1       6.509  15.625  20.886  0.00  0.00    +0.000 A 
ATOM      3  C   UNL     1       5.953  14.602  21.670  0.00  0.00    +0.000 A 
ATOM      4  N   UNL     1       4.678  14.215  21.576  0.00  0.00    +0.000 NA
ATOM      5  C   UNL     1       3.923  14.925  20.706  0.00  0.00    +0.000 A 
ATOM      6  C   UNL     1       4.312  16.170  20.184  0.00  0.00    +0.000 A 
ATOM      7  C   UNL     1       5.634  16.588  20.394  0.00  0.00    +0.000 A 
ATOM      8  C   UNL     1       3.288  17.022  19.469  0.00  0.00    +0.000 C 
ATOM      9  C   UNL     1       2.216  16.210  18.742  0.00  0.00    +0.000 C 
ATOM     10  C   UNL     1       1.643  15.119  19.638  0.00  0.00    +0.000 C 
ATOM     11  C   UNL     1       2.749  14.190  20.113  0.00  0.00    +0.000 C 
ATOM     12  O   UNL     1       6.783  13.886  22.559  0.00  0.00    +0.000 OA
ATOM     13  C   UNL     1       7.956  13.433  21.987  0.00  0.00    +0.000 A 
ATOM     14  C   UNL     1       8.680  12.398  22.527  0.00  0.00    +0.000 A 
ATOM     15  C   UNL     1       9.496  11.655  21.679  0.00  0.00    +0.000 A 
ATOM     16  C   UNL     1       9.365  11.839  20.293  0.00  0.00    +0.000 A 
ATOM     17  C   UNL     1       9.771  10.786  19.445  0.00  0.00    +0.000 A 
ATOM     18  C   UNL     1       9.446  10.797  18.095  0.00  0.00    +0.000 A 
ATOM     19  C   UNL     1       8.787  11.900  17.562  0.00  0.00    +0.000 A 
ATOM     20  C   UNL     1       8.469  12.998  18.385  0.00  0.00    +0.000 A 
ATOM     21  C   UNL     1       8.731  13.003  19.780  0.00  0.00    +0.000 A 
ATOM     22  C   UNL     1       8.309  13.959  20.755  0.00  0.00    +0.000 A 
ENDROOT
BRANCH   1  25
ATOM     23  C   UNL     1      11.062  15.726  18.768  0.00  0.00    +0.000 A 
ATOM     24  C   UNL     1      10.273  15.878  19.902  0.00  0.00    +0.000 A 
ATOM     25  C   UNL     1       8.902  16.200  19.779  0.00  0.00    +0.000 A 
ATOM     26  C   UNL     1       8.426  16.713  18.582  0.00  0.00    +0.000 A 
ATOM     27  C   UNL     1       9.195  16.539  17.439  0.00  0.00    +0.000 A 
ATOM     28  C   UNL     1      10.455  15.934  17.531  0.00  0.00    +0.000 A 
BRANCH  23  30
ATOM     29  C   UNL     1      12.333  13.822  19.320  0.00  0.00    +0.000 C 
ATOM     30  O   UNL     1      12.301  15.207  19.015  0.00  0.00    +0.000 OA
ENDBRANCH  23  30
BRANCH  28  31
ATOM     31  O   UNL     1      10.982  15.415  16.384  0.00  0.00    +0.000 OA
ATOM     32  H   UNL     1      11.801  14.965  16.667  0.00  0.00    +0.000 HD
ENDBRANCH  28  31
ENDBRANCH   1  25
BRANCH   7  33
ATOM     33  N   UNL     1       6.089  17.827  19.906  0.00  0.00    +0.000 N 
ATOM     34  H   UNL     1       6.221  18.522  20.641  0.00  0.00    +0.000 HD
ATOM     35  H   UNL     1       6.936  17.742  19.353  0.00  0.00    +0.000 HD
ENDBRANCH   7  33
TORSDOF 4
ENDMDL
MODEL 9
REMARK VINA RESULT:      -6.8      2.586      5.925
REMARK  Name = 
REMARK  5 active torsions:
REMARK  status: ('A' for Active; 'I' for Inactive)
REMARK    1  A    between atoms: C_1  and  O_2
REMARK    2  A    between atoms: O_2  and  C_3
REMARK    3  A    between atoms: C_5  and  C_6
REMARK    4  A    between atoms: C_12  and  N_13
REMARK    5  A    between atoms: C_31  and  O_32
REMARK                            x       y       z     vdW  Elec       q    Type
REMARK                         _______ _______ _______ _____ _____    ______ ____
ROOT
ATOM      1  C   UNL     1      -1.285  12.800  21.679  0.00  0.00    +0.000 C 
ATOM      2  C   UNL     1      -0.317  13.844  21.215  0.00  0.00    +0.000 A 
ATOM      3  C   UNL     1      -0.935  15.094  21.054  0.00  0.00    +0.000 A 
ATOM      4  N   UNL     1      -0.469  16.043  20.238  0.00  0.00    +0.000 NA
ATOM      5  C   UNL     1       0.692  15.744  19.609  0.00  0.00    +0.000 A 
ATOM      6  C   UNL     1       1.535  14.692  20.005  0.00  0.00    +0.000 A 
ATOM      7  C   UNL     1       1.045  13.773  20.945  0.00  0.00    +0.000 A 
ATOM      8  C   UNL     1       2.938  14.622  19.446  0.00  0.00    +0.000 C 
ATOM      9  C   UNL     1       3.063  15.187  18.031  0.00  0.00    +0.000 C 
ATOM     10  C   UNL     1       2.383  16.545  17.913  0.00  0.00    +0.000 C 
ATOM     11  C   UNL     1       0.913  16.435  18.288  0.00  0.00    +0.000 C 
ATOM     12  O   UNL     1      -2.147  15.357  21.727  0.00  0.00    +0.000 OA
ATOM     13  C   UNL     1      -3.094  14.361  21.581  0.00  0.00    +0.000 A 
ATOM     14  C   UNL     1      -4.433  14.591  21.786  0.00  0.00    +0.000 A 
ATOM     15  C   UNL     1      -5.348  13.769  21.134  0.00  0.00    +0.000 A 
ATOM     16  C   UNL     1      -4.877  12.910  20.127  0.00  0.00    +0.000 A 
ATOM     17  C   UNL     1      -5.794  12.481  19.143  0.00  0.00    +0.000 A 
ATOM     18  C   UNL     1      -5.351  11.840  17.994  0.00  0.00    +0.000 A 
ATOM     19  C   UNL     1      -3.999  11.546  17.855  0.00  0.00    +0.000 A 
ATOM     20  C   UNL     1      -3.094  11.883  18.882  0.00  0.00    +0.000 A 
ATOM     21  C   UNL     1      -3.495  12.590  20.046  0.00  0.00    +0.000 A 
ATOM     22  C   UNL     1      -2.668  13.146  21.070  0.00  0.00    +0.000 A 
ENDROOT
BRANCH   1  25
ATOM     23  C   UNL     1       0.421   9.750  20.593  0.00  0.00    +0.000 A 
ATOM     24  C   UNL     1      -0.536  10.755  20.525  0.00  0.00    +0.000 A 
ATOM     25  C   UNL     1      -1.081  11.303  21.709  0.00  0.00    +0.000 A 
ATOM     26  C   UNL     1      -0.945  10.614  22.905  0.00  0.00    +0.000 A 
ATOM     27  C   UNL     1       0.029   9.628  22.989  0.00  0.00    +0.000 A 
ATOM     28  C   UNL     1       0.786   9.295  21.859  0.00  0.00    +0.000 A 
BRANCH  23  30
ATOM     29  C   UNL     1       1.317  10.585  18.582  0.00  0.00    +0.000 C 
ATOM     30  O   UNL     1       1.018   9.464  19.398  0.00  0.00    +0.000 OA
ENDBRANCH  23  30
BRANCH  28  31
ATOM     31  O   UNL     1       1.971   8.651  22.069  0.00  0.00    +0.000 OA
ATOM     32  H   UNL     1       2.483   8.797  21.251  0.00  0.00    +0.000 HD
ENDBRANCH  28  31
ENDBRANCH   1  25
BRANCH   7  33
ATOM     33  N   UNL     1       1.838  12.701  21.391  0.00  0.00    +0.000 N 
ATOM     34  H   UNL     1       1.368  11.798  21.319  0.00  0.00    +0.000 HD
ATOM     35  H   UNL     1       2.739  12.661  20.924  0.00  0.00    +0.000 HD
ENDBRANCH   7  33
TORSDOF 4
ENDMDL
