MODEL 1
REMARK VINA RESULT:      -7.7      0.000      0.000
REMARK  Name = 
REMARK  6 active torsions:
REMARK  status: ('A' for Active; 'I' for Inactive)
REMARK    1  A    between atoms: C_1  and  C_2
REMARK    2  A    between atoms: C_5  and  S_6
REMARK    3  A    between atoms: S_6  and  N_9
REMARK    4  A    between atoms: N_12  and  S_13
REMARK    5  A    between atoms: S_13  and  C_16
REMARK    6  A    between atoms: C_19  and  C_20
REMARK                            x       y       z     vdW  Elec       q    Type
REMARK                         _______ _______ _______ _____ _____    ______ ____
ROOT
ATOM      1  N   UNL     1       1.451   9.260  19.374  0.00  0.00    +0.000 N 
ATOM      2  C   UNL     1       2.103   9.062  18.130  0.00  0.00    +0.000 A 
ATOM      3  C   UNL     1       2.498   7.787  18.059  0.00  0.00    +0.000 A 
ATOM      4  N   UNL     1       2.116   7.132  19.258  0.00  0.00    +0.000 N 
ATOM      5  C   UNL     1       1.508   8.068  20.085  0.00  0.00    +0.000 A 
ATOM      6  O   UNL     1       1.145   7.893  21.233  0.00  0.00    +0.000 OA
ENDROOT
BRANCH   1   7
ATOM      7  S   UNL     1       0.817  10.710  19.814  0.00  0.00    +0.000 S 
ATOM      8  O   UNL     1       1.649  11.785  19.317  0.00  0.00    +0.000 OA
ATOM      9  O   UNL     1       0.464  10.657  21.221  0.00  0.00    +0.000 OA
BRANCH   7  14
ATOM     10  C   UNL     1      -4.321  10.950  16.592  0.00  0.00    +0.000 C 
ATOM     11  C   UNL     1      -3.069  10.864  17.413  0.00  0.00    +0.000 A 
ATOM     12  C   UNL     1      -2.914  11.646  18.564  0.00  0.00    +0.000 A 
ATOM     13  C   UNL     1      -1.734  11.588  19.306  0.00  0.00    +0.000 A 
ATOM     14  C   UNL     1      -0.707  10.731  18.900  0.00  0.00    +0.000 A 
ATOM     15  C   UNL     1      -0.842   9.947  17.754  0.00  0.00    +0.000 A 
ATOM     16  C   UNL     1      -2.026  10.012  17.017  0.00  0.00    +0.000 A 
ENDBRANCH   7  14
ENDBRANCH   1   7
BRANCH   4  17
ATOM     17  S   UNL     1       2.347   5.520  19.489  0.00  0.00    +0.000 S 
ATOM     18  O   UNL     1       2.559   5.247  20.895  0.00  0.00    +0.000 OA
ATOM     19  O   UNL     1       1.328   4.795  18.754  0.00  0.00    +0.000 OA
BRANCH  17  20
ATOM     20  C   UNL     1       3.888   5.241  18.645  0.00  0.00    +0.000 A 
ATOM     21  C   UNL     1       5.095   5.485  19.303  0.00  0.00    +0.000 A 
ATOM     22  C   UNL     1       6.299   5.222  18.646  0.00  0.00    +0.000 A 
ATOM     23  C   UNL     1       6.301   4.709  17.341  0.00  0.00    +0.000 A 
ATOM     24  C   UNL     1       7.590   4.419  16.629  0.00  0.00    +0.000 C 
ATOM     25  C   UNL     1       5.081   4.453  16.701  0.00  0.00    +0.000 A 
ATOM     26  C   UNL     1       3.874   4.711  17.351  0.00  0.00    +0.000 A 
ENDBRANCH  17  20
ENDBRANCH   4  17
TORSDOF 4
ENDMDL
MODEL 2
REMARK VINA RESULT:      -7.7      0.337      8.012
REMARK  Name = 
REMARK  6 active torsions:
REMARK  status: ('A' for Active; 'I' for Inactive)
REMARK    1  A    between atoms: C_1  and  C_2
REMARK    2  A    between atoms: C_5  and  S_6
REMARK    3  A    between atoms: S_6  and  N_9
REMARK    4  A    between atoms: N_12  and  S_13
REMARK    5  A    between atoms: S_13  and  C_16
REMARK    6  A    between atoms: C_19  and  C_20
REMARK                            x       y       z     vdW  Elec       q    Type
REMARK                         _______ _______ _______ _____ _____    ______ ____
ROOT
ATOM      1  N   UNL     1       2.077   7.051  19.221  0.00  0.00    +0.000 N 
ATOM      2  C   UNL     1       2.484   7.595  17.977  0.00  0.00    +0.000 A 
ATOM      3  C   UNL     1       2.161   8.892  17.957  0.00  0.00    +0.000 A 
ATOM      4  N   UNL     1       1.532   9.215  19.187  0.00  0.00    +0.000 N 
ATOM      5  C   UNL     1       1.444   8.054  19.944  0.00  0.00    +0.000 A 
ATOM      6  O   UNL     1       0.873   7.926  21.011  0.00  0.00    +0.000 OA
ENDROOT
BRANCH   1   7
ATOM      7  S   UNL     1       2.320   5.474  19.614  0.00  0.00    +0.000 S 
ATOM      8  O   UNL     1       1.284   4.653  19.027  0.00  0.00    +0.000 OA
ATOM      9  O   UNL     1       2.597   5.386  21.037  0.00  0.00    +0.000 OA
BRANCH   7  14
ATOM     10  C   UNL     1       7.498   4.442  16.620  0.00  0.00    +0.000 C 
ATOM     11  C   UNL     1       6.220   4.659  17.374  0.00  0.00    +0.000 A 
ATOM     12  C   UNL     1       4.989   4.299  16.811  0.00  0.00    +0.000 A 
ATOM     13  C   UNL     1       3.799   4.533  17.501  0.00  0.00    +0.000 A 
ATOM     14  C   UNL     1       3.843   5.121  18.769  0.00  0.00    +0.000 A 
ATOM     15  C   UNL     1       5.060   5.489  19.344  0.00  0.00    +0.000 A 
ATOM     16  C   UNL     1       6.245   5.252  18.645  0.00  0.00    +0.000 A 
ENDBRANCH   7  14
ENDBRANCH   1   7
BRANCH   4  17
ATOM     17  S   UNL     1       1.085  10.751  19.566  0.00  0.00    +0.000 S 
ATOM     18  O   UNL     1       1.026  10.910  21.004  0.00  0.00    +0.000 OA
ATOM     19  O   UNL     1       1.867  11.674  18.765  0.00  0.00    +0.000 OA
BRANCH  17  20
ATOM     20  C   UNL     1      -0.581  10.817  18.946  0.00  0.00    +0.000 A 
ATOM     21  C   UNL     1      -1.488  11.732  19.486  0.00  0.00    +0.000 A 
ATOM     22  C   UNL     1      -2.781  11.805  18.963  0.00  0.00    +0.000 A 
ATOM     23  C   UNL     1      -3.167  10.976  17.901  0.00  0.00    +0.000 A 
ATOM     24  C   UNL     1      -4.554  11.051  17.329  0.00  0.00    +0.000 C 
ATOM     25  C   UNL     1      -2.241  10.076  17.358  0.00  0.00    +0.000 A 
ATOM     26  C   UNL     1      -0.947   9.998  17.874  0.00  0.00    +0.000 A 
ENDBRANCH  17  20
ENDBRANCH   4  17
TORSDOF 4
ENDMDL
MODEL 3
REMARK VINA RESULT:      -7.7      3.469      7.629
REMARK  Name = 
REMARK  6 active torsions:
REMARK  status: ('A' for Active; 'I' for Inactive)
REMARK    1  A    between atoms: C_1  and  C_2
REMARK    2  A    between atoms: C_5  and  S_6
REMARK    3  A    between atoms: S_6  and  N_9
REMARK    4  A    between atoms: N_12  and  S_13
REMARK    5  A    between atoms: S_13  and  C_16
REMARK    6  A    between atoms: C_19  and  C_20
REMARK                            x       y       z     vdW  Elec       q    Type
REMARK                         _______ _______ _______ _____ _____    ______ ____
ROOT
ATOM      1  N   UNL     1       5.696   4.608  17.556  0.00  0.00    +0.000 N 
ATOM      2  C   UNL     1       4.743   4.058  16.662  0.00  0.00    +0.000 A 
ATOM      3  C   UNL     1       3.548   4.069  17.259  0.00  0.00    +0.000 A 
ATOM      4  N   UNL     1       3.700   4.622  18.557  0.00  0.00    +0.000 N 
ATOM      5  C   UNL     1       5.046   4.910  18.747  0.00  0.00    +0.000 A 
ATOM      6  O   UNL     1       5.565   5.299  19.776  0.00  0.00    +0.000 OA
ENDROOT
BRANCH   1   7
ATOM      7  S   UNL     1       7.283   4.769  17.163  0.00  0.00    +0.000 S 
ATOM      8  O   UNL     1       7.449   4.667  15.729  0.00  0.00    +0.000 OA
ATOM      9  O   UNL     1       8.070   3.927  18.046  0.00  0.00    +0.000 OA
BRANCH   7  14
ATOM     10  C   UNL     1       8.564  10.506  18.671  0.00  0.00    +0.000 C 
ATOM     11  C   UNL     1       8.216   9.089  18.324  0.00  0.00    +0.000 A 
ATOM     12  C   UNL     1       8.688   8.027  19.105  0.00  0.00    +0.000 A 
ATOM     13  C   UNL     1       8.391   6.708  18.759  0.00  0.00    +0.000 A 
ATOM     14  C   UNL     1       7.604   6.452  17.633  0.00  0.00    +0.000 A 
ATOM     15  C   UNL     1       7.127   7.498  16.842  0.00  0.00    +0.000 A 
ATOM     16  C   UNL     1       7.431   8.815  17.194  0.00  0.00    +0.000 A 
ENDBRANCH   7  14
ENDBRANCH   1   7
BRANCH   4  17
ATOM     17  S   UNL     1       2.419   4.889  19.552  0.00  0.00    +0.000 S 
ATOM     18  O   UNL     1       1.268   4.145  19.089  0.00  0.00    +0.000 OA
ATOM     19  O   UNL     1       2.864   4.757  20.927  0.00  0.00    +0.000 OA
BRANCH  17  20
ATOM     20  C   UNL     1       2.093   6.617  19.281  0.00  0.00    +0.000 A 
ATOM     21  C   UNL     1       1.667   7.418  20.343  0.00  0.00    +0.000 A 
ATOM     22  C   UNL     1       1.455   8.782  20.130  0.00  0.00    +0.000 A 
ATOM     23  C   UNL     1       1.673   9.347  18.865  0.00  0.00    +0.000 A 
ATOM     24  C   UNL     1       1.451  10.813  18.628  0.00  0.00    +0.000 C 
ATOM     25  C   UNL     1       2.117   8.534  17.815  0.00  0.00    +0.000 A 
ATOM     26  C   UNL     1       2.333   7.171  18.020  0.00  0.00    +0.000 A 
ENDBRANCH  17  20
ENDBRANCH   4  17
TORSDOF 4
ENDMDL
MODEL 4
REMARK VINA RESULT:      -7.6      3.495      5.445
REMARK  Name = 
REMARK  6 active torsions:
REMARK  status: ('A' for Active; 'I' for Inactive)
REMARK    1  A    between atoms: C_1  and  C_2
REMARK    2  A    between atoms: C_5  and  S_6
REMARK    3  A    between atoms: S_6  and  N_9
REMARK    4  A    between atoms: N_12  and  S_13
REMARK    5  A    between atoms: S_13  and  C_16
REMARK    6  A    between atoms: C_19  and  C_20
REMARK                            x       y       z     vdW  Elec       q    Type
REMARK                         _______ _______ _______ _____ _____    ______ ____
ROOT
ATOM      1  N   UNL     1       3.641   4.677  18.445  0.00  0.00    +0.000 N 
ATOM      2  C   UNL     1       3.526   4.285  17.087  0.00  0.00    +0.000 A 
ATOM      3  C   UNL     1       4.740   4.332  16.530  0.00  0.00    +0.000 A 
ATOM      4  N   UNL     1       5.668   4.760  17.513  0.00  0.00    +0.000 N 
ATOM      5  C   UNL     1       4.967   5.016  18.685  0.00  0.00    +0.000 A 
ATOM      6  O   UNL     1       5.417   5.496  19.708  0.00  0.00    +0.000 OA
ENDROOT
BRANCH   1   7
ATOM      7  S   UNL     1       2.350   4.731  19.458  0.00  0.00    +0.000 S 
ATOM      8  O   UNL     1       2.744   4.305  20.784  0.00  0.00    +0.000 OA
ATOM      9  O   UNL     1       1.216   4.105  18.803  0.00  0.00    +0.000 OA
BRANCH   7  14
ATOM     10  C   UNL     1       1.004  10.647  19.603  0.00  0.00    +0.000 C 
ATOM     11  C   UNL     1       1.376   9.195  19.574  0.00  0.00    +0.000 A 
ATOM     12  C   UNL     1       1.820   8.595  18.388  0.00  0.00    +0.000 A 
ATOM     13  C   UNL     1       2.132   7.236  18.356  0.00  0.00    +0.000 A 
ATOM     14  C   UNL     1       2.011   6.475  19.522  0.00  0.00    +0.000 A 
ATOM     15  C   UNL     1       1.568   7.054  20.711  0.00  0.00    +0.000 A 
ATOM     16  C   UNL     1       1.256   8.415  20.734  0.00  0.00    +0.000 A 
ENDBRANCH   7  14
ENDBRANCH   1   7
BRANCH   4  17
ATOM     17  S   UNL     1       7.284   4.839  17.219  0.00  0.00    +0.000 S 
ATOM     18  O   UNL     1       7.995   3.949  18.112  0.00  0.00    +0.000 OA
ATOM     19  O   UNL     1       7.500   4.754  15.787  0.00  0.00    +0.000 OA
BRANCH  17  20
ATOM     20  C   UNL     1       7.668   6.508  17.699  0.00  0.00    +0.000 A 
ATOM     21  C   UNL     1       8.414   6.745  18.856  0.00  0.00    +0.000 A 
ATOM     22  C   UNL     1       8.746   8.056  19.201  0.00  0.00    +0.000 A 
ATOM     23  C   UNL     1       8.345   9.129  18.393  0.00  0.00    +0.000 A 
ATOM     24  C   UNL     1       8.701  10.542  18.753  0.00  0.00    +0.000 C 
ATOM     25  C   UNL     1       7.612   8.875  17.226  0.00  0.00    +0.000 A 
ATOM     26  C   UNL     1       7.278   7.567  16.873  0.00  0.00    +0.000 A 
ENDBRANCH  17  20
ENDBRANCH   4  17
TORSDOF 4
ENDMDL
MODEL 5
REMARK VINA RESULT:      -7.6      0.897      7.909
REMARK  Name = 
REMARK  6 active torsions:
REMARK  status: ('A' for Active; 'I' for Inactive)
REMARK    1  A    between atoms: C_1  and  C_2
REMARK    2  A    between atoms: C_5  and  S_6
REMARK    3  A    between atoms: S_6  and  N_9
REMARK    4  A    between atoms: N_12  and  S_13
REMARK    5  A    between atoms: S_13  and  C_16
REMARK    6  A    between atoms: C_19  and  C_20
REMARK                            x       y       z     vdW  Elec       q    Type
REMARK                         _______ _______ _______ _____ _____    ______ ____
ROOT
ATOM      1  N   UNL     1       2.317   7.238  18.816  0.00  0.00    +0.000 N 
ATOM      2  C   UNL     1       2.497   7.926  17.590  0.00  0.00    +0.000 A 
ATOM      3  C   UNL     1       2.046   9.175  17.736  0.00  0.00    +0.000 A 
ATOM      4  N   UNL     1       1.559   9.323  19.060  0.00  0.00    +0.000 N 
ATOM      5  C   UNL     1       1.689   8.100  19.707  0.00  0.00    +0.000 A 
ATOM      6  O   UNL     1       1.283   7.822  20.819  0.00  0.00    +0.000 OA
ENDROOT
BRANCH   1   7
ATOM      7  S   UNL     1       2.767   5.671  19.021  0.00  0.00    +0.000 S 
ATOM      8  O   UNL     1       1.654   4.794  18.725  0.00  0.00    +0.000 OA
ATOM      9  O   UNL     1       3.469   5.550  20.286  0.00  0.00    +0.000 OA
BRANCH   7  14
ATOM     10  C   UNL     1       7.033   4.901  14.774  0.00  0.00    +0.000 C 
ATOM     11  C   UNL     1       5.958   5.115  15.798  0.00  0.00    +0.000 A 
ATOM     12  C   UNL     1       5.988   6.233  16.641  0.00  0.00    +0.000 A 
ATOM     13  C   UNL     1       5.005   6.411  17.615  0.00  0.00    +0.000 A 
ATOM     14  C   UNL     1       3.979   5.471  17.737  0.00  0.00    +0.000 A 
ATOM     15  C   UNL     1       3.935   4.350  16.908  0.00  0.00    +0.000 A 
ATOM     16  C   UNL     1       4.923   4.178  15.937  0.00  0.00    +0.000 A 
ENDBRANCH   7  14
ENDBRANCH   1   7
BRANCH   4  17
ATOM     17  S   UNL     1       1.016  10.763  19.639  0.00  0.00    +0.000 S 
ATOM     18  O   UNL     1       0.911  10.710  21.082  0.00  0.00    +0.000 OA
ATOM     19  O   UNL     1       1.766  11.832  19.005  0.00  0.00    +0.000 OA
BRANCH  17  20
ATOM     20  C   UNL     1      -0.635  10.831  18.979  0.00  0.00    +0.000 A 
ATOM     21  C   UNL     1      -1.551  11.751  19.492  0.00  0.00    +0.000 A 
ATOM     22  C   UNL     1      -2.831  11.825  18.938  0.00  0.00    +0.000 A 
ATOM     23  C   UNL     1      -3.194  10.992  17.871  0.00  0.00    +0.000 A 
ATOM     24  C   UNL     1      -4.566  11.067  17.266  0.00  0.00    +0.000 C 
ATOM     25  C   UNL     1      -2.258  10.086  17.355  0.00  0.00    +0.000 A 
ATOM     26  C   UNL     1      -0.977  10.007  17.902  0.00  0.00    +0.000 A 
ENDBRANCH  17  20
ENDBRANCH   4  17
TORSDOF 4
ENDMDL
MODEL 6
REMARK VINA RESULT:      -7.6      0.189      1.357
REMARK  Name = 
REMARK  6 active torsions:
REMARK  status: ('A' for Active; 'I' for Inactive)
REMARK    1  A    between atoms: C_1  and  C_2
REMARK    2  A    between atoms: C_5  and  S_6
REMARK    3  A    between atoms: S_6  and  N_9
REMARK    4  A    between atoms: N_12  and  S_13
REMARK    5  A    between atoms: S_13  and  C_16
REMARK    6  A    between atoms: C_19  and  C_20
REMARK                            x       y       z     vdW  Elec       q    Type
REMARK                         _______ _______ _______ _____ _____    ______ ____
ROOT
ATOM      1  N   UNL     1       1.551   9.304  19.255  0.00  0.00    +0.000 N 
ATOM      2  C   UNL     1       2.200   9.062  18.018  0.00  0.00    +0.000 A 
ATOM      3  C   UNL     1       2.528   7.768  17.959  0.00  0.00    +0.000 A 
ATOM      4  N   UNL     1       2.103   7.143  19.160  0.00  0.00    +0.000 N 
ATOM      5  C   UNL     1       1.539   8.116  19.976  0.00  0.00    +0.000 A 
ATOM      6  O   UNL     1       1.159   7.969  21.122  0.00  0.00    +0.000 OA
ENDROOT
BRANCH   1   7
ATOM      7  S   UNL     1       0.990  10.788  19.679  0.00  0.00    +0.000 S 
ATOM      8  O   UNL     1       1.826  11.817  19.098  0.00  0.00    +0.000 OA
ATOM      9  O   UNL     1       0.719  10.794  21.106  0.00  0.00    +0.000 OA
BRANCH   7  14
ATOM     10  C   UNL     1      -4.445  10.775  16.979  0.00  0.00    +0.000 C 
ATOM     11  C   UNL     1      -3.089  10.804  17.617  0.00  0.00    +0.000 A 
ATOM     12  C   UNL     1      -2.075   9.943  17.179  0.00  0.00    +0.000 A 
ATOM     13  C   UNL     1      -0.824   9.948  17.798  0.00  0.00    +0.000 A 
ATOM     14  C   UNL     1      -0.584  10.832  18.855  0.00  0.00    +0.000 A 
ATOM     15  C   UNL     1      -1.582  11.694  19.306  0.00  0.00    +0.000 A 
ATOM     16  C   UNL     1      -2.831  11.681  18.682  0.00  0.00    +0.000 A 
ENDBRANCH   7  14
ENDBRANCH   1   7
BRANCH   4  17
ATOM     17  S   UNL     1       2.246   5.523  19.405  0.00  0.00    +0.000 S 
ATOM     18  O   UNL     1       2.351   5.243  20.821  0.00  0.00    +0.000 OA
ATOM     19  O   UNL     1       1.248   4.842  18.602  0.00  0.00    +0.000 OA
BRANCH  17  20
ATOM     20  C   UNL     1       3.827   5.175  18.666  0.00  0.00    +0.000 A 
ATOM     21  C   UNL     1       3.889   4.668  17.366  0.00  0.00    +0.000 A 
ATOM     22  C   UNL     1       5.136   4.439  16.779  0.00  0.00    +0.000 A 
ATOM     23  C   UNL     1       6.316   4.720  17.482  0.00  0.00    +0.000 A 
ATOM     24  C   UNL     1       7.660   4.480  16.858  0.00  0.00    +0.000 C 
ATOM     25  C   UNL     1       6.237   5.244  18.779  0.00  0.00    +0.000 A 
ATOM     26  C   UNL     1       4.995   5.478  19.371  0.00  0.00    +0.000 A 
ENDBRANCH  17  20
ENDBRANCH   4  17
TORSDOF 4
ENDMDL
MODEL 7
REMARK VINA RESULT:      -7.5      3.216      8.025
REMARK  Name = 
REMARK  6 active torsions:
REMARK  status: ('A' for Active; 'I' for Inactive)
REMARK    1  A    between atoms: C_1  and  C_2
REMARK    2  A    between atoms: C_5  and  S_6
REMARK    3  A    between atoms: S_6  and  N_9
REMARK    4  A    between atoms: N_12  and  S_13
REMARK    5  A    between atoms: S_13  and  C_16
REMARK    6  A    between atoms: C_19  and  C_20
REMARK                            x       y       z     vdW  Elec       q    Type
REMARK                         _______ _______ _______ _____ _____    ______ ____
ROOT
ATOM      1  N   UNL     1       5.876   5.429  17.994  0.00  0.00    +0.000 N 
ATOM      2  C   UNL     1       5.839   4.845  19.285  0.00  0.00    +0.000 A 
ATOM      3  C   UNL     1       4.579   4.879  19.728  0.00  0.00    +0.000 A 
ATOM      4  N   UNL     1       3.771   5.491  18.735  0.00  0.00    +0.000 N 
ATOM      5  C   UNL     1       4.595   5.870  17.683  0.00  0.00    +0.000 A 
ATOM      6  O   UNL     1       4.269   6.513  16.703  0.00  0.00    +0.000 OA
ENDROOT
BRANCH   1   7
ATOM      7  S   UNL     1       7.263   5.554  17.124  0.00  0.00    +0.000 S 
ATOM      8  O   UNL     1       8.286   4.706  17.699  0.00  0.00    +0.000 OA
ATOM      9  O   UNL     1       7.537   6.960  16.882  0.00  0.00    +0.000 OA
BRANCH   7  14
ATOM     10  C   UNL     1       5.776   3.017  11.815  0.00  0.00    +0.000 C 
ATOM     11  C   UNL     1       6.116   3.673  13.119  0.00  0.00    +0.000 A 
ATOM     12  C   UNL     1       7.059   4.708  13.174  0.00  0.00    +0.000 A 
ATOM     13  C   UNL     1       7.398   5.293  14.394  0.00  0.00    +0.000 A 
ATOM     14  C   UNL     1       6.780   4.848  15.566  0.00  0.00    +0.000 A 
ATOM     15  C   UNL     1       5.841   3.817  15.531  0.00  0.00    +0.000 A 
ATOM     16  C   UNL     1       5.509   3.236  14.306  0.00  0.00    +0.000 A 
ENDBRANCH   7  14
ENDBRANCH   1   7
BRANCH   4  17
ATOM     17  S   UNL     1       2.138   5.615  18.886  0.00  0.00    +0.000 S 
ATOM     18  O   UNL     1       1.492   5.156  17.675  0.00  0.00    +0.000 OA
ATOM     19  O   UNL     1       1.747   5.066  20.171  0.00  0.00    +0.000 OA
BRANCH  17  20
ATOM     20  C   UNL     1       1.908   7.376  18.988  0.00  0.00    +0.000 A 
ATOM     21  C   UNL     1       1.936   8.149  17.826  0.00  0.00    +0.000 A 
ATOM     22  C   UNL     1       1.712   9.525  17.912  0.00  0.00    +0.000 A 
ATOM     23  C   UNL     1       1.452  10.128  19.151  0.00  0.00    +0.000 A 
ATOM     24  C   UNL     1       1.205  11.605  19.253  0.00  0.00    +0.000 C 
ATOM     25  C   UNL     1       1.410   9.337  20.306  0.00  0.00    +0.000 A 
ATOM     26  C   UNL     1       1.631   7.961  20.228  0.00  0.00    +0.000 A 
ENDBRANCH  17  20
ENDBRANCH   4  17
TORSDOF 4
ENDMDL
MODEL 8
REMARK VINA RESULT:      -7.4      1.074      7.925
REMARK  Name = 
REMARK  6 active torsions:
REMARK  status: ('A' for Active; 'I' for Inactive)
REMARK    1  A    between atoms: C_1  and  C_2
REMARK    2  A    between atoms: C_5  and  S_6
REMARK    3  A    between atoms: S_6  and  N_9
REMARK    4  A    between atoms: N_12  and  S_13
REMARK    5  A    between atoms: S_13  and  C_16
REMARK    6  A    between atoms: C_19  and  C_20
REMARK                            x       y       z     vdW  Elec       q    Type
REMARK                         _______ _______ _______ _____ _____    ______ ____
ROOT
ATOM      1  N   UNL     1       1.830   6.702  19.842  0.00  0.00    +0.000 N 
ATOM      2  C   UNL     1       1.411   7.361  21.026  0.00  0.00    +0.000 A 
ATOM      3  C   UNL     1       1.273   8.663  20.759  0.00  0.00    +0.000 A 
ATOM      4  N   UNL     1       1.604   8.878  19.396  0.00  0.00    +0.000 N 
ATOM      5  C   UNL     1       1.993   7.662  18.850  0.00  0.00    +0.000 A 
ATOM      6  O   UNL     1       2.442   7.479  17.734  0.00  0.00    +0.000 OA
ENDROOT
BRANCH   1   7
ATOM      7  S   UNL     1       2.094   5.082  19.781  0.00  0.00    +0.000 S 
ATOM      8  O   UNL     1       1.087   4.448  18.958  0.00  0.00    +0.000 OA
ATOM      9  O   UNL     1       2.340   4.600  21.128  0.00  0.00    +0.000 OA
BRANCH   7  14
ATOM     10  C   UNL     1       7.425   4.625  16.916  0.00  0.00    +0.000 C 
ATOM     11  C   UNL     1       6.104   4.776  17.610  0.00  0.00    +0.000 A 
ATOM     12  C   UNL     1       6.029   5.352  18.885  0.00  0.00    +0.000 A 
ATOM     13  C   UNL     1       4.803   5.460  19.542  0.00  0.00    +0.000 A 
ATOM     14  C   UNL     1       3.643   5.000  18.913  0.00  0.00    +0.000 A 
ATOM     15  C   UNL     1       3.699   4.420  17.645  0.00  0.00    +0.000 A 
ATOM     16  C   UNL     1       4.930   4.315  16.996  0.00  0.00    +0.000 A 
ENDBRANCH   7  14
ENDBRANCH   1   7
BRANCH   4  17
ATOM     17  S   UNL     1       1.451  10.350  18.678  0.00  0.00    +0.000 S 
ATOM     18  O   UNL     1       1.838  11.394  19.603  0.00  0.00    +0.000 OA
ATOM     19  O   UNL     1       2.053  10.288  17.359  0.00  0.00    +0.000 OA
BRANCH  17  20
ATOM     20  C   UNL     1      -0.307  10.465  18.437  0.00  0.00    +0.000 A 
ATOM     21  C   UNL     1      -1.054  11.375  19.188  0.00  0.00    +0.000 A 
ATOM     22  C   UNL     1      -2.427  11.488  18.961  0.00  0.00    +0.000 A 
ATOM     23  C   UNL     1      -3.054  10.704  17.982  0.00  0.00    +0.000 A 
ATOM     24  C   UNL     1      -4.528  10.821  17.728  0.00  0.00    +0.000 C 
ATOM     25  C   UNL     1      -2.289   9.808  17.224  0.00  0.00    +0.000 A 
ATOM     26  C   UNL     1      -0.916   9.690  17.444  0.00  0.00    +0.000 A 
ENDBRANCH  17  20
ENDBRANCH   4  17
TORSDOF 4
ENDMDL
MODEL 9
REMARK VINA RESULT:      -7.4      2.709      3.864
REMARK  Name = 
REMARK  6 active torsions:
REMARK  status: ('A' for Active; 'I' for Inactive)
REMARK    1  A    between atoms: C_1  and  C_2
REMARK    2  A    between atoms: C_5  and  S_6
REMARK    3  A    between atoms: S_6  and  N_9
REMARK    4  A    between atoms: N_12  and  S_13
REMARK    5  A    between atoms: S_13  and  C_16
REMARK    6  A    between atoms: C_19  and  C_20
REMARK                            x       y       z     vdW  Elec       q    Type
REMARK                         _______ _______ _______ _____ _____    ______ ____
ROOT
ATOM      1  N   UNL     1       2.629   7.304  18.644  0.00  0.00    +0.000 N 
ATOM      2  C   UNL     1       2.073   6.394  19.579  0.00  0.00    +0.000 A 
ATOM      3  C   UNL     1       2.950   5.407  19.781  0.00  0.00    +0.000 A 
ATOM      4  N   UNL     1       4.093   5.652  18.976  0.00  0.00    +0.000 N 
ATOM      5  C   UNL     1       3.862   6.807  18.241  0.00  0.00    +0.000 A 
ATOM      6  O   UNL     1       4.577   7.267  17.370  0.00  0.00    +0.000 OA
ENDROOT
BRANCH   1   7
ATOM      7  S   UNL     1       1.838   8.658  18.157  0.00  0.00    +0.000 S 
ATOM      8  O   UNL     1       0.781   8.307  17.232  0.00  0.00    +0.000 OA
ATOM      9  O   UNL     1       2.818   9.664  17.791  0.00  0.00    +0.000 OA
BRANCH   7  14
ATOM     10  C   UNL     1      -0.896  10.373  23.297  0.00  0.00    +0.000 C 
ATOM     11  C   UNL     1      -0.197   9.982  22.029  0.00  0.00    +0.000 A 
ATOM     12  C   UNL     1      -0.608  10.505  20.797  0.00  0.00    +0.000 A 
ATOM     13  C   UNL     1       0.023  10.113  19.616  0.00  0.00    +0.000 A 
ATOM     14  C   UNL     1       1.081   9.201  19.671  0.00  0.00    +0.000 A 
ATOM     15  C   UNL     1       1.502   8.668  20.889  0.00  0.00    +0.000 A 
ATOM     16  C   UNL     1       0.864   9.065  22.066  0.00  0.00    +0.000 A 
ENDBRANCH   7  14
ENDBRANCH   1   7
BRANCH   4  17
ATOM     17  S   UNL     1       5.430   4.696  19.037  0.00  0.00    +0.000 S 
ATOM     18  O   UNL     1       6.533   5.425  19.626  0.00  0.00    +0.000 OA
ATOM     19  O   UNL     1       5.051   3.400  19.567  0.00  0.00    +0.000 OA
BRANCH  17  20
ATOM     20  C   UNL     1       5.797   4.460  17.312  0.00  0.00    +0.000 A 
ATOM     21  C   UNL     1       4.839   3.892  16.470  0.00  0.00    +0.000 A 
ATOM     22  C   UNL     1       5.121   3.750  15.109  0.00  0.00    +0.000 A 
ATOM     23  C   UNL     1       6.349   4.181  14.588  0.00  0.00    +0.000 A 
ATOM     24  C   UNL     1       6.659   4.037  13.126  0.00  0.00    +0.000 C 
ATOM     25  C   UNL     1       7.293   4.766  15.442  0.00  0.00    +0.000 A 
ATOM     26  C   UNL     1       7.018   4.912  16.803  0.00  0.00    +0.000 A 
ENDBRANCH  17  20
ENDBRANCH   4  17
TORSDOF 4
ENDMDL
