MODEL 1
REMARK VINA RESULT:      -8.6      0.000      0.000
REMARK  Name = 
REMARK  4 active torsions:
REMARK  status: ('A' for Active; 'I' for Inactive)
REMARK    1  A    between atoms: C_5  and  C_6
REMARK    2  A    between atoms: C_6  and  C_7
REMARK    3  A    between atoms: C_20  and  C_21
REMARK    4  A    between atoms: C_24  and  C_25
REMARK                            x       y       z     vdW  Elec       q    Type
REMARK                         _______ _______ _______ _____ _____    ______ ____
ROOT
ATOM      1  O   UNL     1       1.318  11.200  21.484  0.00  0.00    +0.000 OA
ATOM      2  C   UNL     1       1.099  11.125  20.285  0.00  0.00    +0.000 C 
ATOM      3  O   UNL     1       0.931  12.238  19.510  0.00  0.00    +0.000 OA
ATOM      4  C   UNL     1       0.491  11.820  18.219  0.00  0.00    +0.000 C 
ATOM      5  C   UNL     1       0.861  10.349  18.118  0.00  0.00    +0.000 C 
ATOM      6  N   UNL     1       0.999   9.975  19.514  0.00  0.00    +0.000 N 
ATOM      7  C   UNL     1       1.305   8.698  19.952  0.00  0.00    +0.000 A 
ATOM      8  C   UNL     1       0.796   8.372  21.326  0.00  0.00    +0.000 A 
ATOM      9  C   UNL     1       0.945   7.101  21.713  0.00  0.00    +0.000 A 
ATOM     10  N   UNL     1       1.597   6.190  20.899  0.00  0.00    +0.000 N 
ATOM     11  N   UNL     1       1.799   4.877  21.156  0.00  0.00    +0.000 NA
ATOM     12  C   UNL     1       2.549   4.460  20.139  0.00  0.00    +0.000 A 
ATOM     13  C   UNL     1       2.833   5.479  19.203  0.00  0.00    +0.000 A 
ATOM     14  C   UNL     1       2.132   6.586  19.663  0.00  0.00    +0.000 A 
ATOM     15  N   UNL     1       1.916   7.854  19.165  0.00  0.00    +0.000 NA
ENDROOT
BRANCH  13  16
ATOM     16  C   UNL     1       3.671   5.398  18.020  0.00  0.00    +0.000 A 
ATOM     17  C   UNL     1       3.840   4.169  17.365  0.00  0.00    +0.000 A 
ATOM     18  C   UNL     1       4.719   4.051  16.281  0.00  0.00    +0.000 A 
ATOM     19  C   UNL     1       5.459   5.155  15.828  0.00  0.00    +0.000 A 
ATOM     20  C   UNL     1       5.286   6.374  16.494  0.00  0.00    +0.000 A 
ATOM     21  F   UNL     1       5.971   7.469  16.131  0.00  0.00    +0.000 F 
ATOM     22  C   UNL     1       4.405   6.500  17.573  0.00  0.00    +0.000 A 
BRANCH  19  23
ATOM     23  C   UNL     1       6.378   5.014  14.703  0.00  0.00    +0.000 A 
ATOM     24  N   UNL     1       6.064   4.323  13.553  0.00  0.00    +0.000 NA
ATOM     25  C   UNL     1       7.138   4.433  12.811  0.00  0.00    +0.000 A 
ATOM     26  N   UNL     1       8.068   5.156  13.479  0.00  0.00    +0.000 N 
ATOM     27  N   UNL     1       7.616   5.541  14.681  0.00  0.00    +0.000 NA
ATOM     28  H   UNL     1       9.004   5.419  13.189  0.00  0.00    +0.000 HD
ENDBRANCH  19  23
ENDBRANCH  13  16
BRANCH   5  29
ATOM     29  C   UNL     1      -0.226   9.542  17.384  0.00  0.00    +0.000 C 
BRANCH  29  30
ATOM     30  C   UNL     1      -1.610  10.157  17.365  0.00  0.00    +0.000 A 
ATOM     31  C   UNL     1      -2.190  10.665  18.533  0.00  0.00    +0.000 A 
ATOM     32  C   UNL     1      -3.425  11.321  18.483  0.00  0.00    +0.000 A 
ATOM     33  C   UNL     1      -4.091  11.473  17.268  0.00  0.00    +0.000 A 
ATOM     34  C   UNL     1      -3.535  10.952  16.104  0.00  0.00    +0.000 A 
ATOM     35  C   UNL     1      -2.304  10.295  16.152  0.00  0.00    +0.000 A 
ENDBRANCH  29  30
ENDBRANCH   5  29
TORSDOF 4
ENDMDL
MODEL 2
REMARK VINA RESULT:      -8.4      4.142      5.787
REMARK  Name = 
REMARK  4 active torsions:
REMARK  status: ('A' for Active; 'I' for Inactive)
REMARK    1  A    between atoms: C_5  and  C_6
REMARK    2  A    between atoms: C_6  and  C_7
REMARK    3  A    between atoms: C_20  and  C_21
REMARK    4  A    between atoms: C_24  and  C_25
REMARK                            x       y       z     vdW  Elec       q    Type
REMARK                         _______ _______ _______ _____ _____    ______ ____
ROOT
ATOM      1  O   UNL     1       1.632   4.217  20.405  0.00  0.00    +0.000 OA
ATOM      2  C   UNL     1       1.630   5.435  20.319  0.00  0.00    +0.000 C 
ATOM      3  O   UNL     1       0.883   6.218  21.155  0.00  0.00    +0.000 OA
ATOM      4  C   UNL     1       0.933   7.559  20.673  0.00  0.00    +0.000 C 
ATOM      5  C   UNL     1       2.147   7.621  19.761  0.00  0.00    +0.000 C 
ATOM      6  N   UNL     1       2.348   6.222  19.428  0.00  0.00    +0.000 N 
ATOM      7  C   UNL     1       3.337   5.757  18.579  0.00  0.00    +0.000 A 
ATOM      8  C   UNL     1       3.008   4.467  17.887  0.00  0.00    +0.000 A 
ATOM      9  C   UNL     1       3.877   4.073  16.951  0.00  0.00    +0.000 A 
ATOM     10  N   UNL     1       5.033   4.798  16.714  0.00  0.00    +0.000 N 
ATOM     11  N   UNL     1       5.983   4.527  15.790  0.00  0.00    +0.000 NA
ATOM     12  C   UNL     1       6.926   5.437  16.019  0.00  0.00    +0.000 A 
ATOM     13  C   UNL     1       6.605   6.319  17.075  0.00  0.00    +0.000 A 
ATOM     14  C   UNL     1       5.325   5.948  17.465  0.00  0.00    +0.000 A 
ATOM     15  N   UNL     1       4.416   6.461  18.368  0.00  0.00    +0.000 NA
ENDROOT
BRANCH  13  16
ATOM     16  C   UNL     1       7.424   7.378  17.636  0.00  0.00    +0.000 A 
ATOM     17  C   UNL     1       8.277   7.106  18.715  0.00  0.00    +0.000 A 
ATOM     18  C   UNL     1       9.003   8.134  19.330  0.00  0.00    +0.000 A 
ATOM     19  C   UNL     1       8.890   9.462  18.888  0.00  0.00    +0.000 A 
ATOM     20  C   UNL     1       8.031   9.721  17.814  0.00  0.00    +0.000 A 
ATOM     21  F   UNL     1       7.857  10.966  17.347  0.00  0.00    +0.000 F 
ATOM     22  C   UNL     1       7.308   8.698  17.192  0.00  0.00    +0.000 A 
BRANCH  19  23
ATOM     23  C   UNL     1       9.646  10.523  19.545  0.00  0.00    +0.000 A 
ATOM     24  N   UNL     1      10.684  11.198  18.939  0.00  0.00    +0.000 NA
ATOM     25  C   UNL     1      11.085  12.050  19.850  0.00  0.00    +0.000 A 
ATOM     26  N   UNL     1      10.330  11.900  20.964  0.00  0.00    +0.000 N 
ATOM     27  N   UNL     1       9.407  10.941  20.802  0.00  0.00    +0.000 NA
ATOM     28  H   UNL     1      10.382  12.399  21.845  0.00  0.00    +0.000 HD
ENDBRANCH  19  23
ENDBRANCH  13  16
BRANCH   5  29
ATOM     29  C   UNL     1       1.882   8.501  18.525  0.00  0.00    +0.000 C 
BRANCH  29  30
ATOM     30  C   UNL     1       0.899   9.636  18.717  0.00  0.00    +0.000 A 
ATOM     31  C   UNL     1       1.210  10.729  19.536  0.00  0.00    +0.000 A 
ATOM     32  C   UNL     1       0.336  11.818  19.624  0.00  0.00    +0.000 A 
ATOM     33  C   UNL     1      -0.854  11.826  18.900  0.00  0.00    +0.000 A 
ATOM     34  C   UNL     1      -1.184  10.736  18.101  0.00  0.00    +0.000 A 
ATOM     35  C   UNL     1      -0.315   9.646  18.012  0.00  0.00    +0.000 A 
ENDBRANCH  29  30
ENDBRANCH   5  29
TORSDOF 4
ENDMDL
MODEL 3
REMARK VINA RESULT:      -8.3      3.837      5.959
REMARK  Name = 
REMARK  4 active torsions:
REMARK  status: ('A' for Active; 'I' for Inactive)
REMARK    1  A    between atoms: C_5  and  C_6
REMARK    2  A    between atoms: C_6  and  C_7
REMARK    3  A    between atoms: C_20  and  C_21
REMARK    4  A    between atoms: C_24  and  C_25
REMARK                            x       y       z     vdW  Elec       q    Type
REMARK                         _______ _______ _______ _____ _____    ______ ____
ROOT
ATOM      1  O   UNL     1       3.137  15.632  22.812  0.00  0.00    +0.000 OA
ATOM      2  C   UNL     1       3.497  15.391  21.670  0.00  0.00    +0.000 C 
ATOM      3  O   UNL     1       4.634  15.933  21.140  0.00  0.00    +0.000 OA
ATOM      4  C   UNL     1       4.666  15.631  19.747  0.00  0.00    +0.000 C 
ATOM      5  C   UNL     1       3.711  14.464  19.560  0.00  0.00    +0.000 C 
ATOM      6  N   UNL     1       2.876  14.562  20.745  0.00  0.00    +0.000 N 
ATOM      7  C   UNL     1       1.814  13.719  21.022  0.00  0.00    +0.000 A 
ATOM      8  C   UNL     1       0.745  14.327  21.881  0.00  0.00    +0.000 A 
ATOM      9  C   UNL     1      -0.360  13.590  22.040  0.00  0.00    +0.000 A 
ATOM     10  N   UNL     1      -0.443  12.321  21.492  0.00  0.00    +0.000 N 
ATOM     11  N   UNL     1      -1.501  11.480  21.558  0.00  0.00    +0.000 NA
ATOM     12  C   UNL     1      -1.064  10.365  20.979  0.00  0.00    +0.000 A 
ATOM     13  C   UNL     1       0.267  10.463  20.516  0.00  0.00    +0.000 A 
ATOM     14  C   UNL     1       0.635  11.775  20.777  0.00  0.00    +0.000 A 
ATOM     15  N   UNL     1       1.755  12.528  20.489  0.00  0.00    +0.000 NA
ENDROOT
BRANCH  13  16
ATOM     16  C   UNL     1       1.079   9.426  19.903  0.00  0.00    +0.000 A 
ATOM     17  C   UNL     1       1.432   9.522  18.550  0.00  0.00    +0.000 A 
ATOM     18  C   UNL     1       2.132   8.487  17.918  0.00  0.00    +0.000 A 
ATOM     19  C   UNL     1       2.491   7.324  18.620  0.00  0.00    +0.000 A 
ATOM     20  C   UNL     1       2.127   7.238  19.968  0.00  0.00    +0.000 A 
ATOM     21  F   UNL     1       2.419   6.152  20.700  0.00  0.00    +0.000 F 
ATOM     22  C   UNL     1       1.433   8.271  20.606  0.00  0.00    +0.000 A 
BRANCH  19  23
ATOM     23  C   UNL     1       3.213   6.251  17.945  0.00  0.00    +0.000 A 
ATOM     24  N   UNL     1       2.722   4.969  17.822  0.00  0.00    +0.000 NA
ATOM     25  C   UNL     1       3.659   4.330  17.167  0.00  0.00    +0.000 A 
ATOM     26  N   UNL     1       4.679   5.181  16.904  0.00  0.00    +0.000 N 
ATOM     27  N   UNL     1       4.427   6.408  17.383  0.00  0.00    +0.000 NA
ATOM     28  H   UNL     1       5.552   5.004  16.420  0.00  0.00    +0.000 HD
ENDBRANCH  19  23
ENDBRANCH  13  16
BRANCH   5  29
ATOM     29  C   UNL     1       2.912  14.591  18.250  0.00  0.00    +0.000 C 
BRANCH  29  30
ATOM     30  C   UNL     1       2.073  15.842  18.103  0.00  0.00    +0.000 A 
ATOM     31  C   UNL     1       2.545  16.947  17.382  0.00  0.00    +0.000 A 
ATOM     32  C   UNL     1       1.720  18.057  17.169  0.00  0.00    +0.000 A 
ATOM     33  C   UNL     1       0.420  18.075  17.672  0.00  0.00    +0.000 A 
ATOM     34  C   UNL     1      -0.052  16.993  18.408  0.00  0.00    +0.000 A 
ATOM     35  C   UNL     1       0.770  15.884  18.625  0.00  0.00    +0.000 A 
ENDBRANCH  29  30
ENDBRANCH   5  29
TORSDOF 4
ENDMDL
MODEL 4
REMARK VINA RESULT:      -8.3      3.861      8.502
REMARK  Name = 
REMARK  4 active torsions:
REMARK  status: ('A' for Active; 'I' for Inactive)
REMARK    1  A    between atoms: C_5  and  C_6
REMARK    2  A    between atoms: C_6  and  C_7
REMARK    3  A    between atoms: C_20  and  C_21
REMARK    4  A    between atoms: C_24  and  C_25
REMARK                            x       y       z     vdW  Elec       q    Type
REMARK                         _______ _______ _______ _____ _____    ______ ____
ROOT
ATOM      1  O   UNL     1       6.017   3.387  15.499  0.00  0.00    +0.000 OA
ATOM      2  C   UNL     1       6.454   4.483  15.814  0.00  0.00    +0.000 C 
ATOM      3  O   UNL     1       7.339   5.163  15.025  0.00  0.00    +0.000 OA
ATOM      4  C   UNL     1       7.811   6.293  15.756  0.00  0.00    +0.000 C 
ATOM      5  C   UNL     1       6.794   6.518  16.863  0.00  0.00    +0.000 C 
ATOM      6  N   UNL     1       6.151   5.219  16.952  0.00  0.00    +0.000 N 
ATOM      7  C   UNL     1       5.152   4.904  17.857  0.00  0.00    +0.000 A 
ATOM      8  C   UNL     1       5.077   3.450  18.220  0.00  0.00    +0.000 A 
ATOM      9  C   UNL     1       4.224   3.141  19.202  0.00  0.00    +0.000 A 
ATOM     10  N   UNL     1       3.426   4.118  19.774  0.00  0.00    +0.000 N 
ATOM     11  N   UNL     1       2.539   3.950  20.781  0.00  0.00    +0.000 NA
ATOM     12  C   UNL     1       1.956   5.140  20.901  0.00  0.00    +0.000 A 
ATOM     13  C   UNL     1       2.457   6.099  19.994  0.00  0.00    +0.000 A 
ATOM     14  C   UNL     1       3.480   5.445  19.320  0.00  0.00    +0.000 A 
ATOM     15  N   UNL     1       4.415   5.843  18.386  0.00  0.00    +0.000 NA
ENDROOT
BRANCH  13  16
ATOM     16  C   UNL     1       2.008   7.467  19.800  0.00  0.00    +0.000 A 
ATOM     17  C   UNL     1       1.281   8.114  20.809  0.00  0.00    +0.000 A 
ATOM     18  C   UNL     1       0.758   9.397  20.603  0.00  0.00    +0.000 A 
ATOM     19  C   UNL     1       0.941  10.063  19.380  0.00  0.00    +0.000 A 
ATOM     20  C   UNL     1       1.663   9.404  18.380  0.00  0.00    +0.000 A 
ATOM     21  F   UNL     1       1.864   9.969  17.180  0.00  0.00    +0.000 F 
ATOM     22  C   UNL     1       2.193   8.125  18.581  0.00  0.00    +0.000 A 
BRANCH  19  23
ATOM     23  C   UNL     1       0.382  11.396  19.178  0.00  0.00    +0.000 A 
ATOM     24  N   UNL     1       1.154  12.535  19.096  0.00  0.00    +0.000 NA
ATOM     25  C   UNL     1       0.284  13.498  18.918  0.00  0.00    +0.000 A 
ATOM     26  N   UNL     1      -0.964  12.973  18.896  0.00  0.00    +0.000 N 
ATOM     27  N   UNL     1      -0.936  11.642  19.056  0.00  0.00    +0.000 NA
ATOM     28  H   UNL     1      -1.855  13.443  18.780  0.00  0.00    +0.000 HD
ENDBRANCH  19  23
ENDBRANCH  13  16
BRANCH   5  29
ATOM     29  C   UNL     1       7.474   6.943  18.177  0.00  0.00    +0.000 C 
BRANCH  29  30
ATOM     30  C   UNL     1       8.025   8.353  18.214  0.00  0.00    +0.000 A 
ATOM     31  C   UNL     1       7.542   9.339  17.345  0.00  0.00    +0.000 A 
ATOM     32  C   UNL     1       7.988  10.661  17.457  0.00  0.00    +0.000 A 
ATOM     33  C   UNL     1       8.918  11.009  18.434  0.00  0.00    +0.000 A 
ATOM     34  C   UNL     1       9.422  10.033  19.289  0.00  0.00    +0.000 A 
ATOM     35  C   UNL     1       8.981   8.712  19.178  0.00  0.00    +0.000 A 
ENDBRANCH  29  30
ENDBRANCH   5  29
TORSDOF 4
ENDMDL
MODEL 5
REMARK VINA RESULT:      -8.3      4.065      5.682
REMARK  Name = 
REMARK  4 active torsions:
REMARK  status: ('A' for Active; 'I' for Inactive)
REMARK    1  A    between atoms: C_5  and  C_6
REMARK    2  A    between atoms: C_6  and  C_7
REMARK    3  A    between atoms: C_20  and  C_21
REMARK    4  A    between atoms: C_24  and  C_25
REMARK                            x       y       z     vdW  Elec       q    Type
REMARK                         _______ _______ _______ _____ _____    ______ ____
ROOT
ATOM      1  O   UNL     1       1.472   4.592  20.634  0.00  0.00    +0.000 OA
ATOM      2  C   UNL     1       1.495   5.797  20.435  0.00  0.00    +0.000 C 
ATOM      3  O   UNL     1       0.752   6.667  21.183  0.00  0.00    +0.000 OA
ATOM      4  C   UNL     1       0.835   7.957  20.580  0.00  0.00    +0.000 C 
ATOM      5  C   UNL     1       2.062   7.911  19.684  0.00  0.00    +0.000 C 
ATOM      6  N   UNL     1       2.240   6.483  19.486  0.00  0.00    +0.000 N 
ATOM      7  C   UNL     1       3.232   5.923  18.699  0.00  0.00    +0.000 A 
ATOM      8  C   UNL     1       2.887   4.581  18.125  0.00  0.00    +0.000 A 
ATOM      9  C   UNL     1       3.761   4.085  17.243  0.00  0.00    +0.000 A 
ATOM     10  N   UNL     1       4.934   4.765  16.958  0.00  0.00    +0.000 N 
ATOM     11  N   UNL     1       5.891   4.391  16.078  0.00  0.00    +0.000 NA
ATOM     12  C   UNL     1       6.848   5.301  16.236  0.00  0.00    +0.000 A 
ATOM     13  C   UNL     1       6.530   6.283  17.200  0.00  0.00    +0.000 A 
ATOM     14  C   UNL     1       5.238   5.974  17.604  0.00  0.00    +0.000 A 
ATOM     15  N   UNL     1       4.327   6.585  18.441  0.00  0.00    +0.000 NA
ENDROOT
BRANCH  13  16
ATOM     16  C   UNL     1       7.363   7.375  17.673  0.00  0.00    +0.000 A 
ATOM     17  C   UNL     1       8.285   7.155  18.706  0.00  0.00    +0.000 A 
ATOM     18  C   UNL     1       9.027   8.216  19.240  0.00  0.00    +0.000 A 
ATOM     19  C   UNL     1       8.862   9.526  18.761  0.00  0.00    +0.000 A 
ATOM     20  C   UNL     1       7.935   9.732  17.734  0.00  0.00    +0.000 A 
ATOM     21  F   UNL     1       7.710  10.957  17.236  0.00  0.00    +0.000 F 
ATOM     22  C   UNL     1       7.195   8.676  17.192  0.00  0.00    +0.000 A 
BRANCH  19  23
ATOM     23  C   UNL     1       9.638  10.622  19.333  0.00  0.00    +0.000 A 
ATOM     24  N   UNL     1       9.482  11.062  20.630  0.00  0.00    +0.000 NA
ATOM     25  C   UNL     1      10.347  12.040  20.740  0.00  0.00    +0.000 A 
ATOM     26  N   UNL     1      11.000  12.193  19.563  0.00  0.00    +0.000 N 
ATOM     27  N   UNL     1      10.574  11.307  18.651  0.00  0.00    +0.000 NA
ATOM     28  H   UNL     1      11.723  12.858  19.314  0.00  0.00    +0.000 HD
ENDBRANCH  19  23
ENDBRANCH  13  16
BRANCH   5  29
ATOM     29  C   UNL     1       1.831   8.677  18.369  0.00  0.00    +0.000 C 
BRANCH  29  30
ATOM     30  C   UNL     1       0.912   9.877  18.451  0.00  0.00    +0.000 A 
ATOM     31  C   UNL     1      -0.421   9.795  18.033  0.00  0.00    +0.000 A 
ATOM     32  C   UNL     1      -1.286  10.881  18.208  0.00  0.00    +0.000 A 
ATOM     33  C   UNL     1      -0.828  12.056  18.801  0.00  0.00    +0.000 A 
ATOM     34  C   UNL     1       0.501  12.157  19.201  0.00  0.00    +0.000 A 
ATOM     35  C   UNL     1       1.367  11.076  19.024  0.00  0.00    +0.000 A 
ENDBRANCH  29  30
ENDBRANCH   5  29
TORSDOF 4
ENDMDL
MODEL 6
REMARK VINA RESULT:      -8.3      4.234      6.452
REMARK  Name = 
REMARK  4 active torsions:
REMARK  status: ('A' for Active; 'I' for Inactive)
REMARK    1  A    between atoms: C_5  and  C_6
REMARK    2  A    between atoms: C_6  and  C_7
REMARK    3  A    between atoms: C_20  and  C_21
REMARK    4  A    between atoms: C_24  and  C_25
REMARK                            x       y       z     vdW  Elec       q    Type
REMARK                         _______ _______ _______ _____ _____    ______ ____
ROOT
ATOM      1  O   UNL     1       2.596   2.758  20.108  0.00  0.00    +0.000 OA
ATOM      2  C   UNL     1       2.402   3.960  20.212  0.00  0.00    +0.000 C 
ATOM      3  O   UNL     1       1.617   4.482  21.201  0.00  0.00    +0.000 OA
ATOM      4  C   UNL     1       1.423   5.870  20.930  0.00  0.00    +0.000 C 
ATOM      5  C   UNL     1       2.534   6.258  19.969  0.00  0.00    +0.000 C 
ATOM      6  N   UNL     1       2.917   4.972  19.413  0.00  0.00    +0.000 N 
ATOM      7  C   UNL     1       3.892   4.800  18.446  0.00  0.00    +0.000 A 
ATOM      8  C   UNL     1       3.707   3.587  17.583  0.00  0.00    +0.000 A 
ATOM      9  C   UNL     1       4.546   3.477  16.548  0.00  0.00    +0.000 A 
ATOM     10  N   UNL     1       5.555   4.407  16.360  0.00  0.00    +0.000 N 
ATOM     11  N   UNL     1       6.456   4.429  15.351  0.00  0.00    +0.000 NA
ATOM     12  C   UNL     1       7.266   5.437  15.662  0.00  0.00    +0.000 A 
ATOM     13  C   UNL     1       6.902   6.094  16.859  0.00  0.00    +0.000 A 
ATOM     14  C   UNL     1       5.730   5.469  17.261  0.00  0.00    +0.000 A 
ATOM     15  N   UNL     1       4.831   5.693  18.284  0.00  0.00    +0.000 NA
ENDROOT
BRANCH  13  16
ATOM     16  C   UNL     1       7.595   7.181  17.528  0.00  0.00    +0.000 A 
ATOM     17  C   UNL     1       8.291   6.938  18.721  0.00  0.00    +0.000 A 
ATOM     18  C   UNL     1       8.884   7.989  19.430  0.00  0.00    +0.000 A 
ATOM     19  C   UNL     1       8.791   9.313  18.970  0.00  0.00    +0.000 A 
ATOM     20  C   UNL     1       8.090   9.543  17.782  0.00  0.00    +0.000 A 
ATOM     21  F   UNL     1       7.943  10.782  17.289  0.00  0.00    +0.000 F 
ATOM     22  C   UNL     1       7.500   8.496  17.066  0.00  0.00    +0.000 A 
BRANCH  19  23
ATOM     23  C   UNL     1       9.408  10.399  19.725  0.00  0.00    +0.000 A 
ATOM     24  N   UNL     1      10.434  11.175  19.232  0.00  0.00    +0.000 NA
ATOM     25  C   UNL     1      10.694  12.016  20.203  0.00  0.00    +0.000 A 
ATOM     26  N   UNL     1       9.866  11.763  21.244  0.00  0.00    +0.000 N 
ATOM     27  N   UNL     1       9.037  10.745  20.972  0.00  0.00    +0.000 NA
ATOM     28  H   UNL     1       9.809  12.226  22.144  0.00  0.00    +0.000 HD
ENDBRANCH  19  23
ENDBRANCH  13  16
BRANCH   5  29
ATOM     29  C   UNL     1       2.038   7.251  18.903  0.00  0.00    +0.000 C 
BRANCH  29  30
ATOM     30  C   UNL     1       1.502   8.568  19.420  0.00  0.00    +0.000 A 
ATOM     31  C   UNL     1       1.020   9.546  18.541  0.00  0.00    +0.000 A 
ATOM     32  C   UNL     1       0.434  10.716  19.037  0.00  0.00    +0.000 A 
ATOM     33  C   UNL     1       0.327  10.921  20.412  0.00  0.00    +0.000 A 
ATOM     34  C   UNL     1       0.822   9.967  21.294  0.00  0.00    +0.000 A 
ATOM     35  C   UNL     1       1.410   8.799  20.802  0.00  0.00    +0.000 A 
ENDBRANCH  29  30
ENDBRANCH   5  29
TORSDOF 4
ENDMDL
MODEL 7
REMARK VINA RESULT:      -8.2      4.025      8.466
REMARK  Name = 
REMARK  4 active torsions:
REMARK  status: ('A' for Active; 'I' for Inactive)
REMARK    1  A    between atoms: C_5  and  C_6
REMARK    2  A    between atoms: C_6  and  C_7
REMARK    3  A    between atoms: C_20  and  C_21
REMARK    4  A    between atoms: C_24  and  C_25
REMARK                            x       y       z     vdW  Elec       q    Type
REMARK                         _______ _______ _______ _____ _____    ______ ____
ROOT
ATOM      1  O   UNL     1       5.998   3.316  15.593  0.00  0.00    +0.000 OA
ATOM      2  C   UNL     1       6.442   4.416  15.884  0.00  0.00    +0.000 C 
ATOM      3  O   UNL     1       7.364   5.054  15.102  0.00  0.00    +0.000 OA
ATOM      4  C   UNL     1       7.829   6.203  15.808  0.00  0.00    +0.000 C 
ATOM      5  C   UNL     1       6.779   6.483  16.870  0.00  0.00    +0.000 C 
ATOM      6  N   UNL     1       6.112   5.197  16.984  0.00  0.00    +0.000 N 
ATOM      7  C   UNL     1       5.079   4.930  17.865  0.00  0.00    +0.000 A 
ATOM      8  C   UNL     1       4.968   3.492  18.276  0.00  0.00    +0.000 A 
ATOM      9  C   UNL     1       4.077   3.231  19.239  0.00  0.00    +0.000 A 
ATOM     10  N   UNL     1       3.276   4.240  19.747  0.00  0.00    +0.000 N 
ATOM     11  N   UNL     1       2.353   4.122  20.730  0.00  0.00    +0.000 NA
ATOM     12  C   UNL     1       1.786   5.324  20.787  0.00  0.00    +0.000 A 
ATOM     13  C   UNL     1       2.333   6.242  19.863  0.00  0.00    +0.000 A 
ATOM     14  C   UNL     1       3.367   5.549  19.249  0.00  0.00    +0.000 A 
ATOM     15  N   UNL     1       4.339   5.899  18.334  0.00  0.00    +0.000 NA
ENDROOT
BRANCH  13  16
ATOM     16  C   UNL     1       1.913   7.608  19.606  0.00  0.00    +0.000 A 
ATOM     17  C   UNL     1       2.155   8.190  18.353  0.00  0.00    +0.000 A 
ATOM     18  C   UNL     1       1.844   9.535  18.117  0.00  0.00    +0.000 A 
ATOM     19  C   UNL     1       1.290  10.336  19.128  0.00  0.00    +0.000 A 
ATOM     20  C   UNL     1       1.059   9.745  20.375  0.00  0.00    +0.000 A 
ATOM     21  F   UNL     1       0.549  10.451  21.396  0.00  0.00    +0.000 F 
ATOM     22  C   UNL     1       1.362   8.401  20.616  0.00  0.00    +0.000 A 
BRANCH  19  23
ATOM     23  C   UNL     1       0.979  11.738  18.869  0.00  0.00    +0.000 A 
ATOM     24  N   UNL     1      -0.308  12.218  18.751  0.00  0.00    +0.000 NA
ATOM     25  C   UNL     1      -0.151  13.499  18.524  0.00  0.00    +0.000 A 
ATOM     26  N   UNL     1       1.172  13.789  18.499  0.00  0.00    +0.000 N 
ATOM     27  N   UNL     1       1.915  12.694  18.717  0.00  0.00    +0.000 NA
ATOM     28  H   UNL     1       1.630  14.680  18.345  0.00  0.00    +0.000 HD
ENDBRANCH  19  23
ENDBRANCH  13  16
BRANCH   5  29
ATOM     29  C   UNL     1       7.421   6.945  18.191  0.00  0.00    +0.000 C 
BRANCH  29  30
ATOM     30  C   UNL     1       7.991   8.347  18.197  0.00  0.00    +0.000 A 
ATOM     31  C   UNL     1       7.485   9.335  17.344  0.00  0.00    +0.000 A 
ATOM     32  C   UNL     1       7.952  10.652  17.430  0.00  0.00    +0.000 A 
ATOM     33  C   UNL     1       8.927  10.992  18.366  0.00  0.00    +0.000 A 
ATOM     34  C   UNL     1       9.453  10.014  19.204  0.00  0.00    +0.000 A 
ATOM     35  C   UNL     1       8.991   8.699  19.118  0.00  0.00    +0.000 A 
ENDBRANCH  29  30
ENDBRANCH   5  29
TORSDOF 4
ENDMDL
MODEL 8
REMARK VINA RESULT:      -8.1      3.811      5.811
REMARK  Name = 
REMARK  4 active torsions:
REMARK  status: ('A' for Active; 'I' for Inactive)
REMARK    1  A    between atoms: C_5  and  C_6
REMARK    2  A    between atoms: C_6  and  C_7
REMARK    3  A    between atoms: C_20  and  C_21
REMARK    4  A    between atoms: C_24  and  C_25
REMARK                            x       y       z     vdW  Elec       q    Type
REMARK                         _______ _______ _______ _____ _____    ______ ____
ROOT
ATOM      1  O   UNL     1       3.086  15.468  22.732  0.00  0.00    +0.000 OA
ATOM      2  C   UNL     1       3.469  15.254  21.592  0.00  0.00    +0.000 C 
ATOM      3  O   UNL     1       4.598  15.835  21.088  0.00  0.00    +0.000 OA
ATOM      4  C   UNL     1       4.659  15.553  19.691  0.00  0.00    +0.000 C 
ATOM      5  C   UNL     1       3.739  14.363  19.473  0.00  0.00    +0.000 C 
ATOM      6  N   UNL     1       2.885  14.421  20.647  0.00  0.00    +0.000 N 
ATOM      7  C   UNL     1       1.843  13.545  20.897  0.00  0.00    +0.000 A 
ATOM      8  C   UNL     1       0.744  14.111  21.747  0.00  0.00    +0.000 A 
ATOM      9  C   UNL     1      -0.341  13.341  21.880  0.00  0.00    +0.000 A 
ATOM     10  N   UNL     1      -0.381  12.079  21.312  0.00  0.00    +0.000 N 
ATOM     11  N   UNL     1      -1.416  11.208  21.351  0.00  0.00    +0.000 NA
ATOM     12  C   UNL     1      -0.939  10.113  20.764  0.00  0.00    +0.000 A 
ATOM     13  C   UNL     1       0.395  10.254  20.322  0.00  0.00    +0.000 A 
ATOM     14  C   UNL     1       0.722  11.573  20.607  0.00  0.00    +0.000 A 
ATOM     15  N   UNL     1       1.825  12.361  20.347  0.00  0.00    +0.000 NA
ENDROOT
BRANCH  13  16
ATOM     16  C   UNL     1       1.244   9.249  19.708  0.00  0.00    +0.000 A 
ATOM     17  C   UNL     1       1.629   9.384  18.366  0.00  0.00    +0.000 A 
ATOM     18  C   UNL     1       2.368   8.378  17.730  0.00  0.00    +0.000 A 
ATOM     19  C   UNL     1       2.734   7.208  18.415  0.00  0.00    +0.000 A 
ATOM     20  C   UNL     1       2.339   7.084  19.751  0.00  0.00    +0.000 A 
ATOM     21  F   UNL     1       2.636   5.989  20.466  0.00  0.00    +0.000 F 
ATOM     22  C   UNL     1       1.606   8.087  20.394  0.00  0.00    +0.000 A 
BRANCH  19  23
ATOM     23  C   UNL     1       3.497   6.166  17.735  0.00  0.00    +0.000 A 
ATOM     24  N   UNL     1       4.741   6.378  17.182  0.00  0.00    +0.000 NA
ATOM     25  C   UNL     1       5.070   5.213  16.680  0.00  0.00    +0.000 A 
ATOM     26  N   UNL     1       4.070   4.330  16.913  0.00  0.00    +0.000 N 
ATOM     27  N   UNL     1       3.059   4.902  17.581  0.00  0.00    +0.000 NA
ATOM     28  H   UNL     1       4.007   3.351  16.653  0.00  0.00    +0.000 HD
ENDBRANCH  19  23
ENDBRANCH  13  16
BRANCH   5  29
ATOM     29  C   UNL     1       2.956  14.486  18.153  0.00  0.00    +0.000 C 
BRANCH  29  30
ATOM     30  C   UNL     1       2.176  15.769  17.962  0.00  0.00    +0.000 A 
ATOM     31  C   UNL     1       0.997  16.010  18.678  0.00  0.00    +0.000 A 
ATOM     32  C   UNL     1       0.341  17.241  18.566  0.00  0.00    +0.000 A 
ATOM     33  C   UNL     1       0.854  18.240  17.741  0.00  0.00    +0.000 A 
ATOM     34  C   UNL     1       2.013  18.004  17.008  0.00  0.00    +0.000 A 
ATOM     35  C   UNL     1       2.668  16.775  17.114  0.00  0.00    +0.000 A 
ENDBRANCH  29  30
ENDBRANCH   5  29
TORSDOF 4
ENDMDL
MODEL 9
REMARK VINA RESULT:      -8.0      3.814      6.221
REMARK  Name = 
REMARK  4 active torsions:
REMARK  status: ('A' for Active; 'I' for Inactive)
REMARK    1  A    between atoms: C_5  and  C_6
REMARK    2  A    between atoms: C_6  and  C_7
REMARK    3  A    between atoms: C_20  and  C_21
REMARK    4  A    between atoms: C_24  and  C_25
REMARK                            x       y       z     vdW  Elec       q    Type
REMARK                         _______ _______ _______ _____ _____    ______ ____
ROOT
ATOM      1  O   UNL     1       3.328  15.713  22.796  0.00  0.00    +0.000 OA
ATOM      2  C   UNL     1       3.654  15.370  21.671  0.00  0.00    +0.000 C 
ATOM      3  O   UNL     1       4.822  15.787  21.096  0.00  0.00    +0.000 OA
ATOM      4  C   UNL     1       4.812  15.390  19.726  0.00  0.00    +0.000 C 
ATOM      5  C   UNL     1       3.769  14.289  19.627  0.00  0.00    +0.000 C 
ATOM      6  N   UNL     1       2.960  14.530  20.809  0.00  0.00    +0.000 N 
ATOM      7  C   UNL     1       1.842  13.790  21.152  0.00  0.00    +0.000 A 
ATOM      8  C   UNL     1       0.832  14.534  21.975  0.00  0.00    +0.000 A 
ATOM      9  C   UNL     1      -0.322  13.896  22.194  0.00  0.00    +0.000 A 
ATOM     10  N   UNL     1      -0.508  12.603  21.733  0.00  0.00    +0.000 N 
ATOM     11  N   UNL     1      -1.625  11.851  21.865  0.00  0.00    +0.000 NA
ATOM     12  C   UNL     1      -1.281  10.670  21.359  0.00  0.00    +0.000 A 
ATOM     13  C   UNL     1       0.047  10.634  20.880  0.00  0.00    +0.000 A 
ATOM     14  C   UNL     1       0.516  11.930  21.049  0.00  0.00    +0.000 A 
ATOM     15  N   UNL     1       1.686  12.575  20.702  0.00  0.00    +0.000 NA
ENDROOT
BRANCH  13  16
ATOM     16  C   UNL     1       0.771   9.500  20.333  0.00  0.00    +0.000 A 
ATOM     17  C   UNL     1       1.103   8.418  21.160  0.00  0.00    +0.000 A 
ATOM     18  C   UNL     1       1.882   7.360  20.675  0.00  0.00    +0.000 A 
ATOM     19  C   UNL     1       2.357   7.359  19.353  0.00  0.00    +0.000 A 
ATOM     20  C   UNL     1       2.023   8.448  18.540  0.00  0.00    +0.000 A 
ATOM     21  F   UNL     1       2.453   8.528  17.272  0.00  0.00    +0.000 F 
ATOM     22  C   UNL     1       1.240   9.505  19.017  0.00  0.00    +0.000 A 
BRANCH  19  23
ATOM     23  C   UNL     1       3.174   6.254  18.865  0.00  0.00    +0.000 A 
ATOM     24  N   UNL     1       3.885   5.414  19.695  0.00  0.00    +0.000 NA
ATOM     25  C   UNL     1       4.472   4.577  18.876  0.00  0.00    +0.000 A 
ATOM     26  N   UNL     1       4.138   4.892  17.602  0.00  0.00    +0.000 N 
ATOM     27  N   UNL     1       3.315   5.950  17.561  0.00  0.00    +0.000 NA
ATOM     28  H   UNL     1       4.423   4.448  16.736  0.00  0.00    +0.000 HD
ENDBRANCH  19  23
ENDBRANCH  13  16
BRANCH   5  29
ATOM     29  C   UNL     1       2.965  14.389  18.318  0.00  0.00    +0.000 C 
BRANCH  29  30
ATOM     30  C   UNL     1       2.357  15.741  18.013  0.00  0.00    +0.000 A 
ATOM     31  C   UNL     1       2.942  16.601  17.075  0.00  0.00    +0.000 A 
ATOM     32  C   UNL     1       2.315  17.803  16.730  0.00  0.00    +0.000 A 
ATOM     33  C   UNL     1       1.102  18.158  17.316  0.00  0.00    +0.000 A 
ATOM     34  C   UNL     1       0.522  17.322  18.265  0.00  0.00    +0.000 A 
ATOM     35  C   UNL     1       1.147  16.122  18.614  0.00  0.00    +0.000 A 
ENDBRANCH  29  30
ENDBRANCH   5  29
TORSDOF 4
ENDMDL
