MODEL 1
REMARK VINA RESULT:      -9.0      0.000      0.000
REMARK  Name = 
REMARK  12 active torsions:
REMARK  status: ('A' for Active; 'I' for Inactive)
REMARK    1  A    between atoms: C_1  and  C_2
REMARK    2  A    between atoms: C_2  and  C_3
REMARK    3  A    between atoms: C_4  and  C_5
REMARK    4  A    between atoms: C_5  and  O_7
REMARK    5  A    between atoms: O_7  and  C_8
REMARK    6  A    between atoms: C_8  and  C_9
REMARK    7  A    between atoms: C_8  and  C_14
REMARK    8  A    between atoms: C_9  and  C_10
REMARK    9  A    between atoms: C_11  and  C_12
REMARK   10  A    between atoms: C_11  and  C_13
REMARK   11  A    between atoms: C_19  and  O_20
REMARK   12  A    between atoms: C_23  and  O_24
REMARK                            x       y       z     vdW  Elec       q    Type
REMARK                         _______ _______ _______ _____ _____    ______ ____
ROOT
ATOM      1  C   UNL     1       4.745   4.933  16.947  0.00  0.00    +0.000 C 
ATOM      2  C   UNL     1       4.451   6.242  16.923  0.00  0.00    +0.000 C 
ATOM      3  C   UNL     1       3.516   6.894  17.847  0.00  0.00    +0.000 C 
ATOM      4  O   UNL     1       3.223   8.077  17.705  0.00  0.00    +0.000 OA
ATOM      5  C   UNL     1       2.928   6.091  18.918  0.00  0.00    +0.000 A 
ATOM      6  C   UNL     1       2.078   6.709  19.851  0.00  0.00    +0.000 A 
ATOM      7  C   UNL     1       1.499   5.968  20.873  0.00  0.00    +0.000 A 
ATOM      8  C   UNL     1       1.753   4.604  20.961  0.00  0.00    +0.000 A 
ATOM      9  C   UNL     1       2.595   3.987  20.029  0.00  0.00    +0.000 A 
ATOM     10  C   UNL     1       3.205   4.723  18.999  0.00  0.00    +0.000 A 
ATOM     11  C   UNL     1       4.109   4.080  17.996  0.00  0.00    +0.000 C 
ATOM     12  O   UNL     1       4.329   2.876  18.008  0.00  0.00    +0.000 OA
ENDROOT
BRANCH   6  13
ATOM     13  O   UNL     1       1.764   8.041  19.823  0.00  0.00    +0.000 OA
ATOM     14  H   UNL     1       2.008   8.404  18.941  0.00  0.00    +0.000 HD
ENDBRANCH   6  13
BRANCH   9  15
ATOM     15  O   UNL     1       2.806   2.642  20.150  0.00  0.00    +0.000 OA
ATOM     16  H   UNL     1       3.745   2.453  20.314  0.00  0.00    +0.000 HD
ENDBRANCH   9  15
BRANCH   1  17
ATOM     17  C   UNL     1       5.613   4.229  15.893  0.00  0.00    +0.000 C 
BRANCH  17  18
ATOM     18  O   UNL     1       7.048   4.316  16.135  0.00  0.00    +0.000 OA
BRANCH  18  19
ATOM     19  C   UNL     1       7.515   4.912  17.244  0.00  0.00    +0.000 C 
ATOM     20  O   UNL     1       7.827   4.339  18.282  0.00  0.00    +0.000 OA
BRANCH  19  22
ATOM     21  C   UNL     1       7.887   7.314  18.037  0.00  0.00    +0.000 C 
ATOM     22  C   UNL     1       7.717   6.384  17.073  0.00  0.00    +0.000 C 
BRANCH  21  24
ATOM     23  C   UNL     1       8.778   9.677  18.546  0.00  0.00    +0.000 C 
ATOM     24  C   UNL     1       7.818   8.798  17.761  0.00  0.00    +0.000 C 
ENDBRANCH  21  24
ENDBRANCH  19  22
ENDBRANCH  18  19
ENDBRANCH  17  18
BRANCH  17  25
ATOM     25  C   UNL     1       5.262   4.515  14.397  0.00  0.00    +0.000 C 
BRANCH  25  26
ATOM     26  C   UNL     1       6.167   3.774  13.422  0.00  0.00    +0.000 C 
ATOM     27  C   UNL     1       5.839   3.216  12.238  0.00  0.00    +0.000 C 
ATOM     28  C   UNL     1       4.491   3.307  11.574  0.00  0.00    +0.000 C 
ATOM     29  C   UNL     1       6.844   2.403  11.458  0.00  0.00    +0.000 C 
ENDBRANCH  25  26
ENDBRANCH  17  25
ENDBRANCH   1  17
TORSDOF 9
ENDMDL
MODEL 2
REMARK VINA RESULT:      -9.0      1.129      1.404
REMARK  Name = 
REMARK  12 active torsions:
REMARK  status: ('A' for Active; 'I' for Inactive)
REMARK    1  A    between atoms: C_1  and  C_2
REMARK    2  A    between atoms: C_2  and  C_3
REMARK    3  A    between atoms: C_4  and  C_5
REMARK    4  A    between atoms: C_5  and  O_7
REMARK    5  A    between atoms: O_7  and  C_8
REMARK    6  A    between atoms: C_8  and  C_9
REMARK    7  A    between atoms: C_8  and  C_14
REMARK    8  A    between atoms: C_9  and  C_10
REMARK    9  A    between atoms: C_11  and  C_12
REMARK   10  A    between atoms: C_11  and  C_13
REMARK   11  A    between atoms: C_19  and  O_20
REMARK   12  A    between atoms: C_23  and  O_24
REMARK                            x       y       z     vdW  Elec       q    Type
REMARK                         _______ _______ _______ _____ _____    ______ ____
ROOT
ATOM      1  C   UNL     1       4.957   4.867  17.280  0.00  0.00    +0.000 C 
ATOM      2  C   UNL     1       4.523   6.022  17.806  0.00  0.00    +0.000 C 
ATOM      3  C   UNL     1       3.388   6.132  18.731  0.00  0.00    +0.000 C 
ATOM      4  O   UNL     1       2.987   7.232  19.096  0.00  0.00    +0.000 OA
ATOM      5  C   UNL     1       2.737   4.901  19.177  0.00  0.00    +0.000 A 
ATOM      6  C   UNL     1       1.689   4.979  20.109  0.00  0.00    +0.000 A 
ATOM      7  C   UNL     1       1.048   3.827  20.543  0.00  0.00    +0.000 A 
ATOM      8  C   UNL     1       1.439   2.591  20.039  0.00  0.00    +0.000 A 
ATOM      9  C   UNL     1       2.480   2.513  19.107  0.00  0.00    +0.000 A 
ATOM     10  C   UNL     1       3.154   3.666  18.669  0.00  0.00    +0.000 A 
ATOM     11  C   UNL     1       4.269   3.601  17.675  0.00  0.00    +0.000 C 
ATOM     12  O   UNL     1       4.620   2.542  17.172  0.00  0.00    +0.000 OA
ENDROOT
BRANCH   6  13
ATOM     13  O   UNL     1       1.232   6.156  20.639  0.00  0.00    +0.000 OA
ATOM     14  H   UNL     1       0.345   5.998  21.037  0.00  0.00    +0.000 HD
ENDBRANCH   6  13
BRANCH   9  15
ATOM     15  O   UNL     1       2.822   1.278  18.631  0.00  0.00    +0.000 OA
ATOM     16  H   UNL     1       2.586   0.585  19.270  0.00  0.00    +0.000 HD
ENDBRANCH   9  15
BRANCH   1  17
ATOM     17  C   UNL     1       6.052   4.771  16.206  0.00  0.00    +0.000 C 
BRANCH  17  18
ATOM     18  O   UNL     1       7.327   5.366  16.589  0.00  0.00    +0.000 OA
BRANCH  18  19
ATOM     19  C   UNL     1       7.635   5.539  17.884  0.00  0.00    +0.000 C 
ATOM     20  O   UNL     1       7.788   4.640  18.704  0.00  0.00    +0.000 OA
BRANCH  19  22
ATOM     21  C   UNL     1       7.627   8.065  17.488  0.00  0.00    +0.000 C 
ATOM     22  C   UNL     1       7.875   6.971  18.240  0.00  0.00    +0.000 C 
BRANCH  21  24
ATOM     23  C   UNL     1       9.068   9.519  19.053  0.00  0.00    +0.000 C 
ATOM     24  C   UNL     1       8.152   9.436  17.843  0.00  0.00    +0.000 C 
ENDBRANCH  21  24
ENDBRANCH  19  22
ENDBRANCH  18  19
ENDBRANCH  17  18
BRANCH  17  25
ATOM     25  C   UNL     1       5.640   5.174  14.753  0.00  0.00    +0.000 C 
BRANCH  25  26
ATOM     26  C   UNL     1       5.444   3.973  13.836  0.00  0.00    +0.000 C 
ATOM     27  C   UNL     1       6.100   3.680  12.694  0.00  0.00    +0.000 C 
ATOM     28  C   UNL     1       7.265   4.451  12.134  0.00  0.00    +0.000 C 
ATOM     29  C   UNL     1       5.684   2.507  11.839  0.00  0.00    +0.000 C 
ENDBRANCH  25  26
ENDBRANCH  17  25
ENDBRANCH   1  17
TORSDOF 9
ENDMDL
MODEL 3
REMARK VINA RESULT:      -8.9      1.453      5.456
REMARK  Name = 
REMARK  12 active torsions:
REMARK  status: ('A' for Active; 'I' for Inactive)
REMARK    1  A    between atoms: C_1  and  C_2
REMARK    2  A    between atoms: C_2  and  C_3
REMARK    3  A    between atoms: C_4  and  C_5
REMARK    4  A    between atoms: C_5  and  O_7
REMARK    5  A    between atoms: O_7  and  C_8
REMARK    6  A    between atoms: C_8  and  C_9
REMARK    7  A    between atoms: C_8  and  C_14
REMARK    8  A    between atoms: C_9  and  C_10
REMARK    9  A    between atoms: C_11  and  C_12
REMARK   10  A    between atoms: C_11  and  C_13
REMARK   11  A    between atoms: C_19  and  O_20
REMARK   12  A    between atoms: C_23  and  O_24
REMARK                            x       y       z     vdW  Elec       q    Type
REMARK                         _______ _______ _______ _____ _____    ______ ____
ROOT
ATOM      1  C   UNL     1       4.691   4.103  16.815  0.00  0.00    +0.000 C 
ATOM      2  C   UNL     1       4.369   2.865  17.219  0.00  0.00    +0.000 C 
ATOM      3  C   UNL     1       3.453   2.573  18.328  0.00  0.00    +0.000 C 
ATOM      4  O   UNL     1       3.279   1.418  18.705  0.00  0.00    +0.000 OA
ATOM      5  C   UNL     1       2.779   3.693  18.984  0.00  0.00    +0.000 A 
ATOM      6  C   UNL     1       1.853   3.433  20.007  0.00  0.00    +0.000 A 
ATOM      7  C   UNL     1       1.206   4.478  20.653  0.00  0.00    +0.000 A 
ATOM      8  C   UNL     1       1.491   5.790  20.291  0.00  0.00    +0.000 A 
ATOM      9  C   UNL     1       2.418   6.051  19.276  0.00  0.00    +0.000 A 
ATOM     10  C   UNL     1       3.070   5.006  18.598  0.00  0.00    +0.000 A 
ATOM     11  C   UNL     1       4.061   5.266  17.510  0.00  0.00    +0.000 C 
ATOM     12  O   UNL     1       4.376   6.404  17.186  0.00  0.00    +0.000 OA
ENDROOT
BRANCH   6  13
ATOM     13  O   UNL     1       1.530   2.172  20.434  0.00  0.00    +0.000 OA
ATOM     14  H   UNL     1       0.655   1.925  20.053  0.00  0.00    +0.000 HD
ENDBRANCH   6  13
BRANCH   9  15
ATOM     15  O   UNL     1       2.674   7.356  18.963  0.00  0.00    +0.000 OA
ATOM     16  H   UNL     1       1.846   7.850  18.835  0.00  0.00    +0.000 HD
ENDBRANCH   9  15
BRANCH   1  17
ATOM     17  C   UNL     1       5.755   4.407  15.749  0.00  0.00    +0.000 C 
BRANCH  17  18
ATOM     18  O   UNL     1       5.779   3.469  14.633  0.00  0.00    +0.000 OA
BRANCH  18  19
ATOM     19  C   UNL     1       5.900   3.915  13.373  0.00  0.00    +0.000 C 
ATOM     20  O   UNL     1       6.914   4.402  12.886  0.00  0.00    +0.000 OA
BRANCH  19  22
ATOM     21  C   UNL     1       4.575   2.988  11.392  0.00  0.00    +0.000 C 
ATOM     22  C   UNL     1       4.675   3.676  12.550  0.00  0.00    +0.000 C 
BRANCH  21  24
ATOM     23  C   UNL     1       3.100   4.331   9.762  0.00  0.00    +0.000 C 
ATOM     24  C   UNL     1       3.345   3.035  10.517  0.00  0.00    +0.000 C 
ENDBRANCH  21  24
ENDBRANCH  19  22
ENDBRANCH  18  19
ENDBRANCH  17  18
BRANCH  17  25
ATOM     25  C   UNL     1       7.195   4.720  16.272  0.00  0.00    +0.000 C 
BRANCH  25  26
ATOM     26  C   UNL     1       7.437   6.208  16.492  0.00  0.00    +0.000 C 
ATOM     27  C   UNL     1       7.677   6.851  17.653  0.00  0.00    +0.000 C 
ATOM     28  C   UNL     1       7.863   6.192  18.994  0.00  0.00    +0.000 C 
ATOM     29  C   UNL     1       7.766   8.357  17.702  0.00  0.00    +0.000 C 
ENDBRANCH  25  26
ENDBRANCH  17  25
ENDBRANCH   1  17
TORSDOF 9
ENDMDL
MODEL 4
REMARK VINA RESULT:      -8.7      0.997      2.603
REMARK  Name = 
REMARK  12 active torsions:
REMARK  status: ('A' for Active; 'I' for Inactive)
REMARK    1  A    between atoms: C_1  and  C_2
REMARK    2  A    between atoms: C_2  and  C_3
REMARK    3  A    between atoms: C_4  and  C_5
REMARK    4  A    between atoms: C_5  and  O_7
REMARK    5  A    between atoms: O_7  and  C_8
REMARK    6  A    between atoms: C_8  and  C_9
REMARK    7  A    between atoms: C_8  and  C_14
REMARK    8  A    between atoms: C_9  and  C_10
REMARK    9  A    between atoms: C_11  and  C_12
REMARK   10  A    between atoms: C_11  and  C_13
REMARK   11  A    between atoms: C_19  and  O_20
REMARK   12  A    between atoms: C_23  and  O_24
REMARK                            x       y       z     vdW  Elec       q    Type
REMARK                         _______ _______ _______ _____ _____    ______ ____
ROOT
ATOM      1  C   UNL     1       4.835   4.221  16.949  0.00  0.00    +0.000 C 
ATOM      2  C   UNL     1       4.502   2.963  17.275  0.00  0.00    +0.000 C 
ATOM      3  C   UNL     1       3.520   2.611  18.307  0.00  0.00    +0.000 C 
ATOM      4  O   UNL     1       3.336   1.439  18.618  0.00  0.00    +0.000 OA
ATOM      5  C   UNL     1       2.792   3.694  18.968  0.00  0.00    +0.000 A 
ATOM      6  C   UNL     1       1.804   3.377  19.916  0.00  0.00    +0.000 A 
ATOM      7  C   UNL     1       1.104   4.385  20.564  0.00  0.00    +0.000 A 
ATOM      8  C   UNL     1       1.396   5.716  20.282  0.00  0.00    +0.000 A 
ATOM      9  C   UNL     1       2.383   6.032  19.343  0.00  0.00    +0.000 A 
ATOM     10  C   UNL     1       3.090   5.025  18.662  0.00  0.00    +0.000 A 
ATOM     11  C   UNL     1       4.147   5.345  17.654  0.00  0.00    +0.000 C 
ATOM     12  O   UNL     1       4.468   6.500  17.403  0.00  0.00    +0.000 OA
ENDROOT
BRANCH   6  13
ATOM     13  O   UNL     1       1.469   2.096  20.262  0.00  0.00    +0.000 OA
ATOM     14  H   UNL     1       1.732   1.492  19.529  0.00  0.00    +0.000 HD
ENDBRANCH   6  13
BRANCH   9  15
ATOM     15  O   UNL     1       2.643   7.353  19.108  0.00  0.00    +0.000 OA
ATOM     16  H   UNL     1       3.473   7.458  18.613  0.00  0.00    +0.000 HD
ENDBRANCH   9  15
BRANCH   1  17
ATOM     17  C   UNL     1       5.962   4.585  15.970  0.00  0.00    +0.000 C 
BRANCH  17  18
ATOM     18  O   UNL     1       6.872   5.617  16.454  0.00  0.00    +0.000 OA
BRANCH  18  19
ATOM     19  C   UNL     1       7.561   5.436  17.592  0.00  0.00    +0.000 C 
ATOM     20  O   UNL     1       8.002   4.364  17.993  0.00  0.00    +0.000 OA
BRANCH  19  22
ATOM     21  C   UNL     1       8.002   7.947  17.787  0.00  0.00    +0.000 C 
ATOM     22  C   UNL     1       7.839   6.715  18.315  0.00  0.00    +0.000 C 
BRANCH  21  24
ATOM     23  C   UNL     1       8.632  10.444  17.856  0.00  0.00    +0.000 C 
ATOM     24  C   UNL     1       8.537   9.113  18.584  0.00  0.00    +0.000 C 
ENDBRANCH  21  24
ENDBRANCH  19  22
ENDBRANCH  18  19
ENDBRANCH  17  18
BRANCH  17  25
ATOM     25  C   UNL     1       5.543   4.835  14.486  0.00  0.00    +0.000 C 
BRANCH  25  26
ATOM     26  C   UNL     1       6.312   3.968  13.497  0.00  0.00    +0.000 C 
ATOM     27  C   UNL     1       5.845   3.346  12.395  0.00  0.00    +0.000 C 
ATOM     28  C   UNL     1       4.450   3.473  11.845  0.00  0.00    +0.000 C 
ATOM     29  C   UNL     1       6.726   2.415  11.597  0.00  0.00    +0.000 C 
ENDBRANCH  25  26
ENDBRANCH  17  25
ENDBRANCH   1  17
TORSDOF 9
ENDMDL
MODEL 5
REMARK VINA RESULT:      -8.7      1.517      5.369
REMARK  Name = 
REMARK  12 active torsions:
REMARK  status: ('A' for Active; 'I' for Inactive)
REMARK    1  A    between atoms: C_1  and  C_2
REMARK    2  A    between atoms: C_2  and  C_3
REMARK    3  A    between atoms: C_4  and  C_5
REMARK    4  A    between atoms: C_5  and  O_7
REMARK    5  A    between atoms: O_7  and  C_8
REMARK    6  A    between atoms: C_8  and  C_9
REMARK    7  A    between atoms: C_8  and  C_14
REMARK    8  A    between atoms: C_9  and  C_10
REMARK    9  A    between atoms: C_11  and  C_12
REMARK   10  A    between atoms: C_11  and  C_13
REMARK   11  A    between atoms: C_19  and  O_20
REMARK   12  A    between atoms: C_23  and  O_24
REMARK                            x       y       z     vdW  Elec       q    Type
REMARK                         _______ _______ _______ _____ _____    ______ ____
ROOT
ATOM      1  C   UNL     1       4.685   4.451  16.752  0.00  0.00    +0.000 C 
ATOM      2  C   UNL     1       4.349   3.169  16.955  0.00  0.00    +0.000 C 
ATOM      3  C   UNL     1       3.411   2.716  17.990  0.00  0.00    +0.000 C 
ATOM      4  O   UNL     1       3.224   1.518  18.180  0.00  0.00    +0.000 OA
ATOM      5  C   UNL     1       2.732   3.727  18.800  0.00  0.00    +0.000 A 
ATOM      6  C   UNL     1       1.786   3.319  19.754  0.00  0.00    +0.000 A 
ATOM      7  C   UNL     1       1.133   4.257  20.543  0.00  0.00    +0.000 A 
ATOM      8  C   UNL     1       1.433   5.607  20.393  0.00  0.00    +0.000 A 
ATOM      9  C   UNL     1       2.379   6.014  19.446  0.00  0.00    +0.000 A 
ATOM     10  C   UNL     1       3.037   5.081  18.626  0.00  0.00    +0.000 A 
ATOM     11  C   UNL     1       4.050   5.498  17.608  0.00  0.00    +0.000 C 
ATOM     12  O   UNL     1       4.377   6.670  17.470  0.00  0.00    +0.000 OA
ENDROOT
BRANCH   6  13
ATOM     13  O   UNL     1       1.448   2.011  19.975  0.00  0.00    +0.000 OA
ATOM     14  H   UNL     1       2.124   1.435  19.549  0.00  0.00    +0.000 HD
ENDBRANCH   6  13
BRANCH   9  15
ATOM     15  O   UNL     1       2.649   7.350  19.344  0.00  0.00    +0.000 OA
ATOM     16  H   UNL     1       2.760   7.748  20.224  0.00  0.00    +0.000 HD
ENDBRANCH   9  15
BRANCH   1  17
ATOM     17  C   UNL     1       5.770   4.908  15.765  0.00  0.00    +0.000 C 
BRANCH  17  18
ATOM     18  O   UNL     1       5.536   4.508  14.382  0.00  0.00    +0.000 OA
BRANCH  18  19
ATOM     19  C   UNL     1       6.516   4.607  13.471  0.00  0.00    +0.000 C 
ATOM     20  O   UNL     1       7.457   5.392  13.522  0.00  0.00    +0.000 OA
BRANCH  19  22
ATOM     21  C   UNL     1       5.309   2.931  11.964  0.00  0.00    +0.000 C 
ATOM     22  C   UNL     1       6.415   3.579  12.390  0.00  0.00    +0.000 C 
BRANCH  21  24
ATOM     23  C   UNL     1       6.635   0.893  11.114  0.00  0.00    +0.000 C 
ATOM     24  C   UNL     1       5.367   1.728  11.052  0.00  0.00    +0.000 C 
ENDBRANCH  21  24
ENDBRANCH  19  22
ENDBRANCH  18  19
ENDBRANCH  17  18
BRANCH  17  25
ATOM     25  C   UNL     1       7.252   4.659  16.195  0.00  0.00    +0.000 C 
BRANCH  25  26
ATOM     26  C   UNL     1       7.457   4.747  17.702  0.00  0.00    +0.000 C 
ATOM     27  C   UNL     1       7.708   5.843  18.447  0.00  0.00    +0.000 C 
ATOM     28  C   UNL     1       7.733   7.259  17.936  0.00  0.00    +0.000 C 
ATOM     29  C   UNL     1       8.014   5.727  19.920  0.00  0.00    +0.000 C 
ENDBRANCH  25  26
ENDBRANCH  17  25
ENDBRANCH   1  17
TORSDOF 9
ENDMDL
MODEL 6
REMARK VINA RESULT:      -8.7      1.483      5.416
REMARK  Name = 
REMARK  12 active torsions:
REMARK  status: ('A' for Active; 'I' for Inactive)
REMARK    1  A    between atoms: C_1  and  C_2
REMARK    2  A    between atoms: C_2  and  C_3
REMARK    3  A    between atoms: C_4  and  C_5
REMARK    4  A    between atoms: C_5  and  O_7
REMARK    5  A    between atoms: O_7  and  C_8
REMARK    6  A    between atoms: C_8  and  C_9
REMARK    7  A    between atoms: C_8  and  C_14
REMARK    8  A    between atoms: C_9  and  C_10
REMARK    9  A    between atoms: C_11  and  C_12
REMARK   10  A    between atoms: C_11  and  C_13
REMARK   11  A    between atoms: C_19  and  O_20
REMARK   12  A    between atoms: C_23  and  O_24
REMARK                            x       y       z     vdW  Elec       q    Type
REMARK                         _______ _______ _______ _____ _____    ______ ____
ROOT
ATOM      1  C   UNL     1       4.557   4.944  16.907  0.00  0.00    +0.000 C 
ATOM      2  C   UNL     1       4.305   3.633  16.785  0.00  0.00    +0.000 C 
ATOM      3  C   UNL     1       3.406   2.880  17.669  0.00  0.00    +0.000 C 
ATOM      4  O   UNL     1       3.298   1.663  17.557  0.00  0.00    +0.000 OA
ATOM      5  C   UNL     1       2.671   3.615  18.698  0.00  0.00    +0.000 A 
ATOM      6  C   UNL     1       1.761   2.925  19.515  0.00  0.00    +0.000 A 
ATOM      7  C   UNL     1       1.056   3.596  20.505  0.00  0.00    +0.000 A 
ATOM      8  C   UNL     1       1.268   4.958  20.695  0.00  0.00    +0.000 A 
ATOM      9  C   UNL     1       2.179   5.645  19.885  0.00  0.00    +0.000 A 
ATOM     10  C   UNL     1       2.888   4.986  18.865  0.00  0.00    +0.000 A 
ATOM     11  C   UNL     1       3.863   5.705  17.990  0.00  0.00    +0.000 C 
ATOM     12  O   UNL     1       4.114   6.893  18.147  0.00  0.00    +0.000 OA
ENDROOT
BRANCH   6  13
ATOM     13  O   UNL     1       1.509   1.584  19.404  0.00  0.00    +0.000 OA
ATOM     14  H   UNL     1       1.259   1.236  20.291  0.00  0.00    +0.000 HD
ENDBRANCH   6  13
BRANCH   9  15
ATOM     15  O   UNL     1       2.361   6.979  20.118  0.00  0.00    +0.000 OA
ATOM     16  H   UNL     1       2.152   7.499  19.324  0.00  0.00    +0.000 HD
ENDBRANCH   9  15
BRANCH   1  17
ATOM     17  C   UNL     1       5.603   5.698  16.071  0.00  0.00    +0.000 C 
BRANCH  17  18
ATOM     18  O   UNL     1       5.510   5.465  14.634  0.00  0.00    +0.000 OA
BRANCH  18  19
ATOM     19  C   UNL     1       6.546   4.936  13.964  0.00  0.00    +0.000 C 
ATOM     20  O   UNL     1       7.677   5.407  13.916  0.00  0.00    +0.000 OA
BRANCH  19  22
ATOM     21  C   UNL     1       6.086   3.347  12.014  0.00  0.00    +0.000 C 
ATOM     22  C   UNL     1       6.220   3.622  13.330  0.00  0.00    +0.000 C 
BRANCH  21  24
ATOM     23  C   UNL     1       6.488   0.989  11.058  0.00  0.00    +0.000 C 
ATOM     24  C   UNL     1       5.499   2.052  11.506  0.00  0.00    +0.000 C 
ENDBRANCH  21  24
ENDBRANCH  19  22
ENDBRANCH  18  19
ENDBRANCH  17  18
BRANCH  17  25
ATOM     25  C   UNL     1       7.081   5.626  16.574  0.00  0.00    +0.000 C 
BRANCH  25  26
ATOM     26  C   UNL     1       7.614   6.972  17.047  0.00  0.00    +0.000 C 
ATOM     27  C   UNL     1       8.050   7.311  18.278  0.00  0.00    +0.000 C 
ATOM     28  C   UNL     1       8.200   6.367  19.441  0.00  0.00    +0.000 C 
ATOM     29  C   UNL     1       8.425   8.736  18.605  0.00  0.00    +0.000 C 
ENDBRANCH  25  26
ENDBRANCH  17  25
ENDBRANCH   1  17
TORSDOF 9
ENDMDL
MODEL 7
REMARK VINA RESULT:      -8.4      1.531      4.967
REMARK  Name = 
REMARK  12 active torsions:
REMARK  status: ('A' for Active; 'I' for Inactive)
REMARK    1  A    between atoms: C_1  and  C_2
REMARK    2  A    between atoms: C_2  and  C_3
REMARK    3  A    between atoms: C_4  and  C_5
REMARK    4  A    between atoms: C_5  and  O_7
REMARK    5  A    between atoms: O_7  and  C_8
REMARK    6  A    between atoms: C_8  and  C_9
REMARK    7  A    between atoms: C_8  and  C_14
REMARK    8  A    between atoms: C_9  and  C_10
REMARK    9  A    between atoms: C_11  and  C_12
REMARK   10  A    between atoms: C_11  and  C_13
REMARK   11  A    between atoms: C_19  and  O_20
REMARK   12  A    between atoms: C_23  and  O_24
REMARK                            x       y       z     vdW  Elec       q    Type
REMARK                         _______ _______ _______ _____ _____    ______ ____
ROOT
ATOM      1  C   UNL     1       4.571   5.025  16.802  0.00  0.00    +0.000 C 
ATOM      2  C   UNL     1       4.135   6.172  17.343  0.00  0.00    +0.000 C 
ATOM      3  C   UNL     1       3.135   6.251  18.414  0.00  0.00    +0.000 C 
ATOM      4  O   UNL     1       2.713   7.338  18.794  0.00  0.00    +0.000 OA
ATOM      5  C   UNL     1       2.640   5.002  18.992  0.00  0.00    +0.000 A 
ATOM      6  C   UNL     1       1.728   5.054  20.059  0.00  0.00    +0.000 A 
ATOM      7  C   UNL     1       1.235   3.884  20.621  0.00  0.00    +0.000 A 
ATOM      8  C   UNL     1       1.638   2.654  20.111  0.00  0.00    +0.000 A 
ATOM      9  C   UNL     1       2.542   2.602  19.044  0.00  0.00    +0.000 A 
ATOM     10  C   UNL     1       3.066   3.775  18.474  0.00  0.00    +0.000 A 
ATOM     11  C   UNL     1       4.034   3.736  17.335  0.00  0.00    +0.000 C 
ATOM     12  O   UNL     1       4.385   2.680  16.825  0.00  0.00    +0.000 OA
ENDROOT
BRANCH   6  13
ATOM     13  O   UNL     1       1.269   6.222  20.607  0.00  0.00    +0.000 OA
ATOM     14  H   UNL     1       0.293   6.266  20.482  0.00  0.00    +0.000 HD
ENDBRANCH   6  13
BRANCH   9  15
ATOM     15  O   UNL     1       2.899   1.371  18.569  0.00  0.00    +0.000 OA
ATOM     16  H   UNL     1       2.996   0.734  19.297  0.00  0.00    +0.000 HD
ENDBRANCH   9  15
BRANCH   1  17
ATOM     17  C   UNL     1       5.510   4.951  15.588  0.00  0.00    +0.000 C 
BRANCH  17  18
ATOM     18  O   UNL     1       5.198   3.881  14.647  0.00  0.00    +0.000 OA
BRANCH  18  19
ATOM     19  C   UNL     1       5.586   3.968  13.365  0.00  0.00    +0.000 C 
ATOM     20  O   UNL     1       6.743   4.103  12.981  0.00  0.00    +0.000 OA
BRANCH  19  22
ATOM     21  C   UNL     1       4.376   2.913  11.375  0.00  0.00    +0.000 C 
ATOM     22  C   UNL     1       4.459   3.789  12.400  0.00  0.00    +0.000 C 
BRANCH  21  24
ATOM     23  C   UNL     1       3.036   4.380   9.736  0.00  0.00    +0.000 C 
ATOM     24  C   UNL     1       3.309   3.000  10.310  0.00  0.00    +0.000 C 
ENDBRANCH  21  24
ENDBRANCH  19  22
ENDBRANCH  18  19
ENDBRANCH  17  18
BRANCH  17  25
ATOM     25  C   UNL     1       7.042   5.028  15.886  0.00  0.00    +0.000 C 
BRANCH  25  26
ATOM     26  C   UNL     1       7.361   4.976  17.375  0.00  0.00    +0.000 C 
ATOM     27  C   UNL     1       7.680   5.998  18.196  0.00  0.00    +0.000 C 
ATOM     28  C   UNL     1       7.681   7.455  17.817  0.00  0.00    +0.000 C 
ATOM     29  C   UNL     1       8.095   5.745  19.625  0.00  0.00    +0.000 C 
ENDBRANCH  25  26
ENDBRANCH  17  25
ENDBRANCH   1  17
TORSDOF 9
ENDMDL
MODEL 8
REMARK VINA RESULT:      -8.3      1.303      5.411
REMARK  Name = 
REMARK  12 active torsions:
REMARK  status: ('A' for Active; 'I' for Inactive)
REMARK    1  A    between atoms: C_1  and  C_2
REMARK    2  A    between atoms: C_2  and  C_3
REMARK    3  A    between atoms: C_4  and  C_5
REMARK    4  A    between atoms: C_5  and  O_7
REMARK    5  A    between atoms: O_7  and  C_8
REMARK    6  A    between atoms: C_8  and  C_9
REMARK    7  A    between atoms: C_8  and  C_14
REMARK    8  A    between atoms: C_9  and  C_10
REMARK    9  A    between atoms: C_11  and  C_12
REMARK   10  A    between atoms: C_11  and  C_13
REMARK   11  A    between atoms: C_19  and  O_20
REMARK   12  A    between atoms: C_23  and  O_24
REMARK                            x       y       z     vdW  Elec       q    Type
REMARK                         _______ _______ _______ _____ _____    ______ ____
ROOT
ATOM      1  C   UNL     1       5.107   4.662  17.359  0.00  0.00    +0.000 C 
ATOM      2  C   UNL     1       4.816   3.359  17.233  0.00  0.00    +0.000 C 
ATOM      3  C   UNL     1       3.734   2.681  17.959  0.00  0.00    +0.000 C 
ATOM      4  O   UNL     1       3.587   1.467  17.866  0.00  0.00    +0.000 OA
ATOM      5  C   UNL     1       2.861   3.488  18.810  0.00  0.00    +0.000 A 
ATOM      6  C   UNL     1       1.783   2.871  19.466  0.00  0.00    +0.000 A 
ATOM      7  C   UNL     1       0.943   3.611  20.288  0.00  0.00    +0.000 A 
ATOM      8  C   UNL     1       1.184   4.969  20.471  0.00  0.00    +0.000 A 
ATOM      9  C   UNL     1       2.261   5.583  19.823  0.00  0.00    +0.000 A 
ATOM     10  C   UNL     1       3.111   4.854  18.973  0.00  0.00    +0.000 A 
ATOM     11  C   UNL     1       4.265   5.495  18.271  0.00  0.00    +0.000 C 
ATOM     12  O   UNL     1       4.542   6.676  18.435  0.00  0.00    +0.000 OA
ENDROOT
BRANCH   6  13
ATOM     13  O   UNL     1       1.488   1.539  19.352  0.00  0.00    +0.000 OA
ATOM     14  H   UNL     1       0.705   1.340  19.915  0.00  0.00    +0.000 HD
ENDBRANCH   6  13
BRANCH   9  15
ATOM     15  O   UNL     1       2.464   6.916  20.044  0.00  0.00    +0.000 OA
ATOM     16  H   UNL     1       2.750   7.361  19.228  0.00  0.00    +0.000 HD
ENDBRANCH   9  15
BRANCH   1  17
ATOM     17  C   UNL     1       6.324   5.336  16.708  0.00  0.00    +0.000 C 
BRANCH  17  18
ATOM     18  O   UNL     1       7.078   4.478  15.802  0.00  0.00    +0.000 OA
BRANCH  18  19
ATOM     19  C   UNL     1       7.074   4.716  14.481  0.00  0.00    +0.000 C 
ATOM     20  O   UNL     1       7.705   5.604  13.917  0.00  0.00    +0.000 OA
BRANCH  19  22
ATOM     21  C   UNL     1       6.262   3.518  12.373  0.00  0.00    +0.000 C 
ATOM     22  C   UNL     1       6.277   3.714  13.709  0.00  0.00    +0.000 C 
BRANCH  21  24
ATOM     23  C   UNL     1       3.964   3.365  11.219  0.00  0.00    +0.000 C 
ATOM     24  C   UNL     1       5.227   2.660  11.684  0.00  0.00    +0.000 C 
ENDBRANCH  21  24
ENDBRANCH  19  22
ENDBRANCH  18  19
ENDBRANCH  17  18
BRANCH  17  25
ATOM     25  C   UNL     1       7.268   6.139  17.661  0.00  0.00    +0.000 C 
BRANCH  25  26
ATOM     26  C   UNL     1       7.423   7.598  17.253  0.00  0.00    +0.000 C 
ATOM     27  C   UNL     1       8.057   8.587  17.917  0.00  0.00    +0.000 C 
ATOM     28  C   UNL     1       8.854   8.418  19.183  0.00  0.00    +0.000 C 
ATOM     29  C   UNL     1       8.000  10.013  17.425  0.00  0.00    +0.000 C 
ENDBRANCH  25  26
ENDBRANCH  17  25
ENDBRANCH   1  17
TORSDOF 9
ENDMDL
MODEL 9
REMARK VINA RESULT:      -8.2      1.058      1.216
REMARK  Name = 
REMARK  12 active torsions:
REMARK  status: ('A' for Active; 'I' for Inactive)
REMARK    1  A    between atoms: C_1  and  C_2
REMARK    2  A    between atoms: C_2  and  C_3
REMARK    3  A    between atoms: C_4  and  C_5
REMARK    4  A    between atoms: C_5  and  O_7
REMARK    5  A    between atoms: O_7  and  C_8
REMARK    6  A    between atoms: C_8  and  C_9
REMARK    7  A    between atoms: C_8  and  C_14
REMARK    8  A    between atoms: C_9  and  C_10
REMARK    9  A    between atoms: C_11  and  C_12
REMARK   10  A    between atoms: C_11  and  C_13
REMARK   11  A    between atoms: C_19  and  O_20
REMARK   12  A    between atoms: C_23  and  O_24
REMARK                            x       y       z     vdW  Elec       q    Type
REMARK                         _______ _______ _______ _____ _____    ______ ____
ROOT
ATOM      1  C   UNL     1       4.544   5.676  17.446  0.00  0.00    +0.000 C 
ATOM      2  C   UNL     1       4.217   6.909  17.033  0.00  0.00    +0.000 C 
ATOM      3  C   UNL     1       3.210   7.757  17.684  0.00  0.00    +0.000 C 
ATOM      4  O   UNL     1       2.895   8.836  17.194  0.00  0.00    +0.000 OA
ATOM      5  C   UNL     1       2.579   7.266  18.909  0.00  0.00    +0.000 A 
ATOM      6  C   UNL     1       1.658   8.086  19.581  0.00  0.00    +0.000 A 
ATOM      7  C   UNL     1       1.038   7.642  20.741  0.00  0.00    +0.000 A 
ATOM      8  C   UNL     1       1.323   6.371  21.229  0.00  0.00    +0.000 A 
ATOM      9  C   UNL     1       2.236   5.552  20.557  0.00  0.00    +0.000 A 
ATOM     10  C   UNL     1       2.888   5.990  19.391  0.00  0.00    +0.000 A 
ATOM     11  C   UNL     1       3.868   5.129  18.662  0.00  0.00    +0.000 C 
ATOM     12  O   UNL     1       4.119   3.988  19.029  0.00  0.00    +0.000 OA
ENDROOT
BRANCH   6  13
ATOM     13  O   UNL     1       1.310   9.341  19.158  0.00  0.00    +0.000 OA
ATOM     14  H   UNL     1       1.628   9.996  19.820  0.00  0.00    +0.000 HD
ENDBRANCH   6  13
BRANCH   9  15
ATOM     15  O   UNL     1       2.475   4.307  21.068  0.00  0.00    +0.000 OA
ATOM     16  H   UNL     1       2.475   4.327  22.040  0.00  0.00    +0.000 HD
ENDBRANCH   9  15
BRANCH   1  17
ATOM     17  C   UNL     1       5.493   4.738  16.683  0.00  0.00    +0.000 C 
BRANCH  17  18
ATOM     18  O   UNL     1       6.885   5.172  16.667  0.00  0.00    +0.000 OA
BRANCH  18  19
ATOM     19  C   UNL     1       7.555   5.350  17.817  0.00  0.00    +0.000 C 
ATOM     20  O   UNL     1       8.058   4.458  18.491  0.00  0.00    +0.000 OA
BRANCH  19  22
ATOM     21  C   UNL     1       7.635   7.864  17.361  0.00  0.00    +0.000 C 
ATOM     22  C   UNL     1       7.723   6.791  18.176  0.00  0.00    +0.000 C 
BRANCH  21  24
ATOM     23  C   UNL     1       8.984   9.326  18.998  0.00  0.00    +0.000 C 
ATOM     24  C   UNL     1       8.081   9.246  17.778  0.00  0.00    +0.000 C 
ENDBRANCH  21  24
ENDBRANCH  19  22
ENDBRANCH  18  19
ENDBRANCH  17  18
BRANCH  17  25
ATOM     25  C   UNL     1       5.019   4.266  15.271  0.00  0.00    +0.000 C 
BRANCH  25  26
ATOM     26  C   UNL     1       6.113   4.358  14.215  0.00  0.00    +0.000 C 
ATOM     27  C   UNL     1       6.077   3.927  12.937  0.00  0.00    +0.000 C 
ATOM     28  C   UNL     1       4.874   3.344  12.246  0.00  0.00    +0.000 C 
ATOM     29  C   UNL     1       7.307   3.985  12.064  0.00  0.00    +0.000 C 
ENDBRANCH  25  26
ENDBRANCH  17  25
ENDBRANCH   1  17
TORSDOF 9
ENDMDL
