MODEL 1
REMARK VINA RESULT:      -7.6      0.000      0.000
REMARK  Name = 
REMARK  11 active torsions:
REMARK  status: ('A' for Active; 'I' for Inactive)
REMARK    1  A    between atoms: C_1  and  O_2
REMARK    2  A    between atoms: O_2  and  C_3
REMARK    3  A    between atoms: C_7  and  C_8
REMARK    4  A    between atoms: N_12  and  C_13
REMARK    5  A    between atoms: C_13  and  C_14
REMARK    6  A    between atoms: C_14  and  C_15
REMARK    7  A    between atoms: C_15  and  S_16
REMARK    8  A    between atoms: S_16  and  C_17
REMARK    9  A    between atoms: C_20  and  C_21
REMARK   10  A    between atoms: C_25  and  C_26
REMARK   11  A    between atoms: N_27  and  C_28
REMARK                            x       y       z     vdW  Elec       q    Type
REMARK                         _______ _______ _______ _____ _____    ______ ____
ROOT
ATOM      1  C   UNL     1       1.740   8.449  19.779  0.00  0.00    +0.000 C 
ENDROOT
BRANCH   1   6
ATOM      2  C   UNL     1       2.944   5.310  18.301  0.00  0.00    +0.000 C 
ATOM      3  C   UNL     1       1.917   4.198  18.515  0.00  0.00    +0.000 C 
ATOM      4  C   UNL     1       2.532   4.897  19.682  0.00  0.00    +0.000 C 
ATOM      5  C   UNL     1       1.827   6.050  20.324  0.00  0.00    +0.000 C 
ATOM      6  N   UNL     1       2.419   7.174  19.590  0.00  0.00    +0.000 NA
ATOM      7  C   UNL     1       2.523   6.765  18.175  0.00  0.00    +0.000 C 
BRANCH   2  12
ATOM      8  C   UNL     1       6.705   4.948  17.704  0.00  0.00    +0.000 A 
ATOM      9  C   UNL     1       6.731   4.322  16.460  0.00  0.00    +0.000 A 
ATOM     10  C   UNL     1       5.542   3.947  15.833  0.00  0.00    +0.000 A 
ATOM     11  C   UNL     1       4.316   4.230  16.436  0.00  0.00    +0.000 A 
ATOM     12  C   UNL     1       4.254   4.889  17.673  0.00  0.00    +0.000 A 
ATOM     13  C   UNL     1       5.473   5.198  18.311  0.00  0.00    +0.000 A 
BRANCH   8  15
ATOM     14  C   UNL     1       7.977   5.660  19.583  0.00  0.00    +0.000 C 
ATOM     15  O   UNL     1       7.929   5.288  18.210  0.00  0.00    +0.000 OA
ENDBRANCH   8  15
ENDBRANCH   2  12
ENDBRANCH   1   6
BRANCH   1  16
ATOM     16  C   UNL     1       1.446   9.179  18.460  0.00  0.00    +0.000 C 
BRANCH  16  17
ATOM     17  C   UNL     1       0.357  10.250  18.583  0.00  0.00    +0.000 C 
BRANCH  17  18
ATOM     18  S   UNL     1       1.062  11.668  19.477  0.00  0.00    +0.000 S 
BRANCH  18  19
ATOM     19  C   UNL     1       0.214  11.618  20.981  0.00  0.00    +0.000 A 
ATOM     20  N   UNL     1       0.473  10.868  22.026  0.00  0.00    +0.000 NA
ATOM     21  N   UNL     1      -0.458  11.176  22.994  0.00  0.00    +0.000 NA
ATOM     22  C   UNL     1      -1.279  12.087  22.511  0.00  0.00    +0.000 A 
ATOM     23  N   UNL     1      -0.864  12.422  21.242  0.00  0.00    +0.000 N 
ATOM     24  C   UNL     1      -1.381  13.453  20.383  0.00  0.00    +0.000 C 
BRANCH  22  25
ATOM     25  C   UNL     1      -2.397  12.628  23.212  0.00  0.00    +0.000 A 
ATOM     26  O   UNL     1      -3.642  12.037  23.246  0.00  0.00    +0.000 OA
ATOM     27  C   UNL     1      -4.396  12.859  24.020  0.00  0.00    +0.000 A 
ATOM     28  N   UNL     1      -3.774  13.917  24.477  0.00  0.00    +0.000 NA
ATOM     29  C   UNL     1      -2.494  13.780  23.980  0.00  0.00    +0.000 A 
ATOM     30  C   UNL     1      -1.463  14.802  24.267  0.00  0.00    +0.000 C 
ENDBRANCH  22  25
ENDBRANCH  18  19
ENDBRANCH  17  18
ENDBRANCH  16  17
ENDBRANCH   1  16
TORSDOF 8
ENDMDL
MODEL 2
REMARK VINA RESULT:      -7.5      1.302      2.108
REMARK  Name = 
REMARK  11 active torsions:
REMARK  status: ('A' for Active; 'I' for Inactive)
REMARK    1  A    between atoms: C_1  and  O_2
REMARK    2  A    between atoms: O_2  and  C_3
REMARK    3  A    between atoms: C_7  and  C_8
REMARK    4  A    between atoms: N_12  and  C_13
REMARK    5  A    between atoms: C_13  and  C_14
REMARK    6  A    between atoms: C_14  and  C_15
REMARK    7  A    between atoms: C_15  and  S_16
REMARK    8  A    between atoms: S_16  and  C_17
REMARK    9  A    between atoms: C_20  and  C_21
REMARK   10  A    between atoms: C_25  and  C_26
REMARK   11  A    between atoms: N_27  and  C_28
REMARK                            x       y       z     vdW  Elec       q    Type
REMARK                         _______ _______ _______ _____ _____    ______ ____
ROOT
ATOM      1  C   UNL     1       1.753   8.336  19.864  0.00  0.00    +0.000 C 
ENDROOT
BRANCH   1   6
ATOM      2  C   UNL     1       3.354   5.457  18.242  0.00  0.00    +0.000 C 
ATOM      3  C   UNL     1       2.389   4.273  18.195  0.00  0.00    +0.000 C 
ATOM      4  C   UNL     1       2.797   4.867  19.503  0.00  0.00    +0.000 C 
ATOM      5  C   UNL     1       1.936   5.899  20.160  0.00  0.00    +0.000 C 
ATOM      6  N   UNL     1       2.537   7.130  19.636  0.00  0.00    +0.000 NA
ATOM      7  C   UNL     1       2.853   6.891  18.213  0.00  0.00    +0.000 C 
BRANCH   2  12
ATOM      8  C   UNL     1       6.237   4.193  16.068  0.00  0.00    +0.000 A 
ATOM      9  C   UNL     1       7.336   4.452  16.884  0.00  0.00    +0.000 A 
ATOM     10  C   UNL     1       7.170   5.098  18.109  0.00  0.00    +0.000 A 
ATOM     11  C   UNL     1       5.892   5.458  18.540  0.00  0.00    +0.000 A 
ATOM     12  C   UNL     1       4.761   5.183  17.757  0.00  0.00    +0.000 A 
ATOM     13  C   UNL     1       4.968   4.586  16.497  0.00  0.00    +0.000 A 
BRANCH   8  15
ATOM     14  C   UNL     1       6.213   4.216  13.690  0.00  0.00    +0.000 C 
ATOM     15  O   UNL     1       6.520   3.536  14.902  0.00  0.00    +0.000 OA
ENDBRANCH   8  15
ENDBRANCH   2  12
ENDBRANCH   1   6
BRANCH   1  16
ATOM     16  C   UNL     1       1.468   9.125  18.577  0.00  0.00    +0.000 C 
BRANCH  16  17
ATOM     17  C   UNL     1       0.974  10.553  18.831  0.00  0.00    +0.000 C 
BRANCH  17  18
ATOM     18  S   UNL     1      -0.794  10.470  19.246  0.00  0.00    +0.000 S 
BRANCH  18  19
ATOM     19  C   UNL     1      -0.818  11.013  20.885  0.00  0.00    +0.000 A 
ATOM     20  N   UNL     1      -0.382  10.382  21.949  0.00  0.00    +0.000 NA
ATOM     21  N   UNL     1      -0.597  11.204  23.034  0.00  0.00    +0.000 NA
ATOM     22  C   UNL     1      -1.184  12.307  22.612  0.00  0.00    +0.000 A 
ATOM     23  N   UNL     1      -1.310  12.241  21.243  0.00  0.00    +0.000 N 
ATOM     24  C   UNL     1      -1.778  13.263  20.345  0.00  0.00    +0.000 C 
BRANCH  22  25
ATOM     25  C   UNL     1      -1.596  13.381  23.456  0.00  0.00    +0.000 A 
ATOM     26  O   UNL     1      -0.759  14.390  23.881  0.00  0.00    +0.000 OA
ATOM     27  C   UNL     1      -1.543  15.195  24.643  0.00  0.00    +0.000 A 
ATOM     28  N   UNL     1      -2.789  14.807  24.761  0.00  0.00    +0.000 NA
ATOM     29  C   UNL     1      -2.843  13.656  24.001  0.00  0.00    +0.000 A 
ATOM     30  C   UNL     1      -4.104  12.891  23.887  0.00  0.00    +0.000 C 
ENDBRANCH  22  25
ENDBRANCH  18  19
ENDBRANCH  17  18
ENDBRANCH  16  17
ENDBRANCH   1  16
TORSDOF 8
ENDMDL
MODEL 3
REMARK VINA RESULT:      -7.4      3.200     10.471
REMARK  Name = 
REMARK  11 active torsions:
REMARK  status: ('A' for Active; 'I' for Inactive)
REMARK    1  A    between atoms: C_1  and  O_2
REMARK    2  A    between atoms: O_2  and  C_3
REMARK    3  A    between atoms: C_7  and  C_8
REMARK    4  A    between atoms: N_12  and  C_13
REMARK    5  A    between atoms: C_13  and  C_14
REMARK    6  A    between atoms: C_14  and  C_15
REMARK    7  A    between atoms: C_15  and  S_16
REMARK    8  A    between atoms: S_16  and  C_17
REMARK    9  A    between atoms: C_20  and  C_21
REMARK   10  A    between atoms: C_25  and  C_26
REMARK   11  A    between atoms: N_27  and  C_28
REMARK                            x       y       z     vdW  Elec       q    Type
REMARK                         _______ _______ _______ _____ _____    ______ ____
ROOT
ATOM      1  C   UNL     1       1.384   8.406  21.237  0.00  0.00    +0.000 C 
ENDROOT
BRANCH   1   6
ATOM      2  C   UNL     1      -0.473  10.909  19.294  0.00  0.00    +0.000 C 
ATOM      3  C   UNL     1      -0.045  12.318  19.703  0.00  0.00    +0.000 C 
ATOM      4  C   UNL     1      -0.639  11.386  20.706  0.00  0.00    +0.000 C 
ATOM      5  C   UNL     1       0.249  10.562  21.585  0.00  0.00    +0.000 C 
ATOM      6  N   UNL     1       0.351   9.332  20.794  0.00  0.00    +0.000 NA
ATOM      7  C   UNL     1       0.486   9.733  19.378  0.00  0.00    +0.000 C 
BRANCH   2  12
ATOM      8  C   UNL     1      -3.953  11.358  17.772  0.00  0.00    +0.000 A 
ATOM      9  C   UNL     1      -3.872  10.544  16.644  0.00  0.00    +0.000 A 
ATOM     10  C   UNL     1      -2.677   9.899  16.323  0.00  0.00    +0.000 A 
ATOM     11  C   UNL     1      -1.564  10.039  17.154  0.00  0.00    +0.000 A 
ATOM     12  C   UNL     1      -1.622  10.825  18.314  0.00  0.00    +0.000 A 
ATOM     13  C   UNL     1      -2.824  11.514  18.577  0.00  0.00    +0.000 A 
BRANCH   8  15
ATOM     14  C   UNL     1      -5.385  12.531  19.265  0.00  0.00    +0.000 C 
ATOM     15  O   UNL     1      -5.180  11.920  17.996  0.00  0.00    +0.000 OA
ENDBRANCH   8  15
ENDBRANCH   2  12
ENDBRANCH   1   6
BRANCH   1  16
ATOM     16  C   UNL     1       1.459   7.130  20.385  0.00  0.00    +0.000 C 
BRANCH  16  17
ATOM     17  C   UNL     1       2.141   5.957  21.099  0.00  0.00    +0.000 C 
BRANCH  17  18
ATOM     18  S   UNL     1       1.761   4.439  20.175  0.00  0.00    +0.000 S 
BRANCH  18  19
ATOM     19  C   UNL     1       3.281   4.053  19.452  0.00  0.00    +0.000 A 
ATOM     20  N   UNL     1       4.146   3.144  19.834  0.00  0.00    +0.000 NA
ATOM     21  N   UNL     1       5.205   3.187  18.953  0.00  0.00    +0.000 NA
ATOM     22  C   UNL     1       4.975   4.138  18.069  0.00  0.00    +0.000 A 
ATOM     23  N   UNL     1       3.742   4.690  18.329  0.00  0.00    +0.000 N 
ATOM     24  C   UNL     1       3.028   5.671  17.557  0.00  0.00    +0.000 C 
BRANCH  22  25
ATOM     25  C   UNL     1       5.868   4.503  17.018  0.00  0.00    +0.000 A 
ATOM     26  O   UNL     1       5.924   3.862  15.799  0.00  0.00    +0.000 OA
ATOM     27  C   UNL     1       6.885   4.521  15.103  0.00  0.00    +0.000 A 
ATOM     28  N   UNL     1       7.458   5.508  15.745  0.00  0.00    +0.000 NA
ATOM     29  C   UNL     1       6.814   5.517  16.966  0.00  0.00    +0.000 A 
ATOM     30  C   UNL     1       7.191   6.499  18.007  0.00  0.00    +0.000 C 
ENDBRANCH  22  25
ENDBRANCH  18  19
ENDBRANCH  17  18
ENDBRANCH  16  17
ENDBRANCH   1  16
TORSDOF 8
ENDMDL
MODEL 4
REMARK VINA RESULT:      -7.3      1.382      1.527
REMARK  Name = 
REMARK  11 active torsions:
REMARK  status: ('A' for Active; 'I' for Inactive)
REMARK    1  A    between atoms: C_1  and  O_2
REMARK    2  A    between atoms: O_2  and  C_3
REMARK    3  A    between atoms: C_7  and  C_8
REMARK    4  A    between atoms: N_12  and  C_13
REMARK    5  A    between atoms: C_13  and  C_14
REMARK    6  A    between atoms: C_14  and  C_15
REMARK    7  A    between atoms: C_15  and  S_16
REMARK    8  A    between atoms: S_16  and  C_17
REMARK    9  A    between atoms: C_20  and  C_21
REMARK   10  A    between atoms: C_25  and  C_26
REMARK   11  A    between atoms: N_27  and  C_28
REMARK                            x       y       z     vdW  Elec       q    Type
REMARK                         _______ _______ _______ _____ _____    ______ ____
ROOT
ATOM      1  C   UNL     1       1.453   7.804  20.676  0.00  0.00    +0.000 C 
ENDROOT
BRANCH   1   6
ATOM      2  C   UNL     1       2.770   5.524  18.116  0.00  0.00    +0.000 C 
ATOM      3  C   UNL     1       1.746   4.434  17.803  0.00  0.00    +0.000 C 
ATOM      4  C   UNL     1       2.288   4.589  19.185  0.00  0.00    +0.000 C 
ATOM      5  C   UNL     1       1.537   5.390  20.202  0.00  0.00    +0.000 C 
ATOM      6  N   UNL     1       2.155   6.707  20.022  0.00  0.00    +0.000 NA
ATOM      7  C   UNL     1       2.341   6.909  18.571  0.00  0.00    +0.000 C 
BRANCH   2  12
ATOM      8  C   UNL     1       6.240   6.402  16.767  0.00  0.00    +0.000 A 
ATOM      9  C   UNL     1       6.553   5.258  16.036  0.00  0.00    +0.000 A 
ATOM     10  C   UNL     1       5.684   4.166  16.027  0.00  0.00    +0.000 A 
ATOM     11  C   UNL     1       4.477   4.229  16.725  0.00  0.00    +0.000 A 
ATOM     12  C   UNL     1       4.117   5.379  17.443  0.00  0.00    +0.000 A 
ATOM     13  C   UNL     1       5.044   6.441  17.485  0.00  0.00    +0.000 A 
BRANCH   8  15
ATOM     14  C   UNL     1       7.896   7.710  17.863  0.00  0.00    +0.000 C 
ATOM     15  O   UNL     1       7.157   7.414  16.684  0.00  0.00    +0.000 OA
ENDBRANCH   8  15
ENDBRANCH   2  12
ENDBRANCH   1   6
BRANCH   1  16
ATOM     16  C   UNL     1       1.363   9.068  19.808  0.00  0.00    +0.000 C 
BRANCH  16  17
ATOM     17  C   UNL     1       0.031   9.814  19.951  0.00  0.00    +0.000 C 
BRANCH  17  18
ATOM     18  S   UNL     1       0.381  11.462  20.633  0.00  0.00    +0.000 S 
BRANCH  18  19
ATOM     19  C   UNL     1      -0.889  11.664  21.786  0.00  0.00    +0.000 A 
ATOM     20  N   UNL     1      -0.949  11.192  23.009  0.00  0.00    +0.000 NA
ATOM     21  N   UNL     1      -2.140  11.615  23.557  0.00  0.00    +0.000 NA
ATOM     22  C   UNL     1      -2.793  12.314  22.649  0.00  0.00    +0.000 A 
ATOM     23  N   UNL     1      -2.014  12.400  21.518  0.00  0.00    +0.000 N 
ATOM     24  C   UNL     1      -2.264  13.161  20.323  0.00  0.00    +0.000 C 
BRANCH  22  25
ATOM     25  C   UNL     1      -4.086  12.886  22.839  0.00  0.00    +0.000 A 
ATOM     26  O   UNL     1      -5.257  12.298  22.412  0.00  0.00    +0.000 OA
ATOM     27  C   UNL     1      -6.237  13.156  22.797  0.00  0.00    +0.000 A 
ATOM     28  N   UNL     1      -5.821  14.233  23.415  0.00  0.00    +0.000 NA
ATOM     29  C   UNL     1      -4.451  14.073  23.460  0.00  0.00    +0.000 A 
ATOM     30  C   UNL     1      -3.594  15.107  24.080  0.00  0.00    +0.000 C 
ENDBRANCH  22  25
ENDBRANCH  18  19
ENDBRANCH  17  18
ENDBRANCH  16  17
ENDBRANCH   1  16
TORSDOF 8
ENDMDL
MODEL 5
REMARK VINA RESULT:      -7.3      6.845     10.639
REMARK  Name = 
REMARK  11 active torsions:
REMARK  status: ('A' for Active; 'I' for Inactive)
REMARK    1  A    between atoms: C_1  and  O_2
REMARK    2  A    between atoms: O_2  and  C_3
REMARK    3  A    between atoms: C_7  and  C_8
REMARK    4  A    between atoms: N_12  and  C_13
REMARK    5  A    between atoms: C_13  and  C_14
REMARK    6  A    between atoms: C_14  and  C_15
REMARK    7  A    between atoms: C_15  and  S_16
REMARK    8  A    between atoms: S_16  and  C_17
REMARK    9  A    between atoms: C_20  and  C_21
REMARK   10  A    between atoms: C_25  and  C_26
REMARK   11  A    between atoms: N_27  and  C_28
REMARK                            x       y       z     vdW  Elec       q    Type
REMARK                         _______ _______ _______ _____ _____    ______ ____
ROOT
ATOM      1  C   UNL     1       9.026   9.725  17.780  0.00  0.00    +0.000 C 
ENDROOT
BRANCH   1   6
ATOM      2  C   UNL     1       9.843  13.010  19.205  0.00  0.00    +0.000 C 
ATOM      3  C   UNL     1      10.864  12.857  20.332  0.00  0.00    +0.000 C 
ATOM      4  C   UNL     1       9.534  12.183  20.417  0.00  0.00    +0.000 C 
ATOM      5  C   UNL     1       9.385  10.758  19.985  0.00  0.00    +0.000 C 
ATOM      6  N   UNL     1       8.985  10.938  18.586  0.00  0.00    +0.000 NA
ATOM      7  C   UNL     1       9.800  12.040  18.036  0.00  0.00    +0.000 C 
BRANCH   2  12
ATOM      8  C   UNL     1       9.529  16.618  17.975  0.00  0.00    +0.000 A 
ATOM      9  C   UNL     1       8.443  17.074  18.720  0.00  0.00    +0.000 A 
ATOM     10  C   UNL     1       7.758  16.207  19.571  0.00  0.00    +0.000 A 
ATOM     11  C   UNL     1       8.180  14.884  19.708  0.00  0.00    +0.000 A 
ATOM     12  C   UNL     1       9.290  14.403  18.997  0.00  0.00    +0.000 A 
ATOM     13  C   UNL     1       9.923  15.285  18.097  0.00  0.00    +0.000 A 
BRANCH   8  15
ATOM     14  C   UNL     1      11.498  17.855  17.476  0.00  0.00    +0.000 C 
ATOM     15  O   UNL     1      10.134  17.563  17.192  0.00  0.00    +0.000 OA
ENDBRANCH   8  15
ENDBRANCH   2  12
ENDBRANCH   1   6
BRANCH   1  16
ATOM     16  C   UNL     1       7.740   8.889  17.877  0.00  0.00    +0.000 C 
BRANCH  16  17
ATOM     17  C   UNL     1       7.994   7.411  18.194  0.00  0.00    +0.000 C 
BRANCH  17  18
ATOM     18  S   UNL     1       7.063   6.413  16.993  0.00  0.00    +0.000 S 
BRANCH  18  19
ATOM     19  C   UNL     1       6.126   5.382  18.015  0.00  0.00    +0.000 A 
ATOM     20  N   UNL     1       6.546   4.376  18.745  0.00  0.00    +0.000 NA
ATOM     21  N   UNL     1       5.450   3.856  19.399  0.00  0.00    +0.000 NA
ATOM     22  C   UNL     1       4.382   4.539  19.034  0.00  0.00    +0.000 A 
ATOM     23  N   UNL     1       4.776   5.544  18.180  0.00  0.00    +0.000 N 
ATOM     24  C   UNL     1       3.974   6.603  17.628  0.00  0.00    +0.000 C 
BRANCH  22  25
ATOM     25  C   UNL     1       3.054   4.267  19.476  0.00  0.00    +0.000 A 
ATOM     26  O   UNL     1       2.438   4.934  20.514  0.00  0.00    +0.000 OA
ATOM     27  C   UNL     1       1.200   4.382  20.596  0.00  0.00    +0.000 A 
ATOM     28  N   UNL     1       0.959   3.428  19.732  0.00  0.00    +0.000 NA
ATOM     29  C   UNL     1       2.127   3.349  19.002  0.00  0.00    +0.000 A 
ATOM     30  C   UNL     1       2.266   2.358  17.911  0.00  0.00    +0.000 C 
ENDBRANCH  22  25
ENDBRANCH  18  19
ENDBRANCH  17  18
ENDBRANCH  16  17
ENDBRANCH   1  16
TORSDOF 8
ENDMDL
MODEL 6
REMARK VINA RESULT:      -7.3      7.038     10.924
REMARK  Name = 
REMARK  11 active torsions:
REMARK  status: ('A' for Active; 'I' for Inactive)
REMARK    1  A    between atoms: C_1  and  O_2
REMARK    2  A    between atoms: O_2  and  C_3
REMARK    3  A    between atoms: C_7  and  C_8
REMARK    4  A    between atoms: N_12  and  C_13
REMARK    5  A    between atoms: C_13  and  C_14
REMARK    6  A    between atoms: C_14  and  C_15
REMARK    7  A    between atoms: C_15  and  S_16
REMARK    8  A    between atoms: S_16  and  C_17
REMARK    9  A    between atoms: C_20  and  C_21
REMARK   10  A    between atoms: C_25  and  C_26
REMARK   11  A    between atoms: N_27  and  C_28
REMARK                            x       y       z     vdW  Elec       q    Type
REMARK                         _______ _______ _______ _____ _____    ______ ____
ROOT
ATOM      1  C   UNL     1       9.218  10.051  19.503  0.00  0.00    +0.000 C 
ENDROOT
BRANCH   1   6
ATOM      2  C   UNL     1       9.828  13.269  17.843  0.00  0.00    +0.000 C 
ATOM      3  C   UNL     1      11.003  13.149  16.873  0.00  0.00    +0.000 C 
ATOM      4  C   UNL     1      11.192  12.876  18.328  0.00  0.00    +0.000 C 
ATOM      5  C   UNL     1      11.116  11.474  18.846  0.00  0.00    +0.000 C 
ATOM      6  N   UNL     1       9.699  11.396  19.215  0.00  0.00    +0.000 NA
ATOM      7  C   UNL     1       8.933  12.083  18.156  0.00  0.00    +0.000 C 
BRANCH   2  12
ATOM      8  C   UNL     1       9.604  16.986  18.718  0.00  0.00    +0.000 A 
ATOM      9  C   UNL     1       8.238  17.223  18.584  0.00  0.00    +0.000 A 
ATOM     10  C   UNL     1       7.386  16.210  18.143  0.00  0.00    +0.000 A 
ATOM     11  C   UNL     1       7.895  14.940  17.867  0.00  0.00    +0.000 A 
ATOM     12  C   UNL     1       9.261  14.660  18.024  0.00  0.00    +0.000 A 
ATOM     13  C   UNL     1      10.106  15.721  18.410  0.00  0.00    +0.000 A 
BRANCH   8  15
ATOM     14  C   UNL     1      10.866  17.940  20.494  0.00  0.00    +0.000 C 
ATOM     15  O   UNL     1      10.335  18.047  19.178  0.00  0.00    +0.000 OA
ENDBRANCH   8  15
ENDBRANCH   2  12
ENDBRANCH   1   6
BRANCH   1  16
ATOM     16  C   UNL     1       8.544   9.379  18.297  0.00  0.00    +0.000 C 
BRANCH  16  17
ATOM     17  C   UNL     1       8.375   7.864  18.457  0.00  0.00    +0.000 C 
BRANCH  17  18
ATOM     18  S   UNL     1       7.096   7.315  17.286  0.00  0.00    +0.000 S 
BRANCH  18  19
ATOM     19  C   UNL     1       6.342   6.018  18.141  0.00  0.00    +0.000 A 
ATOM     20  N   UNL     1       6.922   5.043  18.799  0.00  0.00    +0.000 NA
ATOM     21  N   UNL     1       5.925   4.251  19.326  0.00  0.00    +0.000 NA
ATOM     22  C   UNL     1       4.759   4.745  18.956  0.00  0.00    +0.000 A 
ATOM     23  N   UNL     1       4.980   5.892  18.229  0.00  0.00    +0.000 N 
ATOM     24  C   UNL     1       4.007   6.825  17.728  0.00  0.00    +0.000 C 
BRANCH  22  25
ATOM     25  C   UNL     1       3.494   4.172  19.282  0.00  0.00    +0.000 A 
ATOM     26  O   UNL     1       2.573   4.765  20.118  0.00  0.00    +0.000 OA
ATOM     27  C   UNL     1       1.524   3.905  20.147  0.00  0.00    +0.000 A 
ATOM     28  N   UNL     1       1.674   2.820  19.428  0.00  0.00    +0.000 NA
ATOM     29  C   UNL     1       2.922   2.979  18.860  0.00  0.00    +0.000 A 
ATOM     30  C   UNL     1       3.480   1.937  17.969  0.00  0.00    +0.000 C 
ENDBRANCH  22  25
ENDBRANCH  18  19
ENDBRANCH  17  18
ENDBRANCH  16  17
ENDBRANCH   1  16
TORSDOF 8
ENDMDL
MODEL 7
REMARK VINA RESULT:      -7.3      1.701      2.336
REMARK  Name = 
REMARK  11 active torsions:
REMARK  status: ('A' for Active; 'I' for Inactive)
REMARK    1  A    between atoms: C_1  and  O_2
REMARK    2  A    between atoms: O_2  and  C_3
REMARK    3  A    between atoms: C_7  and  C_8
REMARK    4  A    between atoms: N_12  and  C_13
REMARK    5  A    between atoms: C_13  and  C_14
REMARK    6  A    between atoms: C_14  and  C_15
REMARK    7  A    between atoms: C_15  and  S_16
REMARK    8  A    between atoms: S_16  and  C_17
REMARK    9  A    between atoms: C_20  and  C_21
REMARK   10  A    between atoms: C_25  and  C_26
REMARK   11  A    between atoms: N_27  and  C_28
REMARK                            x       y       z     vdW  Elec       q    Type
REMARK                         _______ _______ _______ _____ _____    ______ ____
ROOT
ATOM      1  C   UNL     1       1.096   4.386  20.488  0.00  0.00    +0.000 C 
ENDROOT
BRANCH   1   6
ATOM      2  C   UNL     1       3.690   3.241  18.155  0.00  0.00    +0.000 C 
ATOM      3  C   UNL     1       3.701   1.714  18.085  0.00  0.00    +0.000 C 
ATOM      4  C   UNL     1       3.949   2.415  19.379  0.00  0.00    +0.000 C 
ATOM      5  C   UNL     1       2.824   2.640  20.340  0.00  0.00    +0.000 C 
ATOM      6  N   UNL     1       2.377   3.974  19.929  0.00  0.00    +0.000 NA
ATOM      7  C   UNL     1       2.417   4.013  18.453  0.00  0.00    +0.000 C 
BRANCH   2  12
ATOM      8  C   UNL     1       6.800   5.349  17.434  0.00  0.00    +0.000 A 
ATOM      9  C   UNL     1       6.752   5.451  16.045  0.00  0.00    +0.000 A 
ATOM     10  C   UNL     1       5.762   4.786  15.322  0.00  0.00    +0.000 A 
ATOM     11  C   UNL     1       4.790   4.041  15.992  0.00  0.00    +0.000 A 
ATOM     12  C   UNL     1       4.790   3.945  17.391  0.00  0.00    +0.000 A 
ATOM     13  C   UNL     1       5.840   4.576  18.090  0.00  0.00    +0.000 A 
BRANCH   8  15
ATOM     14  C   UNL     1       7.988   5.855  19.431  0.00  0.00    +0.000 C 
ATOM     15  O   UNL     1       7.802   6.061  18.035  0.00  0.00    +0.000 OA
ENDBRANCH   8  15
ENDBRANCH   2  12
ENDBRANCH   1   6
BRANCH   1  16
ATOM     16  C   UNL     1       0.780   5.870  20.246  0.00  0.00    +0.000 C 
BRANCH  16  17
ATOM     17  C   UNL     1       1.809   6.823  20.865  0.00  0.00    +0.000 C 
BRANCH  17  18
ATOM     18  S   UNL     1       1.517   8.483  20.184  0.00  0.00    +0.000 S 
BRANCH  18  19
ATOM     19  C   UNL     1       0.801   9.312  21.519  0.00  0.00    +0.000 A 
ATOM     20  N   UNL     1       1.060   9.157  22.796  0.00  0.00    +0.000 NA
ATOM     21  N   UNL     1       0.257  10.036  23.489  0.00  0.00    +0.000 NA
ATOM     22  C   UNL     1      -0.493  10.690  22.624  0.00  0.00    +0.000 A 
ATOM     23  N   UNL     1      -0.152  10.284  21.354  0.00  0.00    +0.000 N 
ATOM     24  C   UNL     1      -0.619  10.809  20.099  0.00  0.00    +0.000 C 
BRANCH  22  25
ATOM     25  C   UNL     1      -1.478  11.661  22.973  0.00  0.00    +0.000 A 
ATOM     26  O   UNL     1      -2.721  11.348  23.480  0.00  0.00    +0.000 OA
ATOM     27  C   UNL     1      -3.327  12.546  23.680  0.00  0.00    +0.000 A 
ATOM     28  N   UNL     1      -2.612  13.592  23.348  0.00  0.00    +0.000 NA
ATOM     29  C   UNL     1      -1.425  13.046  22.904  0.00  0.00    +0.000 A 
ATOM     30  C   UNL     1      -0.334  13.918  22.415  0.00  0.00    +0.000 C 
ENDBRANCH  22  25
ENDBRANCH  18  19
ENDBRANCH  17  18
ENDBRANCH  16  17
ENDBRANCH   1  16
TORSDOF 8
ENDMDL
MODEL 8
REMARK VINA RESULT:      -7.2      7.464      9.420
REMARK  Name = 
REMARK  11 active torsions:
REMARK  status: ('A' for Active; 'I' for Inactive)
REMARK    1  A    between atoms: C_1  and  O_2
REMARK    2  A    between atoms: O_2  and  C_3
REMARK    3  A    between atoms: C_7  and  C_8
REMARK    4  A    between atoms: N_12  and  C_13
REMARK    5  A    between atoms: C_13  and  C_14
REMARK    6  A    between atoms: C_14  and  C_15
REMARK    7  A    between atoms: C_15  and  S_16
REMARK    8  A    between atoms: S_16  and  C_17
REMARK    9  A    between atoms: C_20  and  C_21
REMARK   10  A    between atoms: C_25  and  C_26
REMARK   11  A    between atoms: N_27  and  C_28
REMARK                            x       y       z     vdW  Elec       q    Type
REMARK                         _______ _______ _______ _____ _____    ______ ____
ROOT
ATOM      1  C   UNL     1       7.711   7.077  18.316  0.00  0.00    +0.000 C 
ENDROOT
BRANCH   1   6
ATOM      2  C   UNL     1       5.185   4.541  17.492  0.00  0.00    +0.000 C 
ATOM      3  C   UNL     1       5.549   3.839  16.184  0.00  0.00    +0.000 C 
ATOM      4  C   UNL     1       5.317   5.314  16.214  0.00  0.00    +0.000 C 
ATOM      5  C   UNL     1       6.473   6.253  16.354  0.00  0.00    +0.000 C 
ATOM      6  N   UNL     1       6.509   6.427  17.809  0.00  0.00    +0.000 NA
ATOM      7  C   UNL     1       6.253   5.104  18.414  0.00  0.00    +0.000 C 
BRANCH   2  12
ATOM      8  C   UNL     1       2.593   2.996  19.843  0.00  0.00    +0.000 A 
ATOM      9  C   UNL     1       1.406   3.259  19.162  0.00  0.00    +0.000 A 
ATOM     10  C   UNL     1       1.421   3.996  17.977  0.00  0.00    +0.000 A 
ATOM     11  C   UNL     1       2.632   4.444  17.449  0.00  0.00    +0.000 A 
ATOM     12  C   UNL     1       3.848   4.168  18.093  0.00  0.00    +0.000 A 
ATOM     13  C   UNL     1       3.795   3.476  19.320  0.00  0.00    +0.000 A 
BRANCH   8  15
ATOM     14  C   UNL     1       1.425   2.630  21.882  0.00  0.00    +0.000 C 
ATOM     15  O   UNL     1       2.457   2.247  20.980  0.00  0.00    +0.000 OA
ENDBRANCH   8  15
ENDBRANCH   2  12
ENDBRANCH   1   6
BRANCH   1  16
ATOM     16  C   UNL     1       8.209   8.217  17.414  0.00  0.00    +0.000 C 
BRANCH  16  17
ATOM     17  C   UNL     1       7.942   9.612  17.990  0.00  0.00    +0.000 C 
BRANCH  17  18
ATOM     18  S   UNL     1       9.216   9.956  19.241  0.00  0.00    +0.000 S 
BRANCH  18  19
ATOM     19  C   UNL     1       9.955  11.394  18.634  0.00  0.00    +0.000 A 
ATOM     20  N   UNL     1      10.647  11.538  17.529  0.00  0.00    +0.000 NA
ATOM     21  N   UNL     1      11.029  12.860  17.451  0.00  0.00    +0.000 NA
ATOM     22  C   UNL     1      10.584  13.487  18.523  0.00  0.00    +0.000 A 
ATOM     23  N   UNL     1       9.863  12.596  19.284  0.00  0.00    +0.000 N 
ATOM     24  C   UNL     1       9.097  12.862  20.472  0.00  0.00    +0.000 C 
BRANCH  22  25
ATOM     25  C   UNL     1      10.815  14.865  18.812  0.00  0.00    +0.000 A 
ATOM     26  O   UNL     1      11.930  15.335  19.472  0.00  0.00    +0.000 OA
ATOM     27  C   UNL     1      11.760  16.681  19.528  0.00  0.00    +0.000 A 
ATOM     28  N   UNL     1      10.653  17.124  18.984  0.00  0.00    +0.000 NA
ATOM     29  C   UNL     1      10.044  15.979  18.513  0.00  0.00    +0.000 A 
ATOM     30  C   UNL     1       8.733  16.053  17.829  0.00  0.00    +0.000 C 
ENDBRANCH  22  25
ENDBRANCH  18  19
ENDBRANCH  17  18
ENDBRANCH  16  17
ENDBRANCH   1  16
TORSDOF 8
ENDMDL
MODEL 9
REMARK VINA RESULT:      -7.2      6.691     10.555
REMARK  Name = 
REMARK  11 active torsions:
REMARK  status: ('A' for Active; 'I' for Inactive)
REMARK    1  A    between atoms: C_1  and  O_2
REMARK    2  A    between atoms: O_2  and  C_3
REMARK    3  A    between atoms: C_7  and  C_8
REMARK    4  A    between atoms: N_12  and  C_13
REMARK    5  A    between atoms: C_13  and  C_14
REMARK    6  A    between atoms: C_14  and  C_15
REMARK    7  A    between atoms: C_15  and  S_16
REMARK    8  A    between atoms: S_16  and  C_17
REMARK    9  A    between atoms: C_20  and  C_21
REMARK   10  A    between atoms: C_25  and  C_26
REMARK   11  A    between atoms: N_27  and  C_28
REMARK                            x       y       z     vdW  Elec       q    Type
REMARK                         _______ _______ _______ _____ _____    ______ ____
ROOT
ATOM      1  C   UNL     1       8.181   9.951  17.716  0.00  0.00    +0.000 C 
ENDROOT
BRANCH   1   6
ATOM      2  C   UNL     1      10.843  12.240  18.792  0.00  0.00    +0.000 C 
ATOM      3  C   UNL     1      11.823  11.515  19.714  0.00  0.00    +0.000 C 
ATOM      4  C   UNL     1      10.380  11.631  20.082  0.00  0.00    +0.000 C 
ATOM      5  C   UNL     1       9.431  10.521  19.759  0.00  0.00    +0.000 C 
ATOM      6  N   UNL     1       8.931  10.960  18.453  0.00  0.00    +0.000 NA
ATOM      7  C   UNL     1      10.083  11.502  17.704  0.00  0.00    +0.000 C 
BRANCH   2  12
ATOM      8  C   UNL     1      10.300  16.021  19.003  0.00  0.00    +0.000 A 
ATOM      9  C   UNL     1      11.314  16.495  18.173  0.00  0.00    +0.000 A 
ATOM     10  C   UNL     1      12.226  15.611  17.595  0.00  0.00    +0.000 A 
ATOM     11  C   UNL     1      12.103  14.238  17.818  0.00  0.00    +0.000 A 
ATOM     12  C   UNL     1      11.073  13.726  18.621  0.00  0.00    +0.000 A 
ATOM     13  C   UNL     1      10.207  14.649  19.241  0.00  0.00    +0.000 A 
BRANCH   8  15
ATOM     14  C   UNL     1       8.348  17.340  18.676  0.00  0.00    +0.000 C 
ATOM     15  O   UNL     1       9.456  16.978  19.494  0.00  0.00    +0.000 OA
ENDBRANCH   8  15
ENDBRANCH   2  12
ENDBRANCH   1   6
BRANCH   1  16
ATOM     16  C   UNL     1       8.317   8.541  18.311  0.00  0.00    +0.000 C 
BRANCH  16  17
ATOM     17  C   UNL     1       7.732   7.441  17.418  0.00  0.00    +0.000 C 
BRANCH  17  18
ATOM     18  S   UNL     1       7.331   6.016  18.473  0.00  0.00    +0.000 S 
BRANCH  18  19
ATOM     19  C   UNL     1       5.634   5.829  18.216  0.00  0.00    +0.000 A 
ATOM     20  N   UNL     1       4.834   6.607  17.527  0.00  0.00    +0.000 NA
ATOM     21  N   UNL     1       3.571   6.059  17.590  0.00  0.00    +0.000 NA
ATOM     22  C   UNL     1       3.622   4.974  18.338  0.00  0.00    +0.000 A 
ATOM     23  N   UNL     1       4.927   4.772  18.727  0.00  0.00    +0.000 N 
ATOM     24  C   UNL     1       5.474   3.654  19.447  0.00  0.00    +0.000 C 
BRANCH  22  25
ATOM     25  C   UNL     1       2.499   4.157  18.662  0.00  0.00    +0.000 A 
ATOM     26  O   UNL     1       2.114   3.054  17.930  0.00  0.00    +0.000 OA
ATOM     27  C   UNL     1       1.024   2.569  18.579  0.00  0.00    +0.000 A 
ATOM     28  N   UNL     1       0.663   3.246  19.640  0.00  0.00    +0.000 NA
ATOM     29  C   UNL     1       1.599   4.257  19.714  0.00  0.00    +0.000 A 
ATOM     30  C   UNL     1       1.530   5.269  20.792  0.00  0.00    +0.000 C 
ENDBRANCH  22  25
ENDBRANCH  18  19
ENDBRANCH  17  18
ENDBRANCH  16  17
ENDBRANCH   1  16
TORSDOF 8
ENDMDL
