MODEL 1
REMARK VINA RESULT:      -7.4      0.000      0.000
REMARK  Name = 
REMARK  3 active torsions:
REMARK  status: ('A' for Active; 'I' for Inactive)
REMARK    1  A    between atoms: C_7  and  C_8
REMARK    2  A    between atoms: N_17  and  C_18
REMARK    3  A    between atoms: C_23  and  C_24
REMARK                            x       y       z     vdW  Elec       q    Type
REMARK                         _______ _______ _______ _____ _____    ______ ____
ROOT
ATOM      1  O   UNL     1      -0.304  10.015  18.311  0.00  0.00    +0.000 OA
ATOM      2  C   UNL     1      -0.058  10.085  19.511  0.00  0.00    +0.000 C 
ATOM      3  N   UNL     1       0.884   9.317  20.140  0.00  0.00    +0.000 N 
ATOM      4  C   UNL     1       1.727   8.460  19.433  0.00  0.00    +0.000 A 
ATOM      5  C   UNL     1       2.291   8.827  18.219  0.00  0.00    +0.000 A 
ATOM      6  C   UNL     1       3.082   7.903  17.544  0.00  0.00    +0.000 A 
ATOM      7  C   UNL     1       3.269   6.637  18.096  0.00  0.00    +0.000 A 
ATOM      8  C   UNL     1       2.680   6.372  19.324  0.00  0.00    +0.000 A 
ATOM      9  N   UNL     1       1.946   7.269  20.022  0.00  0.00    +0.000 NA
ATOM     10  N   UNL     1      -0.735  10.957  20.332  0.00  0.00    +0.000 N 
ATOM     11  C   UNL     1      -0.417  11.260  21.744  0.00  0.00    +0.000 C 
ATOM     12  C   UNL     1      -0.371  12.784  21.996  0.00  0.00    +0.000 C 
ATOM     13  N   UNL     1      -1.655  13.337  21.530  0.00  0.00    +0.000 N 
ATOM     14  C   UNL     1      -1.829  13.180  20.076  0.00  0.00    +0.000 C 
ATOM     15  C   UNL     1      -1.898  11.669  19.780  0.00  0.00    +0.000 C 
ATOM     16  H   UNL     1       0.613   8.936  21.031  0.00  0.00    +0.000 HD
ENDROOT
BRANCH  13  17
ATOM     17  C   UNL     1      -2.217  14.378  22.224  0.00  0.00    +0.000 A 
ATOM     18  N   UNL     1      -1.630  15.595  22.079  0.00  0.00    +0.000 NA
ATOM     19  C   UNL     1      -2.073  16.642  22.808  0.00  0.00    +0.000 A 
ATOM     20  C   UNL     1      -3.100  16.560  23.714  0.00  0.00    +0.000 A 
ATOM     21  C   UNL     1      -3.706  15.323  23.870  0.00  0.00    +0.000 A 
ATOM     22  C   UNL     1      -3.265  14.205  23.134  0.00  0.00    +0.000 A 
BRANCH  22  23
ATOM     23  C   UNL     1      -3.928  12.901  23.469  0.00  0.00    +0.000 C 
ATOM     24  F   UNL     1      -3.143  11.884  23.903  0.00  0.00    +0.000 F 
ATOM     25  F   UNL     1      -4.868  13.048  24.450  0.00  0.00    +0.000 F 
ATOM     26  F   UNL     1      -4.609  12.396  22.398  0.00  0.00    +0.000 F 
ENDBRANCH  22  23
ENDBRANCH  13  17
BRANCH   7  27
ATOM     27  C   UNL     1       4.062   5.565  17.414  0.00  0.00    +0.000 C 
ATOM     28  F   UNL     1       3.327   4.463  17.101  0.00  0.00    +0.000 F 
ATOM     29  F   UNL     1       4.609   5.990  16.243  0.00  0.00    +0.000 F 
ATOM     30  F   UNL     1       5.100   5.118  18.170  0.00  0.00    +0.000 F 
ENDBRANCH   7  27
TORSDOF 3
ENDMDL
MODEL 2
REMARK VINA RESULT:      -7.4      1.760      2.320
REMARK  Name = 
REMARK  3 active torsions:
REMARK  status: ('A' for Active; 'I' for Inactive)
REMARK    1  A    between atoms: C_7  and  C_8
REMARK    2  A    between atoms: N_17  and  C_18
REMARK    3  A    between atoms: C_23  and  C_24
REMARK                            x       y       z     vdW  Elec       q    Type
REMARK                         _______ _______ _______ _____ _____    ______ ____
ROOT
ATOM      1  O   UNL     1       1.686   9.373  17.463  0.00  0.00    +0.000 OA
ATOM      2  C   UNL     1       1.563   9.132  18.660  0.00  0.00    +0.000 C 
ATOM      3  N   UNL     1       2.045   8.001  19.260  0.00  0.00    +0.000 N 
ATOM      4  C   UNL     1       2.822   7.073  18.567  0.00  0.00    +0.000 A 
ATOM      5  C   UNL     1       3.803   7.467  17.668  0.00  0.00    +0.000 A 
ATOM      6  C   UNL     1       4.506   6.488  16.974  0.00  0.00    +0.000 A 
ATOM      7  C   UNL     1       4.193   5.147  17.189  0.00  0.00    +0.000 A 
ATOM      8  C   UNL     1       3.211   4.852  18.123  0.00  0.00    +0.000 A 
ATOM      9  N   UNL     1       2.547   5.784  18.844  0.00  0.00    +0.000 NA
ATOM     10  N   UNL     1       0.907  10.000  19.503  0.00  0.00    +0.000 N 
ATOM     11  C   UNL     1       0.844   9.911  20.977  0.00  0.00    +0.000 C 
ATOM     12  C   UNL     1       1.189  11.265  21.637  0.00  0.00    +0.000 C 
ATOM     13  N   UNL     1       0.290  12.274  21.049  0.00  0.00    +0.000 N 
ATOM     14  C   UNL     1       0.535  12.460  19.609  0.00  0.00    +0.000 C 
ATOM     15  C   UNL     1       0.185  11.133  18.906  0.00  0.00    +0.000 C 
ATOM     16  H   UNL     1       1.428   7.562  19.924  0.00  0.00    +0.000 HD
ENDROOT
BRANCH  13  17
ATOM     17  C   UNL     1      -0.179  13.286  21.847  0.00  0.00    +0.000 A 
ATOM     18  N   UNL     1       0.538  14.440  21.853  0.00  0.00    +0.000 NA
ATOM     19  C   UNL     1       0.186  15.442  22.687  0.00  0.00    +0.000 A 
ATOM     20  C   UNL     1      -0.871  15.372  23.559  0.00  0.00    +0.000 A 
ATOM     21  C   UNL     1      -1.609  14.198  23.563  0.00  0.00    +0.000 A 
ATOM     22  C   UNL     1      -1.267  13.128  22.713  0.00  0.00    +0.000 A 
BRANCH  22  23
ATOM     23  C   UNL     1      -2.074  11.875  22.885  0.00  0.00    +0.000 C 
ATOM     24  F   UNL     1      -1.448  10.780  23.381  0.00  0.00    +0.000 F 
ATOM     25  F   UNL     1      -3.136  12.067  23.723  0.00  0.00    +0.000 F 
ATOM     26  F   UNL     1      -2.625  11.468  21.702  0.00  0.00    +0.000 F 
ENDBRANCH  22  23
ENDBRANCH  13  17
BRANCH   7  27
ATOM     27  C   UNL     1       4.863   4.031  16.448  0.00  0.00    +0.000 C 
ATOM     28  F   UNL     1       6.209   3.981  16.643  0.00  0.00    +0.000 F 
ATOM     29  F   UNL     1       4.390   2.809  16.814  0.00  0.00    +0.000 F 
ATOM     30  F   UNL     1       4.684   4.112  15.102  0.00  0.00    +0.000 F 
ENDBRANCH   7  27
TORSDOF 3
ENDMDL
MODEL 3
REMARK VINA RESULT:      -7.4      0.161      1.006
REMARK  Name = 
REMARK  3 active torsions:
REMARK  status: ('A' for Active; 'I' for Inactive)
REMARK    1  A    between atoms: C_7  and  C_8
REMARK    2  A    between atoms: N_17  and  C_18
REMARK    3  A    between atoms: C_23  and  C_24
REMARK                            x       y       z     vdW  Elec       q    Type
REMARK                         _______ _______ _______ _____ _____    ______ ____
ROOT
ATOM      1  O   UNL     1      -0.175   9.976  18.225  0.00  0.00    +0.000 OA
ATOM      2  C   UNL     1       0.043  10.022  19.432  0.00  0.00    +0.000 C 
ATOM      3  N   UNL     1       0.958   9.230  20.070  0.00  0.00    +0.000 N 
ATOM      4  C   UNL     1       1.805   8.372  19.368  0.00  0.00    +0.000 A 
ATOM      5  C   UNL     1       2.404   8.751  18.175  0.00  0.00    +0.000 A 
ATOM      6  C   UNL     1       3.197   7.827  17.504  0.00  0.00    +0.000 A 
ATOM      7  C   UNL     1       3.353   6.549  18.037  0.00  0.00    +0.000 A 
ATOM      8  C   UNL     1       2.731   6.272  19.247  0.00  0.00    +0.000 A 
ATOM      9  N   UNL     1       1.993   7.168  19.942  0.00  0.00    +0.000 NA
ATOM     10  N   UNL     1      -0.641  10.891  20.252  0.00  0.00    +0.000 N 
ATOM     11  C   UNL     1      -0.353  11.165  21.676  0.00  0.00    +0.000 C 
ATOM     12  C   UNL     1      -0.291  12.683  21.955  0.00  0.00    +0.000 C 
ATOM     13  N   UNL     1      -1.555  13.263  21.468  0.00  0.00    +0.000 N 
ATOM     14  C   UNL     1      -1.697  13.133  20.007  0.00  0.00    +0.000 C 
ATOM     15  C   UNL     1      -1.780  11.628  19.685  0.00  0.00    +0.000 C 
ATOM     16  H   UNL     1       0.660   8.838  20.948  0.00  0.00    +0.000 HD
ENDROOT
BRANCH  13  17
ATOM     17  C   UNL     1      -2.118  14.301  22.166  0.00  0.00    +0.000 A 
ATOM     18  N   UNL     1      -1.504  15.508  22.065  0.00  0.00    +0.000 NA
ATOM     19  C   UNL     1      -1.950  16.549  22.801  0.00  0.00    +0.000 A 
ATOM     20  C   UNL     1      -3.006  16.468  23.674  0.00  0.00    +0.000 A 
ATOM     21  C   UNL     1      -3.639  15.241  23.786  0.00  0.00    +0.000 A 
ATOM     22  C   UNL     1      -3.197  14.130  23.040  0.00  0.00    +0.000 A 
BRANCH  22  23
ATOM     23  C   UNL     1      -3.894  12.833  23.327  0.00  0.00    +0.000 C 
ATOM     24  F   UNL     1      -4.933  12.850  24.198  0.00  0.00    +0.000 F 
ATOM     25  F   UNL     1      -4.412  12.274  22.193  0.00  0.00    +0.000 F 
ATOM     26  F   UNL     1      -3.030  11.897  23.821  0.00  0.00    +0.000 F 
ENDBRANCH  22  23
ENDBRANCH  13  17
BRANCH   7  27
ATOM     27  C   UNL     1       4.146   5.477  17.356  0.00  0.00    +0.000 C 
ATOM     28  F   UNL     1       4.678   5.870  16.166  0.00  0.00    +0.000 F 
ATOM     29  F   UNL     1       5.195   5.050  18.109  0.00  0.00    +0.000 F 
ATOM     30  F   UNL     1       3.405   4.368  17.086  0.00  0.00    +0.000 F 
ENDBRANCH   7  27
TORSDOF 3
ENDMDL
MODEL 4
REMARK VINA RESULT:      -7.3      0.510      1.061
REMARK  Name = 
REMARK  3 active torsions:
REMARK  status: ('A' for Active; 'I' for Inactive)
REMARK    1  A    between atoms: C_7  and  C_8
REMARK    2  A    between atoms: N_17  and  C_18
REMARK    3  A    between atoms: C_23  and  C_24
REMARK                            x       y       z     vdW  Elec       q    Type
REMARK                         _______ _______ _______ _____ _____    ______ ____
ROOT
ATOM      1  O   UNL     1      -0.654  10.181  18.677  0.00  0.00    +0.000 OA
ATOM      2  C   UNL     1      -0.340  10.287  19.859  0.00  0.00    +0.000 C 
ATOM      3  N   UNL     1       0.661   9.562  20.447  0.00  0.00    +0.000 N 
ATOM      4  C   UNL     1       1.488   8.715  19.709  0.00  0.00    +0.000 A 
ATOM      5  C   UNL     1       1.968   9.071  18.456  0.00  0.00    +0.000 A 
ATOM      6  C   UNL     1       2.747   8.156  17.756  0.00  0.00    +0.000 A 
ATOM      7  C   UNL     1       3.007   6.910  18.322  0.00  0.00    +0.000 A 
ATOM      8  C   UNL     1       2.499   6.655  19.588  0.00  0.00    +0.000 A 
ATOM      9  N   UNL     1       1.779   7.545  20.309  0.00  0.00    +0.000 NA
ATOM     10  N   UNL     1      -0.996  11.156  20.700  0.00  0.00    +0.000 N 
ATOM     11  C   UNL     1      -0.605  11.501  22.083  0.00  0.00    +0.000 C 
ATOM     12  C   UNL     1      -0.593  13.030  22.300  0.00  0.00    +0.000 C 
ATOM     13  N   UNL     1      -1.919  13.533  21.899  0.00  0.00    +0.000 N 
ATOM     14  C   UNL     1      -2.173  13.338  20.462  0.00  0.00    +0.000 C 
ATOM     15  C   UNL     1      -2.211  11.819  20.203  0.00  0.00    +0.000 C 
ATOM     16  H   UNL     1       0.455   9.193  21.360  0.00  0.00    +0.000 HD
ENDROOT
BRANCH  13  17
ATOM     17  C   UNL     1      -2.472  14.572  22.604  0.00  0.00    +0.000 A 
ATOM     18  N   UNL     1      -1.776  15.739  22.617  0.00  0.00    +0.000 NA
ATOM     19  C   UNL     1      -2.215  16.772  23.368  0.00  0.00    +0.000 A 
ATOM     20  C   UNL     1      -3.344  16.721  24.147  0.00  0.00    +0.000 A 
ATOM     21  C   UNL     1      -4.062  15.536  24.142  0.00  0.00    +0.000 A 
ATOM     22  C   UNL     1      -3.630  14.434  23.377  0.00  0.00    +0.000 A 
BRANCH  22  23
ATOM     23  C   UNL     1      -4.430  13.175  23.537  0.00  0.00    +0.000 C 
ATOM     24  F   UNL     1      -4.861  12.550  22.413  0.00  0.00    +0.000 F 
ATOM     25  F   UNL     1      -3.734  12.214  24.214  0.00  0.00    +0.000 F 
ATOM     26  F   UNL     1      -5.556  13.388  24.281  0.00  0.00    +0.000 F 
ENDBRANCH  22  23
ENDBRANCH  13  17
BRANCH   7  27
ATOM     27  C   UNL     1       3.791   5.847  17.616  0.00  0.00    +0.000 C 
ATOM     28  F   UNL     1       4.765   5.289  18.388  0.00  0.00    +0.000 F 
ATOM     29  F   UNL     1       3.010   4.815  17.201  0.00  0.00    +0.000 F 
ATOM     30  F   UNL     1       4.419   6.311  16.502  0.00  0.00    +0.000 F 
ENDBRANCH   7  27
TORSDOF 3
ENDMDL
MODEL 5
REMARK VINA RESULT:      -7.2      2.850      3.774
REMARK  Name = 
REMARK  3 active torsions:
REMARK  status: ('A' for Active; 'I' for Inactive)
REMARK    1  A    between atoms: C_7  and  C_8
REMARK    2  A    between atoms: N_17  and  C_18
REMARK    3  A    between atoms: C_23  and  C_24
REMARK                            x       y       z     vdW  Elec       q    Type
REMARK                         _______ _______ _______ _____ _____    ______ ____
ROOT
ATOM      1  O   UNL     1       2.041   8.922  17.080  0.00  0.00    +0.000 OA
ATOM      2  C   UNL     1       1.919   8.518  18.232  0.00  0.00    +0.000 C 
ATOM      3  N   UNL     1       2.544   7.401  18.716  0.00  0.00    +0.000 N 
ATOM      4  C   UNL     1       3.469   6.687  17.955  0.00  0.00    +0.000 A 
ATOM      5  C   UNL     1       4.409   7.326  17.157  0.00  0.00    +0.000 A 
ATOM      6  C   UNL     1       5.268   6.551  16.387  0.00  0.00    +0.000 A 
ATOM      7  C   UNL     1       5.150   5.163  16.424  0.00  0.00    +0.000 A 
ATOM      8  C   UNL     1       4.194   4.617  17.269  0.00  0.00    +0.000 A 
ATOM      9  N   UNL     1       3.378   5.348  18.064  0.00  0.00    +0.000 NA
ATOM     10  N   UNL     1       1.118   9.172  19.140  0.00  0.00    +0.000 N 
ATOM     11  C   UNL     1       1.023   8.892  20.588  0.00  0.00    +0.000 C 
ATOM     12  C   UNL     1       1.146  10.187  21.421  0.00  0.00    +0.000 C 
ATOM     13  N   UNL     1       0.126  11.123  20.915  0.00  0.00    +0.000 N 
ATOM     14  C   UNL     1       0.384  11.521  19.521  0.00  0.00    +0.000 C 
ATOM     15  C   UNL     1       0.254  10.256  18.649  0.00  0.00    +0.000 C 
ATOM     16  H   UNL     1       1.979   6.800  19.292  0.00  0.00    +0.000 HD
ENDROOT
BRANCH  13  17
ATOM     17  C   UNL     1      -0.511  11.951  21.805  0.00  0.00    +0.000 A 
ATOM     18  N   UNL     1      -1.644  11.471  22.381  0.00  0.00    +0.000 NA
ATOM     19  C   UNL     1      -2.371  12.268  23.193  0.00  0.00    +0.000 A 
ATOM     20  C   UNL     1      -2.040  13.569  23.480  0.00  0.00    +0.000 A 
ATOM     21  C   UNL     1      -0.886  14.069  22.896  0.00  0.00    +0.000 A 
ATOM     22  C   UNL     1      -0.107  13.270  22.037  0.00  0.00    +0.000 A 
BRANCH  22  23
ATOM     23  C   UNL     1       1.057  13.956  21.385  0.00  0.00    +0.000 C 
ATOM     24  F   UNL     1       2.192  13.239  21.196  0.00  0.00    +0.000 F 
ATOM     25  F   UNL     1       0.739  14.422  20.140  0.00  0.00    +0.000 F 
ATOM     26  F   UNL     1       1.445  15.062  22.088  0.00  0.00    +0.000 F 
ENDBRANCH  22  23
ENDBRANCH  13  17
BRANCH   7  27
ATOM     27  C   UNL     1       5.999   4.255  15.589  0.00  0.00    +0.000 C 
ATOM     28  F   UNL     1       5.835   4.439  14.250  0.00  0.00    +0.000 F 
ATOM     29  F   UNL     1       7.327   4.423  15.827  0.00  0.00    +0.000 F 
ATOM     30  F   UNL     1       5.742   2.939  15.819  0.00  0.00    +0.000 F 
ENDBRANCH   7  27
TORSDOF 3
ENDMDL
MODEL 6
REMARK VINA RESULT:      -7.2      1.628      2.206
REMARK  Name = 
REMARK  3 active torsions:
REMARK  status: ('A' for Active; 'I' for Inactive)
REMARK    1  A    between atoms: C_7  and  C_8
REMARK    2  A    between atoms: N_17  and  C_18
REMARK    3  A    between atoms: C_23  and  C_24
REMARK                            x       y       z     vdW  Elec       q    Type
REMARK                         _______ _______ _______ _____ _____    ______ ____
ROOT
ATOM      1  O   UNL     1       1.658   9.477  17.458  0.00  0.00    +0.000 OA
ATOM      2  C   UNL     1       1.461   9.255  18.649  0.00  0.00    +0.000 C 
ATOM      3  N   UNL     1       1.878   8.120  19.290  0.00  0.00    +0.000 N 
ATOM      4  C   UNL     1       2.668   7.163  18.653  0.00  0.00    +0.000 A 
ATOM      5  C   UNL     1       3.710   7.521  17.807  0.00  0.00    +0.000 A 
ATOM      6  C   UNL     1       4.425   6.514  17.167  0.00  0.00    +0.000 A 
ATOM      7  C   UNL     1       4.066   5.185  17.380  0.00  0.00    +0.000 A 
ATOM      8  C   UNL     1       3.024   4.928  18.260  0.00  0.00    +0.000 A 
ATOM      9  N   UNL     1       2.344   5.886  18.930  0.00  0.00    +0.000 NA
ATOM     10  N   UNL     1       0.780  10.151  19.443  0.00  0.00    +0.000 N 
ATOM     11  C   UNL     1       0.631  10.084  20.912  0.00  0.00    +0.000 C 
ATOM     12  C   UNL     1       0.973  11.437  21.574  0.00  0.00    +0.000 C 
ATOM     13  N   UNL     1       0.135  12.460  20.923  0.00  0.00    +0.000 N 
ATOM     14  C   UNL     1       0.467  12.621  19.498  0.00  0.00    +0.000 C 
ATOM     15  C   UNL     1       0.123  11.294  18.792  0.00  0.00    +0.000 C 
ATOM     16  H   UNL     1       1.213   7.706  19.922  0.00  0.00    +0.000 HD
ENDROOT
BRANCH  13  17
ATOM     17  C   UNL     1      -0.352  13.495  21.681  0.00  0.00    +0.000 A 
ATOM     18  N   UNL     1       0.462  14.570  21.839  0.00  0.00    +0.000 NA
ATOM     19  C   UNL     1       0.084  15.582  22.650  0.00  0.00    +0.000 A 
ATOM     20  C   UNL     1      -1.097  15.597  23.350  0.00  0.00    +0.000 A 
ATOM     21  C   UNL     1      -1.934  14.504  23.197  0.00  0.00    +0.000 A 
ATOM     22  C   UNL     1      -1.570  13.425  22.366  0.00  0.00    +0.000 A 
BRANCH  22  23
ATOM     23  C   UNL     1      -2.510  12.256  22.366  0.00  0.00    +0.000 C 
ATOM     24  F   UNL     1      -3.723  12.418  22.948  0.00  0.00    +0.000 F 
ATOM     25  F   UNL     1      -2.795  11.835  21.097  0.00  0.00    +0.000 F 
ATOM     26  F   UNL     1      -1.958  11.170  22.984  0.00  0.00    +0.000 F 
ENDBRANCH  22  23
ENDBRANCH  13  17
BRANCH   7  27
ATOM     27  C   UNL     1       4.747   4.042  16.693  0.00  0.00    +0.000 C 
ATOM     28  F   UNL     1       4.635   4.080  15.336  0.00  0.00    +0.000 F 
ATOM     29  F   UNL     1       6.081   4.001  16.954  0.00  0.00    +0.000 F 
ATOM     30  F   UNL     1       4.255   2.832  17.073  0.00  0.00    +0.000 F 
ENDBRANCH   7  27
TORSDOF 3
ENDMDL
MODEL 7
REMARK VINA RESULT:      -7.1      2.028     10.383
REMARK  Name = 
REMARK  3 active torsions:
REMARK  status: ('A' for Active; 'I' for Inactive)
REMARK    1  A    between atoms: C_7  and  C_8
REMARK    2  A    between atoms: N_17  and  C_18
REMARK    3  A    between atoms: C_23  and  C_24
REMARK                            x       y       z     vdW  Elec       q    Type
REMARK                         _______ _______ _______ _____ _____    ______ ____
ROOT
ATOM      1  O   UNL     1       0.680   8.956  21.537  0.00  0.00    +0.000 OA
ATOM      2  C   UNL     1       0.726   9.127  20.322  0.00  0.00    +0.000 C 
ATOM      3  N   UNL     1       0.156  10.195  19.683  0.00  0.00    +0.000 N 
ATOM      4  C   UNL     1      -0.434  11.244  20.387  0.00  0.00    +0.000 A 
ATOM      5  C   UNL     1       0.133  11.759  21.545  0.00  0.00    +0.000 A 
ATOM      6  C   UNL     1      -0.536  12.773  22.222  0.00  0.00    +0.000 A 
ATOM      7  C   UNL     1      -1.758  13.228  21.730  0.00  0.00    +0.000 A 
ATOM      8  C   UNL     1      -2.233  12.665  20.554  0.00  0.00    +0.000 A 
ATOM      9  N   UNL     1      -1.578  11.711  19.852  0.00  0.00    +0.000 NA
ATOM     10  N   UNL     1       1.361   8.229  19.495  0.00  0.00    +0.000 N 
ATOM     11  C   UNL     1       1.635   8.407  18.053  0.00  0.00    +0.000 C 
ATOM     12  C   UNL     1       3.108   8.083  17.716  0.00  0.00    +0.000 C 
ATOM     13  N   UNL     1       3.378   6.726  18.225  0.00  0.00    +0.000 N 
ATOM     14  C   UNL     1       3.282   6.657  19.692  0.00  0.00    +0.000 C 
ATOM     15  C   UNL     1       1.819   6.957  20.073  0.00  0.00    +0.000 C 
ATOM     16  H   UNL     1      -0.336   9.982  18.831  0.00  0.00    +0.000 HD
ENDROOT
BRANCH  13  17
ATOM     17  C   UNL     1       4.213   5.907  17.508  0.00  0.00    +0.000 A 
ATOM     18  N   UNL     1       5.346   6.472  17.015  0.00  0.00    +0.000 NA
ATOM     19  C   UNL     1       6.164   5.747  16.221  0.00  0.00    +0.000 A 
ATOM     20  C   UNL     1       5.920   4.445  15.862  0.00  0.00    +0.000 A 
ATOM     21  C   UNL     1       4.766   3.860  16.358  0.00  0.00    +0.000 A 
ATOM     22  C   UNL     1       3.884   4.587  17.182  0.00  0.00    +0.000 A 
BRANCH  22  23
ATOM     23  C   UNL     1       2.619   3.879  17.568  0.00  0.00    +0.000 C 
ATOM     24  F   UNL     1       1.443   4.516  17.347  0.00  0.00    +0.000 F 
ATOM     25  F   UNL     1       2.486   2.686  16.915  0.00  0.00    +0.000 F 
ATOM     26  F   UNL     1       2.608   3.560  18.897  0.00  0.00    +0.000 F 
ENDBRANCH  22  23
ENDBRANCH  13  17
BRANCH   7  27
ATOM     27  C   UNL     1      -2.570  14.278  22.424  0.00  0.00    +0.000 C 
ATOM     28  F   UNL     1      -2.254  14.426  23.740  0.00  0.00    +0.000 F 
ATOM     29  F   UNL     1      -2.413  15.508  21.864  0.00  0.00    +0.000 F 
ATOM     30  F   UNL     1      -3.904  14.018  22.387  0.00  0.00    +0.000 F 
ENDBRANCH   7  27
TORSDOF 3
ENDMDL
MODEL 8
REMARK VINA RESULT:      -7.1      2.401      3.409
REMARK  Name = 
REMARK  3 active torsions:
REMARK  status: ('A' for Active; 'I' for Inactive)
REMARK    1  A    between atoms: C_7  and  C_8
REMARK    2  A    between atoms: N_17  and  C_18
REMARK    3  A    between atoms: C_23  and  C_24
REMARK                            x       y       z     vdW  Elec       q    Type
REMARK                         _______ _______ _______ _____ _____    ______ ____
ROOT
ATOM      1  O   UNL     1       2.575   9.126  17.038  0.00  0.00    +0.000 OA
ATOM      2  C   UNL     1       2.153   8.625  18.076  0.00  0.00    +0.000 C 
ATOM      3  N   UNL     1       2.585   7.425  18.571  0.00  0.00    +0.000 N 
ATOM      4  C   UNL     1       3.635   6.720  17.981  0.00  0.00    +0.000 A 
ATOM      5  C   UNL     1       4.771   7.361  17.508  0.00  0.00    +0.000 A 
ATOM      6  C   UNL     1       5.756   6.602  16.887  0.00  0.00    +0.000 A 
ATOM      7  C   UNL     1       5.567   5.229  16.743  0.00  0.00    +0.000 A 
ATOM      8  C   UNL     1       4.407   4.677  17.269  0.00  0.00    +0.000 A 
ATOM      9  N   UNL     1       3.456   5.387  17.918  0.00  0.00    +0.000 NA
ATOM     10  N   UNL     1       1.184   9.246  18.830  0.00  0.00    +0.000 N 
ATOM     11  C   UNL     1       0.722   8.839  20.174  0.00  0.00    +0.000 C 
ATOM     12  C   UNL     1       0.697  10.038  21.148  0.00  0.00    +0.000 C 
ATOM     13  N   UNL     1      -0.121  11.089  20.516  0.00  0.00    +0.000 N 
ATOM     14  C   UNL     1       0.491  11.597  19.277  0.00  0.00    +0.000 C 
ATOM     15  C   UNL     1       0.521  10.432  18.267  0.00  0.00    +0.000 C 
ATOM     16  H   UNL     1       1.868   6.814  18.925  0.00  0.00    +0.000 HD
ENDROOT
BRANCH  13  17
ATOM     17  C   UNL     1      -0.918  11.873  21.312  0.00  0.00    +0.000 A 
ATOM     18  N   UNL     1      -0.511  12.050  22.596  0.00  0.00    +0.000 NA
ATOM     19  C   UNL     1      -1.296  12.732  23.458  0.00  0.00    +0.000 A 
ATOM     20  C   UNL     1      -2.513  13.268  23.119  0.00  0.00    +0.000 A 
ATOM     21  C   UNL     1      -2.938  13.092  21.812  0.00  0.00    +0.000 A 
ATOM     22  C   UNL     1      -2.151  12.380  20.886  0.00  0.00    +0.000 A 
BRANCH  22  23
ATOM     23  C   UNL     1      -2.766  12.167  19.534  0.00  0.00    +0.000 C 
ATOM     24  F   UNL     1      -2.784  10.905  19.038  0.00  0.00    +0.000 F 
ATOM     25  F   UNL     1      -4.073  12.562  19.504  0.00  0.00    +0.000 F 
ATOM     26  F   UNL     1      -2.145  12.919  18.578  0.00  0.00    +0.000 F 
ENDBRANCH  22  23
ENDBRANCH  13  17
BRANCH   7  27
ATOM     27  C   UNL     1       6.551   4.344  16.043  0.00  0.00    +0.000 C 
ATOM     28  F   UNL     1       6.023   3.154  15.645  0.00  0.00    +0.000 F 
ATOM     29  F   UNL     1       7.057   4.919  14.919  0.00  0.00    +0.000 F 
ATOM     30  F   UNL     1       7.624   4.035  16.819  0.00  0.00    +0.000 F 
ENDBRANCH   7  27
TORSDOF 3
ENDMDL
MODEL 9
REMARK VINA RESULT:      -7.0      1.425      1.918
REMARK  Name = 
REMARK  3 active torsions:
REMARK  status: ('A' for Active; 'I' for Inactive)
REMARK    1  A    between atoms: C_7  and  C_8
REMARK    2  A    between atoms: N_17  and  C_18
REMARK    3  A    between atoms: C_23  and  C_24
REMARK                            x       y       z     vdW  Elec       q    Type
REMARK                         _______ _______ _______ _____ _____    ______ ____
ROOT
ATOM      1  O   UNL     1       0.851   9.288  17.518  0.00  0.00    +0.000 OA
ATOM      2  C   UNL     1       0.910   9.375  18.741  0.00  0.00    +0.000 C 
ATOM      3  N   UNL     1       1.622   8.513  19.530  0.00  0.00    +0.000 N 
ATOM      4  C   UNL     1       2.437   7.520  18.987  0.00  0.00    +0.000 A 
ATOM      5  C   UNL     1       3.235   7.755  17.875  0.00  0.00    +0.000 A 
ATOM      6  C   UNL     1       3.985   6.705  17.358  0.00  0.00    +0.000 A 
ATOM      7  C   UNL     1       3.902   5.450  17.957  0.00  0.00    +0.000 A 
ATOM      8  C   UNL     1       3.093   5.320  19.078  0.00  0.00    +0.000 A 
ATOM      9  N   UNL     1       2.390   6.337  19.628  0.00  0.00    +0.000 NA
ATOM     10  N   UNL     1       0.240  10.365  19.422  0.00  0.00    +0.000 N 
ATOM     11  C   UNL     1       0.368  10.681  20.861  0.00  0.00    +0.000 C 
ATOM     12  C   UNL     1       0.588  12.193  21.087  0.00  0.00    +0.000 C 
ATOM     13  N   UNL     1      -0.515  12.896  20.406  0.00  0.00    +0.000 N 
ATOM     14  C   UNL     1      -0.475  12.702  18.946  0.00  0.00    +0.000 C 
ATOM     15  C   UNL     1      -0.708  11.203  18.674  0.00  0.00    +0.000 C 
ATOM     16  H   UNL     1       1.161   8.210  20.372  0.00  0.00    +0.000 HD
ENDROOT
BRANCH  13  17
ATOM     17  C   UNL     1      -1.028  14.032  20.979  0.00  0.00    +0.000 A 
ATOM     18  N   UNL     1      -0.245  15.141  20.939  0.00  0.00    +0.000 NA
ATOM     19  C   UNL     1      -0.648  16.267  21.567  0.00  0.00    +0.000 A 
ATOM     20  C   UNL     1      -1.825  16.370  22.267  0.00  0.00    +0.000 A 
ATOM     21  C   UNL     1      -2.630  15.243  22.314  0.00  0.00    +0.000 A 
ATOM     22  C   UNL     1      -2.239  14.048  21.679  0.00  0.00    +0.000 A 
BRANCH  22  23
ATOM     23  C   UNL     1      -3.144  12.870  21.891  0.00  0.00    +0.000 C 
ATOM     24  F   UNL     1      -4.286  13.066  22.594  0.00  0.00    +0.000 F 
ATOM     25  F   UNL     1      -3.563  12.333  20.706  0.00  0.00    +0.000 F 
ATOM     26  F   UNL     1      -2.498  11.852  22.533  0.00  0.00    +0.000 F 
ENDBRANCH  22  23
ENDBRANCH  13  17
BRANCH   7  27
ATOM     27  C   UNL     1       4.634   4.253  17.435  0.00  0.00    +0.000 C 
ATOM     28  F   UNL     1       5.917   4.165  17.881  0.00  0.00    +0.000 F 
ATOM     29  F   UNL     1       4.037   3.084  17.791  0.00  0.00    +0.000 F 
ATOM     30  F   UNL     1       4.709   4.235  16.077  0.00  0.00    +0.000 F 
ENDBRANCH   7  27
TORSDOF 3
ENDMDL
