MODEL 1
REMARK VINA RESULT:      -8.1      0.000      0.000
REMARK  Name = 
REMARK  9 active torsions:
REMARK  status: ('A' for Active; 'I' for Inactive)
REMARK    1  A    between atoms: C_1  and  N_2
REMARK    2  A    between atoms: N_2  and  C_3
REMARK    3  A    between atoms: C_4  and  C_6
REMARK    4  A    between atoms: C_6  and  O_7
REMARK    5  A    between atoms: O_7  and  C_8
REMARK    6  A    between atoms: C_11  and  C_12
REMARK    7  A    between atoms: C_15  and  N_16
REMARK    8  A    between atoms: C_17  and  C_18
REMARK    9  A    between atoms: C_21  and  C_22
REMARK                            x       y       z     vdW  Elec       q    Type
REMARK                         _______ _______ _______ _____ _____    ______ ____
ROOT
ATOM      1  C   UNL     1       2.780   6.460  19.387  0.00  0.00    +0.000 A 
ATOM      2  C   UNL     1       2.809   5.366  20.246  0.00  0.00    +0.000 A 
ATOM      3  N   UNL     1       3.579   4.268  20.089  0.00  0.00    +0.000 NA
ATOM      4  C   UNL     1       4.369   4.215  19.004  0.00  0.00    +0.000 A 
ATOM      5  C   UNL     1       4.419   5.223  18.022  0.00  0.00    +0.000 A 
ATOM      6  C   UNL     1       3.610   6.356  18.261  0.00  0.00    +0.000 A 
ENDROOT
BRANCH   1  10
ATOM      7  C   UNL     1       0.293   9.907  20.119  0.00  0.00    +0.000 A 
ATOM      8  C   UNL     1       0.993   9.777  18.924  0.00  0.00    +0.000 A 
ATOM      9  C   UNL     1       1.774   8.646  18.691  0.00  0.00    +0.000 A 
ATOM     10  C   UNL     1       1.925   7.636  19.657  0.00  0.00    +0.000 A 
ATOM     11  C   UNL     1       1.240   7.807  20.873  0.00  0.00    +0.000 A 
ATOM     12  C   UNL     1       0.434   8.931  21.102  0.00  0.00    +0.000 A 
BRANCH   7  13
ATOM     13  O   UNL     1      -0.546  10.944  20.416  0.00  0.00    +0.000 OA
BRANCH  13  14
ATOM     14  C   UNL     1      -0.157  11.719  21.545  0.00  0.00    +0.000 C 
BRANCH  14  18
ATOM     15  C   UNL     1      -3.263  12.504  23.628  0.00  0.00    +0.000 C 
ATOM     16  N   UNL     1      -2.288  12.543  22.552  0.00  0.00    +0.000 N 
ATOM     17  C   UNL     1      -2.444  13.532  21.500  0.00  0.00    +0.000 C 
ATOM     18  C   UNL     1      -1.217  11.660  22.637  0.00  0.00    +0.000 C 
ATOM     19  O   UNL     1      -1.131  10.825  23.541  0.00  0.00    +0.000 OA
ENDBRANCH  14  18
ENDBRANCH  13  14
ENDBRANCH   7  13
ENDBRANCH   1  10
BRANCH   5  20
ATOM     20  C   UNL     1       5.244   5.140  16.786  0.00  0.00    +0.000 A 
ATOM     21  C   UNL     1       4.818   4.399  15.668  0.00  0.00    +0.000 A 
ATOM     22  C   UNL     1       5.587   4.304  14.500  0.00  0.00    +0.000 A 
ATOM     23  C   UNL     1       6.793   4.995  14.396  0.00  0.00    +0.000 A 
ATOM     24  C   UNL     1       7.226   5.761  15.484  0.00  0.00    +0.000 A 
ATOM     25  C   UNL     1       6.469   5.820  16.664  0.00  0.00    +0.000 A 
BRANCH  23  26
ATOM     26  C   UNL     1       7.647   4.961  13.176  0.00  0.00    +0.000 C 
ATOM     27  N   UNL     1       7.278   4.153  12.138  0.00  0.00    +0.000 N 
ATOM     28  O   UNL     1       8.659   5.645  13.086  0.00  0.00    +0.000 OA
ATOM     29  H   UNL     1       6.464   3.562  12.113  0.00  0.00    +0.000 HD
ATOM     30  H   UNL     1       7.880   4.162  11.322  0.00  0.00    +0.000 HD
ENDBRANCH  23  26
ENDBRANCH   5  20
BRANCH   4  31
ATOM     31  N   UNL     1       5.118   3.040  18.936  0.00  0.00    +0.000 N 
ATOM     32  H   UNL     1       5.260   2.739  19.897  0.00  0.00    +0.000 HD
ATOM     33  H   UNL     1       5.992   3.193  18.447  0.00  0.00    +0.000 HD
ENDBRANCH   4  31
TORSDOF 7
ENDMDL
MODEL 2
REMARK VINA RESULT:      -8.1      1.414      1.809
REMARK  Name = 
REMARK  9 active torsions:
REMARK  status: ('A' for Active; 'I' for Inactive)
REMARK    1  A    between atoms: C_1  and  N_2
REMARK    2  A    between atoms: N_2  and  C_3
REMARK    3  A    between atoms: C_4  and  C_6
REMARK    4  A    between atoms: C_6  and  O_7
REMARK    5  A    between atoms: O_7  and  C_8
REMARK    6  A    between atoms: C_11  and  C_12
REMARK    7  A    between atoms: C_15  and  N_16
REMARK    8  A    between atoms: C_17  and  C_18
REMARK    9  A    between atoms: C_21  and  C_22
REMARK                            x       y       z     vdW  Elec       q    Type
REMARK                         _______ _______ _______ _____ _____    ______ ____
ROOT
ATOM      1  C   UNL     1       2.717   6.400  19.524  0.00  0.00    +0.000 A 
ATOM      2  C   UNL     1       2.725   5.287  20.358  0.00  0.00    +0.000 A 
ATOM      3  N   UNL     1       3.468   4.174  20.171  0.00  0.00    +0.000 NA
ATOM      4  C   UNL     1       4.248   4.127  19.078  0.00  0.00    +0.000 A 
ATOM      5  C   UNL     1       4.316   5.155  18.119  0.00  0.00    +0.000 A 
ATOM      6  C   UNL     1       3.536   6.302  18.390  0.00  0.00    +0.000 A 
ENDROOT
BRANCH   1  10
ATOM      7  C   UNL     1       0.321   9.890  20.353  0.00  0.00    +0.000 A 
ATOM      8  C   UNL     1       1.025   9.779  19.159  0.00  0.00    +0.000 A 
ATOM      9  C   UNL     1       1.776   8.635  18.894  0.00  0.00    +0.000 A 
ATOM     10  C   UNL     1       1.893   7.590  19.828  0.00  0.00    +0.000 A 
ATOM     11  C   UNL     1       1.205   7.741  21.044  0.00  0.00    +0.000 A 
ATOM     12  C   UNL     1       0.429   8.878  21.305  0.00  0.00    +0.000 A 
BRANCH   7  13
ATOM     13  O   UNL     1      -0.492  10.939  20.678  0.00  0.00    +0.000 OA
BRANCH  13  14
ATOM     14  C   UNL     1      -0.771  11.830  19.603  0.00  0.00    +0.000 C 
BRANCH  14  18
ATOM     15  C   UNL     1      -4.538  11.977  18.981  0.00  0.00    +0.000 C 
ATOM     16  N   UNL     1      -3.225  12.283  19.520  0.00  0.00    +0.000 N 
ATOM     17  C   UNL     1      -3.116  13.262  20.587  0.00  0.00    +0.000 C 
ATOM     18  C   UNL     1      -2.150  11.559  19.016  0.00  0.00    +0.000 C 
ATOM     19  O   UNL     1      -2.285  10.747  18.097  0.00  0.00    +0.000 OA
ENDBRANCH  14  18
ENDBRANCH  13  14
ENDBRANCH   7  13
ENDBRANCH   1  10
BRANCH   5  20
ATOM     20  C   UNL     1       5.130   5.080  16.875  0.00  0.00    +0.000 A 
ATOM     21  C   UNL     1       4.664   4.402  15.734  0.00  0.00    +0.000 A 
ATOM     22  C   UNL     1       5.422   4.315  14.558  0.00  0.00    +0.000 A 
ATOM     23  C   UNL     1       6.658   4.953  14.471  0.00  0.00    +0.000 A 
ATOM     24  C   UNL     1       7.132   5.656  15.584  0.00  0.00    +0.000 A 
ATOM     25  C   UNL     1       6.384   5.706  16.771  0.00  0.00    +0.000 A 
BRANCH  23  26
ATOM     26  C   UNL     1       7.504   4.925  13.245  0.00  0.00    +0.000 C 
ATOM     27  N   UNL     1       8.571   5.773  13.165  0.00  0.00    +0.000 N 
ATOM     28  O   UNL     1       7.264   4.156  12.322  0.00  0.00    +0.000 OA
ATOM     29  H   UNL     1       8.853   6.433  13.870  0.00  0.00    +0.000 HD
ATOM     30  H   UNL     1       9.128   5.720  12.318  0.00  0.00    +0.000 HD
ENDBRANCH  23  26
ENDBRANCH   5  20
BRANCH   4  31
ATOM     31  N   UNL     1       4.968   2.936  18.979  0.00  0.00    +0.000 N 
ATOM     32  H   UNL     1       5.948   3.188  19.070  0.00  0.00    +0.000 HD
ATOM     33  H   UNL     1       4.771   2.464  18.104  0.00  0.00    +0.000 HD
ENDBRANCH   4  31
TORSDOF 7
ENDMDL
MODEL 3
REMARK VINA RESULT:      -8.1      1.833      2.412
REMARK  Name = 
REMARK  9 active torsions:
REMARK  status: ('A' for Active; 'I' for Inactive)
REMARK    1  A    between atoms: C_1  and  N_2
REMARK    2  A    between atoms: N_2  and  C_3
REMARK    3  A    between atoms: C_4  and  C_6
REMARK    4  A    between atoms: C_6  and  O_7
REMARK    5  A    between atoms: O_7  and  C_8
REMARK    6  A    between atoms: C_11  and  C_12
REMARK    7  A    between atoms: C_15  and  N_16
REMARK    8  A    between atoms: C_17  and  C_18
REMARK    9  A    between atoms: C_21  and  C_22
REMARK                            x       y       z     vdW  Elec       q    Type
REMARK                         _______ _______ _______ _____ _____    ______ ____
ROOT
ATOM      1  C   UNL     1       1.918   7.004  20.123  0.00  0.00    +0.000 A 
ATOM      2  C   UNL     1       1.725   5.931  20.988  0.00  0.00    +0.000 A 
ATOM      3  N   UNL     1       2.316   4.722  20.879  0.00  0.00    +0.000 NA
ATOM      4  C   UNL     1       3.143   4.529  19.839  0.00  0.00    +0.000 A 
ATOM      5  C   UNL     1       3.408   5.502  18.857  0.00  0.00    +0.000 A 
ATOM      6  C   UNL     1       2.779   6.754  19.045  0.00  0.00    +0.000 A 
ENDROOT
BRANCH   1  10
ATOM      7  C   UNL     1      -0.040  10.784  20.816  0.00  0.00    +0.000 A 
ATOM      8  C   UNL     1      -0.076   9.780  21.777  0.00  0.00    +0.000 A 
ATOM      9  C   UNL     1       0.582   8.571  21.549  0.00  0.00    +0.000 A 
ATOM     10  C   UNL     1       1.250   8.305  20.341  0.00  0.00    +0.000 A 
ATOM     11  C   UNL     1       1.241   9.321  19.369  0.00  0.00    +0.000 A 
ATOM     12  C   UNL     1       0.601  10.546  19.603  0.00  0.00    +0.000 A 
BRANCH   7  13
ATOM     13  O   UNL     1      -0.597  12.022  20.970  0.00  0.00    +0.000 OA
BRANCH  13  14
ATOM     14  C   UNL     1      -1.119  12.592  19.773  0.00  0.00    +0.000 C 
BRANCH  14  18
ATOM     15  C   UNL     1      -4.538  11.583  18.398  0.00  0.00    +0.000 C 
ATOM     16  N   UNL     1      -3.101  11.760  18.502  0.00  0.00    +0.000 N 
ATOM     17  C   UNL     1      -2.264  11.380  17.377  0.00  0.00    +0.000 C 
ATOM     18  C   UNL     1      -2.619  12.351  19.665  0.00  0.00    +0.000 C 
ATOM     19  O   UNL     1      -3.364  12.644  20.604  0.00  0.00    +0.000 OA
ENDBRANCH  14  18
ENDBRANCH  13  14
ENDBRANCH   7  13
ENDBRANCH   1  10
BRANCH   5  20
ATOM     20  C   UNL     1       4.274   5.271  17.668  0.00  0.00    +0.000 A 
ATOM     21  C   UNL     1       4.428   3.989  17.111  0.00  0.00    +0.000 A 
ATOM     22  C   UNL     1       5.246   3.753  15.997  0.00  0.00    +0.000 A 
ATOM     23  C   UNL     1       5.901   4.812  15.372  0.00  0.00    +0.000 A 
ATOM     24  C   UNL     1       5.742   6.102  15.891  0.00  0.00    +0.000 A 
ATOM     25  C   UNL     1       4.952   6.323  17.029  0.00  0.00    +0.000 A 
BRANCH  23  26
ATOM     26  C   UNL     1       6.764   4.639  14.170  0.00  0.00    +0.000 C 
ATOM     27  N   UNL     1       6.476   3.629  13.296  0.00  0.00    +0.000 N 
ATOM     28  O   UNL     1       7.710   5.385  13.951  0.00  0.00    +0.000 OA
ATOM     29  H   UNL     1       5.720   2.972  13.384  0.00  0.00    +0.000 HD
ATOM     30  H   UNL     1       7.082   3.548  12.485  0.00  0.00    +0.000 HD
ENDBRANCH  23  26
ENDBRANCH   5  20
BRANCH   4  31
ATOM     31  N   UNL     1       3.696   3.248  19.818  0.00  0.00    +0.000 N 
ATOM     32  H   UNL     1       4.027   3.096  18.869  0.00  0.00    +0.000 HD
ATOM     33  H   UNL     1       3.016   2.553  20.104  0.00  0.00    +0.000 HD
ENDBRANCH   4  31
TORSDOF 7
ENDMDL
MODEL 4
REMARK VINA RESULT:      -8.1      1.605      2.188
REMARK  Name = 
REMARK  9 active torsions:
REMARK  status: ('A' for Active; 'I' for Inactive)
REMARK    1  A    between atoms: C_1  and  N_2
REMARK    2  A    between atoms: N_2  and  C_3
REMARK    3  A    between atoms: C_4  and  C_6
REMARK    4  A    between atoms: C_6  and  O_7
REMARK    5  A    between atoms: O_7  and  C_8
REMARK    6  A    between atoms: C_11  and  C_12
REMARK    7  A    between atoms: C_15  and  N_16
REMARK    8  A    between atoms: C_17  and  C_18
REMARK    9  A    between atoms: C_21  and  C_22
REMARK                            x       y       z     vdW  Elec       q    Type
REMARK                         _______ _______ _______ _____ _____    ______ ____
ROOT
ATOM      1  C   UNL     1       2.598   6.435  19.630  0.00  0.00    +0.000 A 
ATOM      2  C   UNL     1       2.605   5.315  20.457  0.00  0.00    +0.000 A 
ATOM      3  N   UNL     1       3.355   4.208  20.270  0.00  0.00    +0.000 NA
ATOM      4  C   UNL     1       4.147   4.174  19.185  0.00  0.00    +0.000 A 
ATOM      5  C   UNL     1       4.219   5.208  18.233  0.00  0.00    +0.000 A 
ATOM      6  C   UNL     1       3.429   6.349  18.504  0.00  0.00    +0.000 A 
ENDROOT
BRANCH   1  10
ATOM      7  C   UNL     1       0.175   9.905  20.459  0.00  0.00    +0.000 A 
ATOM      8  C   UNL     1       0.916   9.820  19.286  0.00  0.00    +0.000 A 
ATOM      9  C   UNL     1       1.676   8.682  19.020  0.00  0.00    +0.000 A 
ATOM     10  C   UNL     1       1.764   7.617  19.934  0.00  0.00    +0.000 A 
ATOM     11  C   UNL     1       1.038   7.742  21.131  0.00  0.00    +0.000 A 
ATOM     12  C   UNL     1       0.253   8.873  21.392  0.00  0.00    +0.000 A 
BRANCH   7  13
ATOM     13  O   UNL     1      -0.648  10.947  20.782  0.00  0.00    +0.000 OA
BRANCH  13  14
ATOM     14  C   UNL     1      -0.902  11.856  19.715  0.00  0.00    +0.000 C 
BRANCH  14  18
ATOM     15  C   UNL     1      -4.295  11.494  17.997  0.00  0.00    +0.000 C 
ATOM     16  N   UNL     1      -2.878  11.346  18.277  0.00  0.00    +0.000 N 
ATOM     17  C   UNL     1      -2.044  10.641  17.319  0.00  0.00    +0.000 C 
ATOM     18  C   UNL     1      -2.395  11.956  19.428  0.00  0.00    +0.000 C 
ATOM     19  O   UNL     1      -3.142  12.532  20.224  0.00  0.00    +0.000 OA
ENDBRANCH  14  18
ENDBRANCH  13  14
ENDBRANCH   7  13
ENDBRANCH   1  10
BRANCH   5  20
ATOM     20  C   UNL     1       5.045   5.147  16.997  0.00  0.00    +0.000 A 
ATOM     21  C   UNL     1       6.291   5.795  16.915  0.00  0.00    +0.000 A 
ATOM     22  C   UNL     1       7.078   5.754  15.755  0.00  0.00    +0.000 A 
ATOM     23  C   UNL     1       6.659   5.015  14.651  0.00  0.00    +0.000 A 
ATOM     24  C   UNL     1       5.436   4.339  14.717  0.00  0.00    +0.000 A 
ATOM     25  C   UNL     1       4.637   4.417  15.867  0.00  0.00    +0.000 A 
BRANCH  23  26
ATOM     26  C   UNL     1       7.457   4.905  13.396  0.00  0.00    +0.000 C 
ATOM     27  N   UNL     1       7.072   3.996  12.452  0.00  0.00    +0.000 N 
ATOM     28  O   UNL     1       8.434   5.615  13.197  0.00  0.00    +0.000 OA
ATOM     29  H   UNL     1       6.283   3.376  12.519  0.00  0.00    +0.000 HD
ATOM     30  H   UNL     1       7.635   3.956  11.609  0.00  0.00    +0.000 HD
ENDBRANCH  23  26
ENDBRANCH   5  20
BRANCH   4  31
ATOM     31  N   UNL     1       4.874   2.987  19.085  0.00  0.00    +0.000 N 
ATOM     32  H   UNL     1       5.818   3.254  18.815  0.00  0.00    +0.000 HD
ATOM     33  H   UNL     1       4.448   2.354  18.418  0.00  0.00    +0.000 HD
ENDBRANCH   4  31
TORSDOF 7
ENDMDL
MODEL 5
REMARK VINA RESULT:      -8.1      0.710      1.139
REMARK  Name = 
REMARK  9 active torsions:
REMARK  status: ('A' for Active; 'I' for Inactive)
REMARK    1  A    between atoms: C_1  and  N_2
REMARK    2  A    between atoms: N_2  and  C_3
REMARK    3  A    between atoms: C_4  and  C_6
REMARK    4  A    between atoms: C_6  and  O_7
REMARK    5  A    between atoms: O_7  and  C_8
REMARK    6  A    between atoms: C_11  and  C_12
REMARK    7  A    between atoms: C_15  and  N_16
REMARK    8  A    between atoms: C_17  and  C_18
REMARK    9  A    between atoms: C_21  and  C_22
REMARK                            x       y       z     vdW  Elec       q    Type
REMARK                         _______ _______ _______ _____ _____    ______ ____
ROOT
ATOM      1  C   UNL     1       2.759   6.489  19.375  0.00  0.00    +0.000 A 
ATOM      2  C   UNL     1       2.786   5.397  20.238  0.00  0.00    +0.000 A 
ATOM      3  N   UNL     1       3.551   4.295  20.082  0.00  0.00    +0.000 NA
ATOM      4  C   UNL     1       4.337   4.236  18.994  0.00  0.00    +0.000 A 
ATOM      5  C   UNL     1       4.389   5.241  18.009  0.00  0.00    +0.000 A 
ATOM      6  C   UNL     1       3.585   6.378  18.247  0.00  0.00    +0.000 A 
ENDROOT
BRANCH   1  10
ATOM      7  C   UNL     1       0.279   9.915  20.220  0.00  0.00    +0.000 A 
ATOM      8  C   UNL     1       0.460   8.918  21.172  0.00  0.00    +0.000 A 
ATOM      9  C   UNL     1       1.284   7.828  20.894  0.00  0.00    +0.000 A 
ATOM     10  C   UNL     1       1.910   7.669  19.645  0.00  0.00    +0.000 A 
ATOM     11  C   UNL     1       1.682   8.670  18.684  0.00  0.00    +0.000 A 
ATOM     12  C   UNL     1       0.874   9.780  18.967  0.00  0.00    +0.000 A 
BRANCH   7  13
ATOM     13  O   UNL     1      -0.455  11.051  20.418  0.00  0.00    +0.000 OA
BRANCH  13  14
ATOM     14  C   UNL     1       0.072  11.935  21.402  0.00  0.00    +0.000 C 
BRANCH  14  18
ATOM     15  C   UNL     1      -2.598  13.505  23.639  0.00  0.00    +0.000 C 
ATOM     16  N   UNL     1      -1.690  13.303  22.524  0.00  0.00    +0.000 N 
ATOM     17  C   UNL     1      -1.582  14.337  21.510  0.00  0.00    +0.000 C 
ATOM     18  C   UNL     1      -0.923  12.143  22.536  0.00  0.00    +0.000 C 
ATOM     19  O   UNL     1      -1.057  11.282  23.409  0.00  0.00    +0.000 OA
ENDBRANCH  14  18
ENDBRANCH  13  14
ENDBRANCH   7  13
ENDBRANCH   1  10
BRANCH   5  20
ATOM     20  C   UNL     1       5.210   5.151  16.771  0.00  0.00    +0.000 A 
ATOM     21  C   UNL     1       4.789   4.389  15.666  0.00  0.00    +0.000 A 
ATOM     22  C   UNL     1       5.554   4.287  14.496  0.00  0.00    +0.000 A 
ATOM     23  C   UNL     1       6.751   4.990  14.377  0.00  0.00    +0.000 A 
ATOM     24  C   UNL     1       7.179   5.776  15.453  0.00  0.00    +0.000 A 
ATOM     25  C   UNL     1       6.426   5.843  16.635  0.00  0.00    +0.000 A 
BRANCH  23  26
ATOM     26  C   UNL     1       7.601   4.950  13.154  0.00  0.00    +0.000 C 
ATOM     27  N   UNL     1       8.704   5.753  13.095  0.00  0.00    +0.000 N 
ATOM     28  O   UNL     1       7.334   4.209  12.216  0.00  0.00    +0.000 OA
ATOM     29  H   UNL     1       9.010   6.388  13.813  0.00  0.00    +0.000 HD
ATOM     30  H   UNL     1       9.262   5.692  12.249  0.00  0.00    +0.000 HD
ENDBRANCH  23  26
ENDBRANCH   5  20
BRANCH   4  31
ATOM     31  N   UNL     1       5.081   3.058  18.929  0.00  0.00    +0.000 N 
ATOM     32  H   UNL     1       4.537   2.351  19.417  0.00  0.00    +0.000 HD
ATOM     33  H   UNL     1       6.001   3.185  19.335  0.00  0.00    +0.000 HD
ENDBRANCH   4  31
TORSDOF 7
ENDMDL
MODEL 6
REMARK VINA RESULT:      -8.0      1.394      1.947
REMARK  Name = 
REMARK  9 active torsions:
REMARK  status: ('A' for Active; 'I' for Inactive)
REMARK    1  A    between atoms: C_1  and  N_2
REMARK    2  A    between atoms: N_2  and  C_3
REMARK    3  A    between atoms: C_4  and  C_6
REMARK    4  A    between atoms: C_6  and  O_7
REMARK    5  A    between atoms: O_7  and  C_8
REMARK    6  A    between atoms: C_11  and  C_12
REMARK    7  A    between atoms: C_15  and  N_16
REMARK    8  A    between atoms: C_17  and  C_18
REMARK    9  A    between atoms: C_21  and  C_22
REMARK                            x       y       z     vdW  Elec       q    Type
REMARK                         _______ _______ _______ _____ _____    ______ ____
ROOT
ATOM      1  C   UNL     1       1.814   7.081  20.244  0.00  0.00    +0.000 A 
ATOM      2  C   UNL     1       1.480   5.957  20.994  0.00  0.00    +0.000 A 
ATOM      3  N   UNL     1       1.952   4.709  20.786  0.00  0.00    +0.000 NA
ATOM      4  C   UNL     1       2.798   4.530  19.758  0.00  0.00    +0.000 A 
ATOM      5  C   UNL     1       3.198   5.559  18.884  0.00  0.00    +0.000 A 
ATOM      6  C   UNL     1       2.690   6.845  19.175  0.00  0.00    +0.000 A 
ENDROOT
BRANCH   1  10
ATOM      7  C   UNL     1       0.225  10.992  21.127  0.00  0.00    +0.000 A 
ATOM      8  C   UNL     1       0.629  10.664  19.837  0.00  0.00    +0.000 A 
ATOM      9  C   UNL     1       1.118   9.388  19.561  0.00  0.00    +0.000 A 
ATOM     10  C   UNL     1       1.270   8.417  20.567  0.00  0.00    +0.000 A 
ATOM     11  C   UNL     1       0.893   8.784  21.871  0.00  0.00    +0.000 A 
ATOM     12  C   UNL     1       0.378  10.057  22.148  0.00  0.00    +0.000 A 
BRANCH   7  13
ATOM     13  O   UNL     1      -0.325  12.191  21.484  0.00  0.00    +0.000 OA
BRANCH  13  14
ATOM     14  C   UNL     1      -1.417  12.096  22.393  0.00  0.00    +0.000 C 
BRANCH  14  18
ATOM     15  C   UNL     1      -2.791  14.773  24.748  0.00  0.00    +0.000 C 
ATOM     16  N   UNL     1      -2.693  13.550  23.972  0.00  0.00    +0.000 N 
ATOM     17  C   UNL     1      -3.835  12.652  23.931  0.00  0.00    +0.000 C 
ATOM     18  C   UNL     1      -1.520  13.348  23.254  0.00  0.00    +0.000 C 
ATOM     19  O   UNL     1      -0.568  14.129  23.329  0.00  0.00    +0.000 OA
ENDBRANCH  14  18
ENDBRANCH  13  14
ENDBRANCH   7  13
ENDBRANCH   1  10
BRANCH   5  20
ATOM     20  C   UNL     1       4.085   5.353  17.707  0.00  0.00    +0.000 A 
ATOM     21  C   UNL     1       4.838   6.409  17.163  0.00  0.00    +0.000 A 
ATOM     22  C   UNL     1       5.671   6.234  16.049  0.00  0.00    +0.000 A 
ATOM     23  C   UNL     1       5.814   4.974  15.472  0.00  0.00    +0.000 A 
ATOM     24  C   UNL     1       5.096   3.901  16.011  0.00  0.00    +0.000 A 
ATOM     25  C   UNL     1       4.235   4.093  17.102  0.00  0.00    +0.000 A 
BRANCH  23  26
ATOM     26  C   UNL     1       6.702   4.710  14.304  0.00  0.00    +0.000 C 
ATOM     27  N   UNL     1       6.398   3.671  13.471  0.00  0.00    +0.000 N 
ATOM     28  O   UNL     1       7.683   5.407  14.078  0.00  0.00    +0.000 OA
ATOM     29  H   UNL     1       5.614   3.049  13.568  0.00  0.00    +0.000 HD
ATOM     30  H   UNL     1       7.021   3.527  12.683  0.00  0.00    +0.000 HD
ENDBRANCH  23  26
ENDBRANCH   5  20
BRANCH   4  31
ATOM     31  N   UNL     1       3.222   3.207  19.630  0.00  0.00    +0.000 N 
ATOM     32  H   UNL     1       3.983   3.087  20.294  0.00  0.00    +0.000 HD
ATOM     33  H   UNL     1       3.505   3.006  18.678  0.00  0.00    +0.000 HD
ENDBRANCH   4  31
TORSDOF 7
ENDMDL
MODEL 7
REMARK VINA RESULT:      -8.0      1.828      2.609
REMARK  Name = 
REMARK  9 active torsions:
REMARK  status: ('A' for Active; 'I' for Inactive)
REMARK    1  A    between atoms: C_1  and  N_2
REMARK    2  A    between atoms: N_2  and  C_3
REMARK    3  A    between atoms: C_4  and  C_6
REMARK    4  A    between atoms: C_6  and  O_7
REMARK    5  A    between atoms: O_7  and  C_8
REMARK    6  A    between atoms: C_11  and  C_12
REMARK    7  A    between atoms: C_15  and  N_16
REMARK    8  A    between atoms: C_17  and  C_18
REMARK    9  A    between atoms: C_21  and  C_22
REMARK                            x       y       z     vdW  Elec       q    Type
REMARK                         _______ _______ _______ _____ _____    ______ ____
ROOT
ATOM      1  C   UNL     1       2.694   6.551  19.440  0.00  0.00    +0.000 A 
ATOM      2  C   UNL     1       2.711   5.453  20.295  0.00  0.00    +0.000 A 
ATOM      3  N   UNL     1       3.468   4.346  20.132  0.00  0.00    +0.000 NA
ATOM      4  C   UNL     1       4.255   4.289  19.044  0.00  0.00    +0.000 A 
ATOM      5  C   UNL     1       4.316   5.300  18.067  0.00  0.00    +0.000 A 
ATOM      6  C   UNL     1       3.520   6.442  18.312  0.00  0.00    +0.000 A 
ENDROOT
BRANCH   1  10
ATOM      7  C   UNL     1       0.244   9.993  20.308  0.00  0.00    +0.000 A 
ATOM      8  C   UNL     1       0.512   9.046  21.291  0.00  0.00    +0.000 A 
ATOM      9  C   UNL     1       1.325   7.951  21.003  0.00  0.00    +0.000 A 
ATOM     10  C   UNL     1       1.854   7.736  19.718  0.00  0.00    +0.000 A 
ATOM     11  C   UNL     1       1.538   8.685  18.730  0.00  0.00    +0.000 A 
ATOM     12  C   UNL     1       0.741   9.800  19.021  0.00  0.00    +0.000 A 
BRANCH   7  13
ATOM     13  O   UNL     1      -0.487  11.130  20.508  0.00  0.00    +0.000 OA
BRANCH  13  14
ATOM     14  C   UNL     1      -0.010  12.274  19.805  0.00  0.00    +0.000 C 
BRANCH  14  18
ATOM     15  C   UNL     1       3.236  14.040  20.775  0.00  0.00    +0.000 C 
ATOM     16  N   UNL     1       2.221  13.382  19.972  0.00  0.00    +0.000 N 
ATOM     17  C   UNL     1       2.510  13.090  18.579  0.00  0.00    +0.000 C 
ATOM     18  C   UNL     1       1.047  13.010  20.618  0.00  0.00    +0.000 C 
ATOM     19  O   UNL     1       0.836  13.292  21.800  0.00  0.00    +0.000 OA
ENDBRANCH  14  18
ENDBRANCH  13  14
ENDBRANCH   7  13
ENDBRANCH   1  10
BRANCH   5  20
ATOM     20  C   UNL     1       5.137   5.213  16.829  0.00  0.00    +0.000 A 
ATOM     21  C   UNL     1       6.407   5.813  16.747  0.00  0.00    +0.000 A 
ATOM     22  C   UNL     1       7.189   5.747  15.586  0.00  0.00    +0.000 A 
ATOM     23  C   UNL     1       6.741   5.030  14.479  0.00  0.00    +0.000 A 
ATOM     24  C   UNL     1       5.493   4.401  14.544  0.00  0.00    +0.000 A 
ATOM     25  C   UNL     1       4.700   4.504  15.696  0.00  0.00    +0.000 A 
BRANCH  23  26
ATOM     26  C   UNL     1       7.531   4.895  13.222  0.00  0.00    +0.000 C 
ATOM     27  N   UNL     1       8.622   5.698  13.044  0.00  0.00    +0.000 N 
ATOM     28  O   UNL     1       7.227   4.080  12.361  0.00  0.00    +0.000 OA
ATOM     29  H   UNL     1       8.956   6.390  13.693  0.00  0.00    +0.000 HD
ATOM     30  H   UNL     1       9.139   5.572  12.180  0.00  0.00    +0.000 HD
ENDBRANCH  23  26
ENDBRANCH   5  20
BRANCH   4  31
ATOM     31  N   UNL     1       4.990   3.105  18.971  0.00  0.00    +0.000 N 
ATOM     32  H   UNL     1       4.756   2.681  18.077  0.00  0.00    +0.000 HD
ATOM     33  H   UNL     1       4.779   2.497  19.753  0.00  0.00    +0.000 HD
ENDBRANCH   4  31
TORSDOF 7
ENDMDL
MODEL 8
REMARK VINA RESULT:      -8.0      4.035     10.626
REMARK  Name = 
REMARK  9 active torsions:
REMARK  status: ('A' for Active; 'I' for Inactive)
REMARK    1  A    between atoms: C_1  and  N_2
REMARK    2  A    between atoms: N_2  and  C_3
REMARK    3  A    between atoms: C_4  and  C_6
REMARK    4  A    between atoms: C_6  and  O_7
REMARK    5  A    between atoms: O_7  and  C_8
REMARK    6  A    between atoms: C_11  and  C_12
REMARK    7  A    between atoms: C_15  and  N_16
REMARK    8  A    between atoms: C_17  and  C_18
REMARK    9  A    between atoms: C_21  and  C_22
REMARK                            x       y       z     vdW  Elec       q    Type
REMARK                         _______ _______ _______ _____ _____    ______ ____
ROOT
ATOM      1  C   UNL     1       0.906  10.434  18.715  0.00  0.00    +0.000 A 
ATOM      2  C   UNL     1       1.583  11.643  18.588  0.00  0.00    +0.000 A 
ATOM      3  N   UNL     1       1.006  12.864  18.563  0.00  0.00    +0.000 NA
ATOM      4  C   UNL     1      -0.334  12.917  18.646  0.00  0.00    +0.000 A 
ATOM      5  C   UNL     1      -1.160  11.781  18.735  0.00  0.00    +0.000 A 
ATOM      6  C   UNL     1      -0.491  10.536  18.785  0.00  0.00    +0.000 A 
ENDROOT
BRANCH   1  10
ATOM      7  C   UNL     1       2.980   6.657  18.914  0.00  0.00    +0.000 A 
ATOM      8  C   UNL     1       2.222   7.108  19.988  0.00  0.00    +0.000 A 
ATOM      9  C   UNL     1       1.537   8.319  19.901  0.00  0.00    +0.000 A 
ATOM     10  C   UNL     1       1.627   9.144  18.765  0.00  0.00    +0.000 A 
ATOM     11  C   UNL     1       2.430   8.686  17.706  0.00  0.00    +0.000 A 
ATOM     12  C   UNL     1       3.101   7.458  17.780  0.00  0.00    +0.000 A 
BRANCH   7  13
ATOM     13  O   UNL     1       3.635   5.458  18.877  0.00  0.00    +0.000 OA
BRANCH  13  14
ATOM     14  C   UNL     1       3.364   4.668  17.724  0.00  0.00    +0.000 C 
BRANCH  14  18
ATOM     15  C   UNL     1       0.733   2.135  18.847  0.00  0.00    +0.000 C 
ATOM     16  N   UNL     1       1.989   2.858  18.757  0.00  0.00    +0.000 N 
ATOM     17  C   UNL     1       3.124   2.390  19.533  0.00  0.00    +0.000 C 
ATOM     18  C   UNL     1       2.041   3.927  17.870  0.00  0.00    +0.000 C 
ATOM     19  O   UNL     1       1.047   4.302  17.242  0.00  0.00    +0.000 OA
ENDBRANCH  14  18
ENDBRANCH  13  14
ENDBRANCH   7  13
ENDBRANCH   1  10
BRANCH   5  20
ATOM     20  C   UNL     1      -2.647  11.832  18.763  0.00  0.00    +0.000 A 
ATOM     21  C   UNL     1      -3.341  12.403  19.845  0.00  0.00    +0.000 A 
ATOM     22  C   UNL     1      -4.741  12.452  19.890  0.00  0.00    +0.000 A 
ATOM     23  C   UNL     1      -5.494  11.971  18.821  0.00  0.00    +0.000 A 
ATOM     24  C   UNL     1      -4.827  11.423  17.720  0.00  0.00    +0.000 A 
ATOM     25  C   UNL     1      -3.426  11.343  17.700  0.00  0.00    +0.000 A 
BRANCH  23  26
ATOM     26  C   UNL     1      -6.983  12.016  18.789  0.00  0.00    +0.000 C 
ATOM     27  N   UNL     1      -7.682  11.154  19.586  0.00  0.00    +0.000 N 
ATOM     28  O   UNL     1      -7.583  12.810  18.075  0.00  0.00    +0.000 OA
ATOM     29  H   UNL     1      -7.283  10.473  20.209  0.00  0.00    +0.000 HD
ATOM     30  H   UNL     1      -8.694  11.219  19.542  0.00  0.00    +0.000 HD
ENDBRANCH  23  26
ENDBRANCH   5  20
BRANCH   4  31
ATOM     31  N   UNL     1      -0.826  14.222  18.607  0.00  0.00    +0.000 N 
ATOM     32  H   UNL     1      -1.609  14.250  19.255  0.00  0.00    +0.000 HD
ATOM     33  H   UNL     1      -1.096  14.481  17.665  0.00  0.00    +0.000 HD
ENDBRANCH   4  31
TORSDOF 7
ENDMDL
MODEL 9
REMARK VINA RESULT:      -8.0      3.736     10.809
REMARK  Name = 
REMARK  9 active torsions:
REMARK  status: ('A' for Active; 'I' for Inactive)
REMARK    1  A    between atoms: C_1  and  N_2
REMARK    2  A    between atoms: N_2  and  C_3
REMARK    3  A    between atoms: C_4  and  C_6
REMARK    4  A    between atoms: C_6  and  O_7
REMARK    5  A    between atoms: O_7  and  C_8
REMARK    6  A    between atoms: C_11  and  C_12
REMARK    7  A    between atoms: C_15  and  N_16
REMARK    8  A    between atoms: C_17  and  C_18
REMARK    9  A    between atoms: C_21  and  C_22
REMARK                            x       y       z     vdW  Elec       q    Type
REMARK                         _______ _______ _______ _____ _____    ______ ____
ROOT
ATOM      1  C   UNL     1       0.876  10.218  18.890  0.00  0.00    +0.000 A 
ATOM      2  C   UNL     1       1.625  11.373  18.689  0.00  0.00    +0.000 A 
ATOM      3  N   UNL     1       1.121  12.619  18.557  0.00  0.00    +0.000 NA
ATOM      4  C   UNL     1      -0.214  12.755  18.601  0.00  0.00    +0.000 A 
ATOM      5  C   UNL     1      -1.107  11.678  18.755  0.00  0.00    +0.000 A 
ATOM      6  C   UNL     1      -0.514  10.405  18.916  0.00  0.00    +0.000 A 
ENDROOT
BRANCH   1  10
ATOM      7  C   UNL     1       2.776   6.370  19.322  0.00  0.00    +0.000 A 
ATOM      8  C   UNL     1       2.818   7.051  18.110  0.00  0.00    +0.000 A 
ATOM      9  C   UNL     1       2.220   8.304  17.992  0.00  0.00    +0.000 A 
ATOM     10  C   UNL     1       1.518   8.897  19.057  0.00  0.00    +0.000 A 
ATOM     11  C   UNL     1       1.456   8.173  20.261  0.00  0.00    +0.000 A 
ATOM     12  C   UNL     1       2.076   6.923  20.392  0.00  0.00    +0.000 A 
BRANCH   7  13
ATOM     13  O   UNL     1       3.384   5.169  19.557  0.00  0.00    +0.000 OA
BRANCH  13  14
ATOM     14  C   UNL     1       3.878   4.515  18.392  0.00  0.00    +0.000 C 
BRANCH  14  18
ATOM     15  C   UNL     1       7.483   4.535  17.126  0.00  0.00    +0.000 C 
ATOM     16  N   UNL     1       6.032   4.577  17.130  0.00  0.00    +0.000 N 
ATOM     17  C   UNL     1       5.327   4.601  15.860  0.00  0.00    +0.000 C 
ATOM     18  C   UNL     1       5.401   4.523  18.368  0.00  0.00    +0.000 C 
ATOM     19  O   UNL     1       6.038   4.520  19.424  0.00  0.00    +0.000 OA
ENDBRANCH  14  18
ENDBRANCH  13  14
ENDBRANCH   7  13
ENDBRANCH   1  10
BRANCH   5  20
ATOM     20  C   UNL     1      -2.589  11.816  18.741  0.00  0.00    +0.000 A 
ATOM     21  C   UNL     1      -3.282  12.392  19.821  0.00  0.00    +0.000 A 
ATOM     22  C   UNL     1      -4.678  12.522  19.826  0.00  0.00    +0.000 A 
ATOM     23  C   UNL     1      -5.424  12.120  18.720  0.00  0.00    +0.000 A 
ATOM     24  C   UNL     1      -4.755  11.568  17.622  0.00  0.00    +0.000 A 
ATOM     25  C   UNL     1      -3.362  11.406  17.640  0.00  0.00    +0.000 A 
BRANCH  23  26
ATOM     26  C   UNL     1      -6.906  12.253  18.646  0.00  0.00    +0.000 C 
ATOM     27  N   UNL     1      -7.446  13.060  17.685  0.00  0.00    +0.000 N 
ATOM     28  O   UNL     1      -7.640  11.650  19.419  0.00  0.00    +0.000 OA
ATOM     29  H   UNL     1      -6.930  13.588  17.002  0.00  0.00    +0.000 HD
ATOM     30  H   UNL     1      -8.458  13.119  17.661  0.00  0.00    +0.000 HD
ENDBRANCH  23  26
ENDBRANCH   5  20
BRANCH   4  31
ATOM     31  N   UNL     1      -0.628  14.079  18.451  0.00  0.00    +0.000 N 
ATOM     32  H   UNL     1      -0.964  14.165  17.495  0.00  0.00    +0.000 HD
ATOM     33  H   UNL     1       0.129  14.722  18.653  0.00  0.00    +0.000 HD
ENDBRANCH   4  31
TORSDOF 7
ENDMDL
