MODEL 1
REMARK VINA RESULT:     -10.7      0.000      0.000
REMARK  Name = 
REMARK  6 active torsions:
REMARK  status: ('A' for Active; 'I' for Inactive)
REMARK    1  A    between atoms: C_1  and  S_2
REMARK    2  A    between atoms: S_2  and  C_5
REMARK    3  A    between atoms: C_8  and  C_9
REMARK    4  A    between atoms: N_12  and  C_13
REMARK    5  A    between atoms: C_13  and  C_14
REMARK    6  A    between atoms: C_24  and  C_25
REMARK                            x       y       z     vdW  Elec       q    Type
REMARK                         _______ _______ _______ _____ _____    ______ ____
ROOT
ATOM      1  C   UNL     1       2.891   5.848  19.325  0.00  0.00    +0.000 A 
ATOM      2  N   UNL     1       4.183   5.650  19.001  0.00  0.00    +0.000 NA
ATOM      3  C   UNL     1       4.686   4.416  19.138  0.00  0.00    +0.000 A 
ATOM      4  N   UNL     1       5.959   4.136  18.668  0.00  0.00    +0.000 N 
ATOM      5  C   UNL     1       3.908   3.380  19.620  0.00  0.00    +0.000 A 
ATOM      6  C   UNL     1       2.577   3.648  19.903  0.00  0.00    +0.000 A 
ATOM      7  N   UNL     1       2.055   4.890  19.754  0.00  0.00    +0.000 NA
ATOM      8  H   UNL     1       6.571   3.578  19.256  0.00  0.00    +0.000 HD
ENDROOT
BRANCH   1  12
ATOM      9  C   UNL     1       1.323   9.828  19.047  0.00  0.00    +0.000 A 
ATOM     10  C   UNL     1       1.984   9.274  17.950  0.00  0.00    +0.000 A 
ATOM     11  C   UNL     1       2.490   7.972  18.036  0.00  0.00    +0.000 A 
ATOM     12  C   UNL     1       2.369   7.219  19.222  0.00  0.00    +0.000 A 
ATOM     13  C   UNL     1       1.717   7.819  20.318  0.00  0.00    +0.000 A 
ATOM     14  C   UNL     1       1.199   9.113  20.238  0.00  0.00    +0.000 A 
BRANCH   9  16
ATOM     15  C   UNL     1       0.373  11.887  20.647  0.00  0.00    +0.000 C 
ATOM     16  S   UNL     1       0.648  11.467  18.942  0.00  0.00    +0.000 S 
ATOM     17  O   UNL     1      -0.642  11.368  18.288  0.00  0.00    +0.000 OA
ATOM     18  O   UNL     1       1.686  12.330  18.426  0.00  0.00    +0.000 OA
ENDBRANCH   9  16
ENDBRANCH   1  12
BRANCH   6  19
ATOM     19  C   UNL     1       1.652   2.532  20.360  0.00  0.00    +0.000 C 
ATOM     20  F   UNL     1       1.891   2.118  21.640  0.00  0.00    +0.000 F 
ATOM     21  F   UNL     1       0.336   2.890  20.334  0.00  0.00    +0.000 F 
ATOM     22  F   UNL     1       1.750   1.410  19.591  0.00  0.00    +0.000 F 
ENDBRANCH   6  19
BRANCH   4  23
ATOM     23  C   UNL     1       6.647   5.140  17.865  0.00  0.00    +0.000 C 
BRANCH  23  24
ATOM     24  C   UNL     1       6.612   4.879  16.381  0.00  0.00    +0.000 A 
ATOM     25  N   UNL     1       5.819   4.042  15.739  0.00  0.00    +0.000 NA
ATOM     26  C   UNL     1       6.189   4.116  14.418  0.00  0.00    +0.000 A 
ATOM     27  C   UNL     1       5.681   3.431  13.305  0.00  0.00    +0.000 A 
ATOM     28  C   UNL     1       6.280   3.635  12.055  0.00  0.00    +0.000 A 
ATOM     29  C   UNL     1       7.358   4.511  11.914  0.00  0.00    +0.000 A 
ATOM     30  C   UNL     1       7.856   5.233  13.008  0.00  0.00    +0.000 A 
ATOM     31  C   UNL     1       7.242   5.008  14.244  0.00  0.00    +0.000 A 
ATOM     32  N   UNL     1       7.455   5.523  15.499  0.00  0.00    +0.000 N 
ATOM     33  H   UNL     1       8.133   6.231  15.737  0.00  0.00    +0.000 HD
ENDBRANCH  23  24
ENDBRANCH   4  23
TORSDOF 5
ENDMDL
MODEL 2
REMARK VINA RESULT:     -10.6      0.077      1.106
REMARK  Name = 
REMARK  6 active torsions:
REMARK  status: ('A' for Active; 'I' for Inactive)
REMARK    1  A    between atoms: C_1  and  S_2
REMARK    2  A    between atoms: S_2  and  C_5
REMARK    3  A    between atoms: C_8  and  C_9
REMARK    4  A    between atoms: N_12  and  C_13
REMARK    5  A    between atoms: C_13  and  C_14
REMARK    6  A    between atoms: C_24  and  C_25
REMARK                            x       y       z     vdW  Elec       q    Type
REMARK                         _______ _______ _______ _____ _____    ______ ____
ROOT
ATOM      1  C   UNL     1       2.872   5.871  19.376  0.00  0.00    +0.000 A 
ATOM      2  N   UNL     1       4.162   5.686  19.033  0.00  0.00    +0.000 NA
ATOM      3  C   UNL     1       4.680   4.458  19.165  0.00  0.00    +0.000 A 
ATOM      4  N   UNL     1       5.949   4.191  18.676  0.00  0.00    +0.000 N 
ATOM      5  C   UNL     1       3.922   3.415  19.661  0.00  0.00    +0.000 A 
ATOM      6  C   UNL     1       2.592   3.669  19.964  0.00  0.00    +0.000 A 
ATOM      7  N   UNL     1       2.055   4.905  19.821  0.00  0.00    +0.000 NA
ATOM      8  H   UNL     1       6.576   3.641  19.256  0.00  0.00    +0.000 HD
ENDROOT
BRANCH   1  12
ATOM      9  C   UNL     1       1.349   9.866  19.072  0.00  0.00    +0.000 A 
ATOM     10  C   UNL     1       1.199   9.165  20.269  0.00  0.00    +0.000 A 
ATOM     11  C   UNL     1       1.702   7.863  20.373  0.00  0.00    +0.000 A 
ATOM     12  C   UNL     1       2.334   7.236  19.279  0.00  0.00    +0.000 A 
ATOM     13  C   UNL     1       2.446   7.964  18.078  0.00  0.00    +0.000 A 
ATOM     14  C   UNL     1       1.958   9.268  17.969  0.00  0.00    +0.000 A 
BRANCH   9  16
ATOM     15  C   UNL     1       0.521  12.006  20.633  0.00  0.00    +0.000 C 
ATOM     16  S   UNL     1       0.744  11.530  18.936  0.00  0.00    +0.000 S 
ATOM     17  O   UNL     1      -0.562  11.471  18.307  0.00  0.00    +0.000 OA
ATOM     18  O   UNL     1       1.809  12.332  18.378  0.00  0.00    +0.000 OA
ENDBRANCH   9  16
ENDBRANCH   1  12
BRANCH   6  19
ATOM     19  C   UNL     1       1.687   2.544  20.437  0.00  0.00    +0.000 C 
ATOM     20  F   UNL     1       1.768   1.419  19.666  0.00  0.00    +0.000 F 
ATOM     21  F   UNL     1       1.969   2.135  21.707  0.00  0.00    +0.000 F 
ATOM     22  F   UNL     1       0.367   2.887  20.439  0.00  0.00    +0.000 F 
ENDBRANCH   6  19
BRANCH   4  23
ATOM     23  C   UNL     1       6.613   5.201  17.860  0.00  0.00    +0.000 C 
BRANCH  23  24
ATOM     24  C   UNL     1       6.585   4.922  16.380  0.00  0.00    +0.000 A 
ATOM     25  N   UNL     1       5.780   4.091  15.743  0.00  0.00    +0.000 NA
ATOM     26  C   UNL     1       6.161   4.141  14.424  0.00  0.00    +0.000 A 
ATOM     27  C   UNL     1       5.648   3.451  13.316  0.00  0.00    +0.000 A 
ATOM     28  C   UNL     1       6.259   3.626  12.068  0.00  0.00    +0.000 A 
ATOM     29  C   UNL     1       7.354   4.480  11.923  0.00  0.00    +0.000 A 
ATOM     30  C   UNL     1       7.858   5.207  13.011  0.00  0.00    +0.000 A 
ATOM     31  C   UNL     1       7.231   5.011  14.245  0.00  0.00    +0.000 A 
ATOM     32  N   UNL     1       7.445   5.538  15.496  0.00  0.00    +0.000 N 
ATOM     33  H   UNL     1       8.134   6.236  15.729  0.00  0.00    +0.000 HD
ENDBRANCH  23  24
ENDBRANCH   4  23
TORSDOF 5
ENDMDL
MODEL 3
REMARK VINA RESULT:     -10.5      0.129      1.262
REMARK  Name = 
REMARK  6 active torsions:
REMARK  status: ('A' for Active; 'I' for Inactive)
REMARK    1  A    between atoms: C_1  and  S_2
REMARK    2  A    between atoms: S_2  and  C_5
REMARK    3  A    between atoms: C_8  and  C_9
REMARK    4  A    between atoms: N_12  and  C_13
REMARK    5  A    between atoms: C_13  and  C_14
REMARK    6  A    between atoms: C_24  and  C_25
REMARK                            x       y       z     vdW  Elec       q    Type
REMARK                         _______ _______ _______ _____ _____    ______ ____
ROOT
ATOM      1  C   UNL     1       2.906   5.914  19.334  0.00  0.00    +0.000 A 
ATOM      2  N   UNL     1       4.201   5.750  19.003  0.00  0.00    +0.000 NA
ATOM      3  C   UNL     1       4.736   4.529  19.138  0.00  0.00    +0.000 A 
ATOM      4  N   UNL     1       6.014   4.282  18.662  0.00  0.00    +0.000 N 
ATOM      5  C   UNL     1       3.989   3.474  19.626  0.00  0.00    +0.000 A 
ATOM      6  C   UNL     1       2.653   3.707  19.916  0.00  0.00    +0.000 A 
ATOM      7  N   UNL     1       2.098   4.936  19.769  0.00  0.00    +0.000 NA
ATOM      8  H   UNL     1       6.643   3.741  19.247  0.00  0.00    +0.000 HD
ENDROOT
BRANCH   1  12
ATOM      9  C   UNL     1       1.234   9.852  19.061  0.00  0.00    +0.000 A 
ATOM     10  C   UNL     1       1.901   9.313  17.961  0.00  0.00    +0.000 A 
ATOM     11  C   UNL     1       2.441   8.025  18.045  0.00  0.00    +0.000 A 
ATOM     12  C   UNL     1       2.348   7.271  19.233  0.00  0.00    +0.000 A 
ATOM     13  C   UNL     1       1.689   7.856  20.333  0.00  0.00    +0.000 A 
ATOM     14  C   UNL     1       1.136   9.136  20.255  0.00  0.00    +0.000 A 
BRANCH   9  16
ATOM     15  C   UNL     1       0.228  11.882  20.664  0.00  0.00    +0.000 C 
ATOM     16  S   UNL     1       0.515  11.473  18.959  0.00  0.00    +0.000 S 
ATOM     17  O   UNL     1      -0.771  11.341  18.302  0.00  0.00    +0.000 OA
ATOM     18  O   UNL     1       1.531  12.364  18.445  0.00  0.00    +0.000 OA
ENDBRANCH   9  16
ENDBRANCH   1  12
BRANCH   6  19
ATOM     19  C   UNL     1       1.760   2.569  20.380  0.00  0.00    +0.000 C 
ATOM     20  F   UNL     1       1.750   1.503  19.525  0.00  0.00    +0.000 F 
ATOM     21  F   UNL     1       2.133   2.061  21.589  0.00  0.00    +0.000 F 
ATOM     22  F   UNL     1       0.454   2.937  20.515  0.00  0.00    +0.000 F 
ENDBRANCH   6  19
BRANCH   4  23
ATOM     23  C   UNL     1       6.671   5.303  17.853  0.00  0.00    +0.000 C 
BRANCH  23  24
ATOM     24  C   UNL     1       6.747   4.978  16.384  0.00  0.00    +0.000 A 
ATOM     25  N   UNL     1       7.578   5.494  15.497  0.00  0.00    +0.000 NA
ATOM     26  C   UNL     1       7.237   4.929  14.293  0.00  0.00    +0.000 A 
ATOM     27  C   UNL     1       7.789   5.130  13.020  0.00  0.00    +0.000 A 
ATOM     28  C   UNL     1       7.214   4.477  11.923  0.00  0.00    +0.000 A 
ATOM     29  C   UNL     1       6.115   3.632  12.090  0.00  0.00    +0.000 A 
ATOM     30  C   UNL     1       5.572   3.389  13.359  0.00  0.00    +0.000 A 
ATOM     31  C   UNL     1       6.163   4.056  14.437  0.00  0.00    +0.000 A 
ATOM     32  N   UNL     1       5.907   4.062  15.786  0.00  0.00    +0.000 N 
ATOM     33  H   UNL     1       5.204   3.510  16.254  0.00  0.00    +0.000 HD
ENDBRANCH  23  24
ENDBRANCH   4  23
TORSDOF 5
ENDMDL
MODEL 4
REMARK VINA RESULT:     -10.5      0.673      1.717
REMARK  Name = 
REMARK  6 active torsions:
REMARK  status: ('A' for Active; 'I' for Inactive)
REMARK    1  A    between atoms: C_1  and  S_2
REMARK    2  A    between atoms: S_2  and  C_5
REMARK    3  A    between atoms: C_8  and  C_9
REMARK    4  A    between atoms: N_12  and  C_13
REMARK    5  A    between atoms: C_13  and  C_14
REMARK    6  A    between atoms: C_24  and  C_25
REMARK                            x       y       z     vdW  Elec       q    Type
REMARK                         _______ _______ _______ _____ _____    ______ ____
ROOT
ATOM      1  C   UNL     1       2.800   5.831  19.340  0.00  0.00    +0.000 A 
ATOM      2  N   UNL     1       4.097   5.647  19.024  0.00  0.00    +0.000 NA
ATOM      3  C   UNL     1       4.593   4.405  19.097  0.00  0.00    +0.000 A 
ATOM      4  N   UNL     1       5.873   4.148  18.630  0.00  0.00    +0.000 N 
ATOM      5  C   UNL     1       3.806   3.347  19.507  0.00  0.00    +0.000 A 
ATOM      6  C   UNL     1       2.471   3.603  19.785  0.00  0.00    +0.000 A 
ATOM      7  N   UNL     1       1.956   4.854  19.702  0.00  0.00    +0.000 NA
ATOM      8  H   UNL     1       6.474   3.554  19.194  0.00  0.00    +0.000 HD
ENDROOT
BRANCH   1  12
ATOM      9  C   UNL     1       1.343   9.861  19.231  0.00  0.00    +0.000 A 
ATOM     10  C   UNL     1       1.193   9.110  20.397  0.00  0.00    +0.000 A 
ATOM     11  C   UNL     1       1.674   7.796  20.437  0.00  0.00    +0.000 A 
ATOM     12  C   UNL     1       2.285   7.209  19.310  0.00  0.00    +0.000 A 
ATOM     13  C   UNL     1       2.398   7.988  18.141  0.00  0.00    +0.000 A 
ATOM     14  C   UNL     1       1.931   9.303  18.096  0.00  0.00    +0.000 A 
BRANCH   9  16
ATOM     15  C   UNL     1       2.089  12.382  18.341  0.00  0.00    +0.000 C 
ATOM     16  S   UNL     1       0.765  11.540  19.175  0.00  0.00    +0.000 S 
ATOM     17  O   UNL     1       0.707  12.029  20.539  0.00  0.00    +0.000 OA
ATOM     18  O   UNL     1      -0.399  11.567  18.318  0.00  0.00    +0.000 OA
ENDBRANCH   9  16
ENDBRANCH   1  12
BRANCH   6  19
ATOM     19  C   UNL     1       1.536   2.467  20.164  0.00  0.00    +0.000 C 
ATOM     20  F   UNL     1       1.784   1.309  19.483  0.00  0.00    +0.000 F 
ATOM     21  F   UNL     1       1.613   2.134  21.484  0.00  0.00    +0.000 F 
ATOM     22  F   UNL     1       0.225   2.754  19.926  0.00  0.00    +0.000 F 
ENDBRANCH   6  19
BRANCH   4  23
ATOM     23  C   UNL     1       6.575   5.194  17.896  0.00  0.00    +0.000 C 
BRANCH  23  24
ATOM     24  C   UNL     1       6.721   4.927  16.420  0.00  0.00    +0.000 A 
ATOM     25  N   UNL     1       7.535   5.536  15.578  0.00  0.00    +0.000 NA
ATOM     26  C   UNL     1       7.276   4.988  14.346  0.00  0.00    +0.000 A 
ATOM     27  C   UNL     1       7.849   5.275  13.099  0.00  0.00    +0.000 A 
ATOM     28  C   UNL     1       7.361   4.617  11.963  0.00  0.00    +0.000 A 
ATOM     29  C   UNL     1       6.328   3.683  12.067  0.00  0.00    +0.000 A 
ATOM     30  C   UNL     1       5.768   3.355  13.310  0.00  0.00    +0.000 A 
ATOM     31  C   UNL     1       6.272   4.030  14.427  0.00  0.00    +0.000 A 
ATOM     32  N   UNL     1       5.975   3.968  15.766  0.00  0.00    +0.000 N 
ATOM     33  H   UNL     1       5.305   3.347  16.193  0.00  0.00    +0.000 HD
ENDBRANCH  23  24
ENDBRANCH   4  23
TORSDOF 5
ENDMDL
MODEL 5
REMARK VINA RESULT:     -10.5      0.687      1.328
REMARK  Name = 
REMARK  6 active torsions:
REMARK  status: ('A' for Active; 'I' for Inactive)
REMARK    1  A    between atoms: C_1  and  S_2
REMARK    2  A    between atoms: S_2  and  C_5
REMARK    3  A    between atoms: C_8  and  C_9
REMARK    4  A    between atoms: N_12  and  C_13
REMARK    5  A    between atoms: C_13  and  C_14
REMARK    6  A    between atoms: C_24  and  C_25
REMARK                            x       y       z     vdW  Elec       q    Type
REMARK                         _______ _______ _______ _____ _____    ______ ____
ROOT
ATOM      1  C   UNL     1       2.809   5.896  19.392  0.00  0.00    +0.000 A 
ATOM      2  N   UNL     1       4.102   5.733  19.052  0.00  0.00    +0.000 NA
ATOM      3  C   UNL     1       4.630   4.506  19.151  0.00  0.00    +0.000 A 
ATOM      4  N   UNL     1       5.904   4.263  18.663  0.00  0.00    +0.000 N 
ATOM      5  C   UNL     1       3.877   3.442  19.611  0.00  0.00    +0.000 A 
ATOM      6  C   UNL     1       2.543   3.676  19.913  0.00  0.00    +0.000 A 
ATOM      7  N   UNL     1       1.997   4.912  19.803  0.00  0.00    +0.000 NA
ATOM      8  H   UNL     1       6.532   3.701  19.230  0.00  0.00    +0.000 HD
ENDROOT
BRANCH   1  12
ATOM      9  C   UNL     1       1.164   9.851  19.238  0.00  0.00    +0.000 A 
ATOM     10  C   UNL     1       1.773   9.319  18.102  0.00  0.00    +0.000 A 
ATOM     11  C   UNL     1       2.305   8.025  18.147  0.00  0.00    +0.000 A 
ATOM     12  C   UNL     1       2.260   7.260  19.331  0.00  0.00    +0.000 A 
ATOM     13  C   UNL     1       1.659   7.838  20.467  0.00  0.00    +0.000 A 
ATOM     14  C   UNL     1       1.116   9.124  20.427  0.00  0.00    +0.000 A 
BRANCH   9  16
ATOM     15  C   UNL     1      -1.027  11.233  18.241  0.00  0.00    +0.000 C 
ATOM     16  S   UNL     1       0.457  11.480  19.186  0.00  0.00    +0.000 S 
ATOM     17  O   UNL     1       1.350  12.321  18.413  0.00  0.00    +0.000 OA
ATOM     18  O   UNL     1       0.079  11.830  20.537  0.00  0.00    +0.000 OA
ENDBRANCH   9  16
ENDBRANCH   1  12
BRANCH   6  19
ATOM     19  C   UNL     1       1.645   2.531  20.347  0.00  0.00    +0.000 C 
ATOM     20  F   UNL     1       1.831   2.156  21.648  0.00  0.00    +0.000 F 
ATOM     21  F   UNL     1       0.318   2.829  20.243  0.00  0.00    +0.000 F 
ATOM     22  F   UNL     1       1.833   1.397  19.613  0.00  0.00    +0.000 F 
ENDBRANCH   6  19
BRANCH   4  23
ATOM     23  C   UNL     1       6.565   5.302  17.881  0.00  0.00    +0.000 C 
BRANCH  23  24
ATOM     24  C   UNL     1       6.688   4.991  16.412  0.00  0.00    +0.000 A 
ATOM     25  N   UNL     1       7.532   5.530  15.553  0.00  0.00    +0.000 NA
ATOM     26  C   UNL     1       7.236   4.968  14.335  0.00  0.00    +0.000 A 
ATOM     27  C   UNL     1       7.819   5.191  13.079  0.00  0.00    +0.000 A 
ATOM     28  C   UNL     1       7.288   4.535  11.962  0.00  0.00    +0.000 A 
ATOM     29  C   UNL     1       6.202   3.666  12.093  0.00  0.00    +0.000 A 
ATOM     30  C   UNL     1       5.630   3.402  13.345  0.00  0.00    +0.000 A 
ATOM     31  C   UNL     1       6.177   4.073  14.443  0.00  0.00    +0.000 A 
ATOM     32  N   UNL     1       5.884   4.062  15.785  0.00  0.00    +0.000 N 
ATOM     33  H   UNL     1       5.180   3.492  16.228  0.00  0.00    +0.000 HD
ENDBRANCH  23  24
ENDBRANCH   4  23
TORSDOF 5
ENDMDL
MODEL 6
REMARK VINA RESULT:     -10.4      0.665      1.367
REMARK  Name = 
REMARK  6 active torsions:
REMARK  status: ('A' for Active; 'I' for Inactive)
REMARK    1  A    between atoms: C_1  and  S_2
REMARK    2  A    between atoms: S_2  and  C_5
REMARK    3  A    between atoms: C_8  and  C_9
REMARK    4  A    between atoms: N_12  and  C_13
REMARK    5  A    between atoms: C_13  and  C_14
REMARK    6  A    between atoms: C_24  and  C_25
REMARK                            x       y       z     vdW  Elec       q    Type
REMARK                         _______ _______ _______ _____ _____    ______ ____
ROOT
ATOM      1  C   UNL     1       2.841   5.858  19.452  0.00  0.00    +0.000 A 
ATOM      2  N   UNL     1       4.122   5.684  19.074  0.00  0.00    +0.000 NA
ATOM      3  C   UNL     1       4.649   4.457  19.176  0.00  0.00    +0.000 A 
ATOM      4  N   UNL     1       5.907   4.202  18.653  0.00  0.00    +0.000 N 
ATOM      5  C   UNL     1       3.908   3.403  19.676  0.00  0.00    +0.000 A 
ATOM      6  C   UNL     1       2.585   3.647  20.015  0.00  0.00    +0.000 A 
ATOM      7  N   UNL     1       2.039   4.883  19.903  0.00  0.00    +0.000 NA
ATOM      8  H   UNL     1       6.550   3.647  19.209  0.00  0.00    +0.000 HD
ENDROOT
BRANCH   1  12
ATOM      9  C   UNL     1       1.294   9.850  19.243  0.00  0.00    +0.000 A 
ATOM     10  C   UNL     1       1.166   9.127  20.430  0.00  0.00    +0.000 A 
ATOM     11  C   UNL     1       1.677   7.826  20.503  0.00  0.00    +0.000 A 
ATOM     12  C   UNL     1       2.295   7.222  19.388  0.00  0.00    +0.000 A 
ATOM     13  C   UNL     1       2.384   7.972  18.199  0.00  0.00    +0.000 A 
ATOM     14  C   UNL     1       1.888   9.275  18.120  0.00  0.00    +0.000 A 
BRANCH   9  16
ATOM     15  C   UNL     1       2.018  12.381  18.365  0.00  0.00    +0.000 C 
ATOM     16  S   UNL     1       0.679  11.513  19.146  0.00  0.00    +0.000 S 
ATOM     17  O   UNL     1       0.547  12.012  20.501  0.00  0.00    +0.000 OA
ATOM     18  O   UNL     1      -0.446  11.505  18.238  0.00  0.00    +0.000 OA
ENDBRANCH   9  16
ENDBRANCH   1  12
BRANCH   6  19
ATOM     19  C   UNL     1       1.696   2.511  20.494  0.00  0.00    +0.000 C 
ATOM     20  F   UNL     1       0.369   2.834  20.524  0.00  0.00    +0.000 F 
ATOM     21  F   UNL     1       1.781   1.402  19.706  0.00  0.00    +0.000 F 
ATOM     22  F   UNL     1       1.996   2.097  21.759  0.00  0.00    +0.000 F 
ENDBRANCH   6  19
BRANCH   4  23
ATOM     23  C   UNL     1       6.546   5.227  17.835  0.00  0.00    +0.000 C 
BRANCH  23  24
ATOM     24  C   UNL     1       6.543   4.935  16.357  0.00  0.00    +0.000 A 
ATOM     25  N   UNL     1       5.763   4.083  15.716  0.00  0.00    +0.000 NA
ATOM     26  C   UNL     1       6.160   4.129  14.402  0.00  0.00    +0.000 A 
ATOM     27  C   UNL     1       5.676   3.420  13.294  0.00  0.00    +0.000 A 
ATOM     28  C   UNL     1       6.299   3.597  12.053  0.00  0.00    +0.000 A 
ATOM     29  C   UNL     1       7.380   4.471  11.915  0.00  0.00    +0.000 A 
ATOM     30  C   UNL     1       7.855   5.217  13.003  0.00  0.00    +0.000 A 
ATOM     31  C   UNL     1       7.215   5.018  14.230  0.00  0.00    +0.000 A 
ATOM     32  N   UNL     1       7.402   5.560  15.479  0.00  0.00    +0.000 N 
ATOM     33  H   UNL     1       8.075   6.274  15.715  0.00  0.00    +0.000 HD
ENDBRANCH  23  24
ENDBRANCH   4  23
TORSDOF 5
ENDMDL
MODEL 7
REMARK VINA RESULT:     -10.4      0.662      1.721
REMARK  Name = 
REMARK  6 active torsions:
REMARK  status: ('A' for Active; 'I' for Inactive)
REMARK    1  A    between atoms: C_1  and  S_2
REMARK    2  A    between atoms: S_2  and  C_5
REMARK    3  A    between atoms: C_8  and  C_9
REMARK    4  A    between atoms: N_12  and  C_13
REMARK    5  A    between atoms: C_13  and  C_14
REMARK    6  A    between atoms: C_24  and  C_25
REMARK                            x       y       z     vdW  Elec       q    Type
REMARK                         _______ _______ _______ _____ _____    ______ ____
ROOT
ATOM      1  C   UNL     1       2.802   5.848  19.316  0.00  0.00    +0.000 A 
ATOM      2  N   UNL     1       4.098   5.658  19.002  0.00  0.00    +0.000 NA
ATOM      3  C   UNL     1       4.588   4.414  19.073  0.00  0.00    +0.000 A 
ATOM      4  N   UNL     1       5.867   4.151  18.608  0.00  0.00    +0.000 N 
ATOM      5  C   UNL     1       3.795   3.358  19.478  0.00  0.00    +0.000 A 
ATOM      6  C   UNL     1       2.461   3.620  19.755  0.00  0.00    +0.000 A 
ATOM      7  N   UNL     1       1.952   4.874  19.673  0.00  0.00    +0.000 NA
ATOM      8  H   UNL     1       6.464   3.553  19.171  0.00  0.00    +0.000 HD
ENDROOT
BRANCH   1  12
ATOM      9  C   UNL     1       1.365   9.885  19.216  0.00  0.00    +0.000 A 
ATOM     10  C   UNL     1       1.186   9.123  20.370  0.00  0.00    +0.000 A 
ATOM     11  C   UNL     1       1.660   7.807  20.408  0.00  0.00    +0.000 A 
ATOM     12  C   UNL     1       2.293   7.228  19.288  0.00  0.00    +0.000 A 
ATOM     13  C   UNL     1       2.436   8.019  18.131  0.00  0.00    +0.000 A 
ATOM     14  C   UNL     1       1.976   9.336  18.088  0.00  0.00    +0.000 A 
BRANCH   9  16
ATOM     15  C   UNL     1      -0.826  11.410  18.457  0.00  0.00    +0.000 C 
ATOM     16  S   UNL     1       0.796  11.567  19.164  0.00  0.00    +0.000 S 
ATOM     17  O   UNL     1       1.634  12.284  18.222  0.00  0.00    +0.000 OA
ATOM     18  O   UNL     1       0.652  12.016  20.531  0.00  0.00    +0.000 OA
ENDBRANCH   9  16
ENDBRANCH   1  12
BRANCH   6  19
ATOM     19  C   UNL     1       1.519   2.488  20.128  0.00  0.00    +0.000 C 
ATOM     20  F   UNL     1       0.214   2.737  19.810  0.00  0.00    +0.000 F 
ATOM     21  F   UNL     1       1.827   1.315  19.504  0.00  0.00    +0.000 F 
ATOM     22  F   UNL     1       1.520   2.213  21.464  0.00  0.00    +0.000 F 
ENDBRANCH   6  19
BRANCH   4  23
ATOM     23  C   UNL     1       6.577   5.195  17.878  0.00  0.00    +0.000 C 
BRANCH  23  24
ATOM     24  C   UNL     1       6.728   4.930  16.403  0.00  0.00    +0.000 A 
ATOM     25  N   UNL     1       7.546   5.538  15.565  0.00  0.00    +0.000 NA
ATOM     26  C   UNL     1       7.292   4.991  14.331  0.00  0.00    +0.000 A 
ATOM     27  C   UNL     1       7.871   5.279  13.086  0.00  0.00    +0.000 A 
ATOM     28  C   UNL     1       7.387   4.623  11.948  0.00  0.00    +0.000 A 
ATOM     29  C   UNL     1       6.352   3.690  12.047  0.00  0.00    +0.000 A 
ATOM     30  C   UNL     1       5.786   3.362  13.287  0.00  0.00    +0.000 A 
ATOM     31  C   UNL     1       6.286   4.035  14.407  0.00  0.00    +0.000 A 
ATOM     32  N   UNL     1       5.984   3.973  15.745  0.00  0.00    +0.000 N 
ATOM     33  H   UNL     1       5.310   3.352  16.168  0.00  0.00    +0.000 HD
ENDBRANCH  23  24
ENDBRANCH   4  23
TORSDOF 5
ENDMDL
MODEL 8
REMARK VINA RESULT:     -10.4      0.686      1.184
REMARK  Name = 
REMARK  6 active torsions:
REMARK  status: ('A' for Active; 'I' for Inactive)
REMARK    1  A    between atoms: C_1  and  S_2
REMARK    2  A    between atoms: S_2  and  C_5
REMARK    3  A    between atoms: C_8  and  C_9
REMARK    4  A    between atoms: N_12  and  C_13
REMARK    5  A    between atoms: C_13  and  C_14
REMARK    6  A    between atoms: C_24  and  C_25
REMARK                            x       y       z     vdW  Elec       q    Type
REMARK                         _______ _______ _______ _____ _____    ______ ____
ROOT
ATOM      1  C   UNL     1       2.819   5.885  19.475  0.00  0.00    +0.000 A 
ATOM      2  N   UNL     1       4.095   5.717  19.081  0.00  0.00    +0.000 NA
ATOM      3  C   UNL     1       4.629   4.492  19.179  0.00  0.00    +0.000 A 
ATOM      4  N   UNL     1       5.881   4.242  18.640  0.00  0.00    +0.000 N 
ATOM      5  C   UNL     1       3.899   3.436  19.691  0.00  0.00    +0.000 A 
ATOM      6  C   UNL     1       2.579   3.674  20.047  0.00  0.00    +0.000 A 
ATOM      7  N   UNL     1       2.027   4.908  19.939  0.00  0.00    +0.000 NA
ATOM      8  H   UNL     1       6.534   3.691  19.189  0.00  0.00    +0.000 HD
ENDROOT
BRANCH   1  12
ATOM      9  C   UNL     1       1.251   9.870  19.277  0.00  0.00    +0.000 A 
ATOM     10  C   UNL     1       1.133   9.146  20.464  0.00  0.00    +0.000 A 
ATOM     11  C   UNL     1       1.650   7.847  20.533  0.00  0.00    +0.000 A 
ATOM     12  C   UNL     1       2.265   7.247  19.415  0.00  0.00    +0.000 A 
ATOM     13  C   UNL     1       2.345   7.998  18.225  0.00  0.00    +0.000 A 
ATOM     14  C   UNL     1       1.842   9.298  18.150  0.00  0.00    +0.000 A 
BRANCH   9  16
ATOM     15  C   UNL     1      -0.921  11.320  18.339  0.00  0.00    +0.000 C 
ATOM     16  S   UNL     1       0.627  11.530  19.184  0.00  0.00    +0.000 S 
ATOM     17  O   UNL     1       1.515  12.284  18.320  0.00  0.00    +0.000 OA
ATOM     18  O   UNL     1       0.349  11.964  20.535  0.00  0.00    +0.000 OA
ENDBRANCH   9  16
ENDBRANCH   1  12
BRANCH   6  19
ATOM     19  C   UNL     1       1.702   2.536  20.541  0.00  0.00    +0.000 C 
ATOM     20  F   UNL     1       2.019   2.113  21.801  0.00  0.00    +0.000 F 
ATOM     21  F   UNL     1       0.381   2.869  20.592  0.00  0.00    +0.000 F 
ATOM     22  F   UNL     1       1.779   1.424  19.755  0.00  0.00    +0.000 F 
ENDBRANCH   6  19
BRANCH   4  23
ATOM     23  C   UNL     1       6.505   5.267  17.812  0.00  0.00    +0.000 C 
BRANCH  23  24
ATOM     24  C   UNL     1       6.502   4.961  16.336  0.00  0.00    +0.000 A 
ATOM     25  N   UNL     1       5.697   4.133  15.697  0.00  0.00    +0.000 NA
ATOM     26  C   UNL     1       6.104   4.153  14.386  0.00  0.00    +0.000 A 
ATOM     27  C   UNL     1       5.602   3.451  13.280  0.00  0.00    +0.000 A 
ATOM     28  C   UNL     1       6.241   3.594  12.043  0.00  0.00    +0.000 A 
ATOM     29  C   UNL     1       7.354   4.426  11.905  0.00  0.00    +0.000 A 
ATOM     30  C   UNL     1       7.848   5.165  12.990  0.00  0.00    +0.000 A 
ATOM     31  C   UNL     1       7.193   5.001  14.215  0.00  0.00    +0.000 A 
ATOM     32  N   UNL     1       7.390   5.547  15.459  0.00  0.00    +0.000 N 
ATOM     33  H   UNL     1       8.087   6.238  15.695  0.00  0.00    +0.000 HD
ENDBRANCH  23  24
ENDBRANCH   4  23
TORSDOF 5
ENDMDL
MODEL 9
REMARK VINA RESULT:      -8.0      2.166      3.574
REMARK  Name = 
REMARK  6 active torsions:
REMARK  status: ('A' for Active; 'I' for Inactive)
REMARK    1  A    between atoms: C_1  and  S_2
REMARK    2  A    between atoms: S_2  and  C_5
REMARK    3  A    between atoms: C_8  and  C_9
REMARK    4  A    between atoms: N_12  and  C_13
REMARK    5  A    between atoms: C_13  and  C_14
REMARK    6  A    between atoms: C_24  and  C_25
REMARK                            x       y       z     vdW  Elec       q    Type
REMARK                         _______ _______ _______ _____ _____    ______ ____
ROOT
ATOM      1  C   UNL     1       2.970   5.918  19.319  0.00  0.00    +0.000 A 
ATOM      2  N   UNL     1       4.119   5.691  18.653  0.00  0.00    +0.000 NA
ATOM      3  C   UNL     1       4.685   4.483  18.767  0.00  0.00    +0.000 A 
ATOM      4  N   UNL     1       5.777   4.158  17.977  0.00  0.00    +0.000 N 
ATOM      5  C   UNL     1       4.121   3.504  19.562  0.00  0.00    +0.000 A 
ATOM      6  C   UNL     1       2.920   3.796  20.193  0.00  0.00    +0.000 A 
ATOM      7  N   UNL     1       2.332   5.011  20.073  0.00  0.00    +0.000 NA
ATOM      8  H   UNL     1       6.553   3.672  18.416  0.00  0.00    +0.000 HD
ENDROOT
BRANCH   1  12
ATOM      9  C   UNL     1       1.327   9.867  19.040  0.00  0.00    +0.000 A 
ATOM     10  C   UNL     1       1.131   9.125  20.205  0.00  0.00    +0.000 A 
ATOM     11  C   UNL     1       1.672   7.838  20.301  0.00  0.00    +0.000 A 
ATOM     12  C   UNL     1       2.390   7.267  19.229  0.00  0.00    +0.000 A 
ATOM     13  C   UNL     1       2.548   8.036  18.059  0.00  0.00    +0.000 A 
ATOM     14  C   UNL     1       2.021   9.325  17.959  0.00  0.00    +0.000 A 
BRANCH   9  16
ATOM     15  C   UNL     1       0.524  12.006  20.617  0.00  0.00    +0.000 C 
ATOM     16  S   UNL     1       0.672  11.514  18.916  0.00  0.00    +0.000 S 
ATOM     17  O   UNL     1      -0.662  11.414  18.356  0.00  0.00    +0.000 OA
ATOM     18  O   UNL     1       1.686  12.336  18.295  0.00  0.00    +0.000 OA
ENDBRANCH   9  16
ENDBRANCH   1  12
BRANCH   6  19
ATOM     19  C   UNL     1       2.210   2.734  21.016  0.00  0.00    +0.000 C 
ATOM     20  F   UNL     1       3.023   2.117  21.926  0.00  0.00    +0.000 F 
ATOM     21  F   UNL     1       1.169   3.234  21.741  0.00  0.00    +0.000 F 
ATOM     22  F   UNL     1       1.690   1.729  20.256  0.00  0.00    +0.000 F 
ENDBRANCH   6  19
BRANCH   4  23
ATOM     23  C   UNL     1       6.164   5.069  16.906  0.00  0.00    +0.000 C 
BRANCH  23  24
ATOM     24  C   UNL     1       6.911   6.292  17.369  0.00  0.00    +0.000 A 
ATOM     25  N   UNL     1       7.746   6.375  18.389  0.00  0.00    +0.000 NA
ATOM     26  C   UNL     1       8.137   7.691  18.445  0.00  0.00    +0.000 A 
ATOM     27  C   UNL     1       9.006   8.330  19.340  0.00  0.00    +0.000 A 
ATOM     28  C   UNL     1       9.194   9.713  19.229  0.00  0.00    +0.000 A 
ATOM     29  C   UNL     1       8.536  10.446  18.239  0.00  0.00    +0.000 A 
ATOM     30  C   UNL     1       7.692   9.819  17.312  0.00  0.00    +0.000 A 
ATOM     31  C   UNL     1       7.520   8.438  17.448  0.00  0.00    +0.000 A 
ATOM     32  N   UNL     1       6.790   7.513  16.741  0.00  0.00    +0.000 N 
ATOM     33  H   UNL     1       6.236   7.705  15.920  0.00  0.00    +0.000 HD
ENDBRANCH  23  24
ENDBRANCH   4  23
TORSDOF 5
ENDMDL
