MODEL 1
REMARK VINA RESULT:      -6.3      0.000      0.000
REMARK  Name = 
REMARK  14 active torsions:
REMARK  status: ('A' for Active; 'I' for Inactive)
REMARK    1  A    between atoms: C_1  and  C_2
REMARK    2  A    between atoms: C_2  and  N_3
REMARK    3  A    between atoms: N_3  and  C_4
REMARK    4  A    between atoms: N_3  and  C_6
REMARK    5  A    between atoms: C_4  and  C_5
REMARK    6  A    between atoms: C_6  and  C_7
REMARK    7  A    between atoms: C_7  and  N_8
REMARK    8  A    between atoms: C_9  and  C_11
REMARK    9  A    between atoms: C_15  and  N_16
REMARK   10  A    between atoms: C_18  and  O_19
REMARK   11  A    between atoms: O_19  and  C_20
REMARK   12  A    between atoms: C_20  and  C_21
REMARK   13  A    between atoms: C_21  and  C_22
REMARK   14  A    between atoms: C_21  and  O_23
REMARK                            x       y       z     vdW  Elec       q    Type
REMARK                         _______ _______ _______ _____ _____    ______ ____
ROOT
ATOM      1  C   UNL     1       2.805   6.437  18.905  0.00  0.00    +0.000 A 
ATOM      2  C   UNL     1       2.622   7.676  18.277  0.00  0.00    +0.000 A 
ATOM      3  C   UNL     1       1.856   8.666  18.894  0.00  0.00    +0.000 A 
ATOM      4 CL   UNL     1       1.643  10.161  18.051  0.00  0.00    +0.000 Cl
ATOM      5  C   UNL     1       1.301   8.462  20.161  0.00  0.00    +0.000 A 
ATOM      6  C   UNL     1       1.474   7.215  20.777  0.00  0.00    +0.000 A 
ATOM      7  C   UNL     1       2.225   6.197  20.163  0.00  0.00    +0.000 A 
ENDROOT
BRANCH   1   9
ATOM      8  N   UNL     1       4.912   5.198  18.689  0.00  0.00    +0.000 N 
ATOM      9  C   UNL     1       3.626   5.412  18.196  0.00  0.00    +0.000 C 
ATOM     10  O   UNL     1       3.196   4.807  17.232  0.00  0.00    +0.000 OA
ATOM     11  H   UNL     1       5.296   5.746  19.435  0.00  0.00    +0.000 HD
BRANCH   8  12
ATOM     12  C   UNL     1       5.759   4.172  18.100  0.00  0.00    +0.000 C 
BRANCH  12  13
ATOM     13  C   UNL     1       7.200   4.624  17.754  0.00  0.00    +0.000 C 
BRANCH  13  14
ATOM     14  N   UNL     1       7.336   5.548  16.597  0.00  0.00    +0.000 NA
BRANCH  14  16
ATOM     15  C   UNL     1       6.596   4.267  14.508  0.00  0.00    +0.000 C 
ATOM     16  C   UNL     1       6.268   5.266  15.609  0.00  0.00    +0.000 C 
ENDBRANCH  14  16
BRANCH  14  17
ATOM     17  C   UNL     1       7.354   6.959  17.045  0.00  0.00    +0.000 C 
ATOM     18  C   UNL     1       8.021   7.262  18.384  0.00  0.00    +0.000 C 
ENDBRANCH  14  17
ENDBRANCH  13  14
ENDBRANCH  12  13
ENDBRANCH   8  12
ENDBRANCH   1   9
BRANCH   5  19
ATOM     19  N   UNL     1       0.382   9.372  20.716  0.00  0.00    +0.000 N 
ATOM     20  H   UNL     1      -0.282   9.739  20.039  0.00  0.00    +0.000 HD
ATOM     21  H   UNL     1       0.793  10.097  21.297  0.00  0.00    +0.000 HD
ENDBRANCH   5  19
BRANCH   7  22
ATOM     22  O   UNL     1       2.433   4.977  20.754  0.00  0.00    +0.000 OA
BRANCH  22  23
ATOM     23  C   UNL     1       1.319   4.078  20.810  0.00  0.00    +0.000 C 
BRANCH  23  24
ATOM     24  C   UNL     1       1.713   2.745  20.157  0.00  0.00    +0.000 C 
ATOM     25  C   UNL     1       1.002   2.524  18.829  0.00  0.00    +0.000 C 
BRANCH  24  26
ATOM     26  O   UNL     1       3.126   2.686  19.945  0.00  0.00    +0.000 OA
ATOM     27  H   UNL     1       3.539   2.597  20.824  0.00  0.00    +0.000 HD
ENDBRANCH  24  26
ENDBRANCH  23  24
ENDBRANCH  22  23
ENDBRANCH   7  22
TORSDOF 11
ENDMDL
MODEL 2
REMARK VINA RESULT:      -6.1      3.009      6.770
REMARK  Name = 
REMARK  14 active torsions:
REMARK  status: ('A' for Active; 'I' for Inactive)
REMARK    1  A    between atoms: C_1  and  C_2
REMARK    2  A    between atoms: C_2  and  N_3
REMARK    3  A    between atoms: N_3  and  C_4
REMARK    4  A    between atoms: N_3  and  C_6
REMARK    5  A    between atoms: C_4  and  C_5
REMARK    6  A    between atoms: C_6  and  C_7
REMARK    7  A    between atoms: C_7  and  N_8
REMARK    8  A    between atoms: C_9  and  C_11
REMARK    9  A    between atoms: C_15  and  N_16
REMARK   10  A    between atoms: C_18  and  O_19
REMARK   11  A    between atoms: O_19  and  C_20
REMARK   12  A    between atoms: C_20  and  C_21
REMARK   13  A    between atoms: C_21  and  C_22
REMARK   14  A    between atoms: C_21  and  O_23
REMARK                            x       y       z     vdW  Elec       q    Type
REMARK                         _______ _______ _______ _____ _____    ______ ____
ROOT
ATOM      1  C   UNL     1       2.864   5.484  18.770  0.00  0.00    +0.000 A 
ATOM      2  C   UNL     1       1.818   4.557  18.854  0.00  0.00    +0.000 A 
ATOM      3  C   UNL     1       2.070   3.199  18.654  0.00  0.00    +0.000 A 
ATOM      4 CL   UNL     1       0.728   2.110  18.742  0.00  0.00    +0.000 Cl
ATOM      5  C   UNL     1       3.366   2.735  18.413  0.00  0.00    +0.000 A 
ATOM      6  C   UNL     1       4.406   3.669  18.313  0.00  0.00    +0.000 A 
ATOM      7  C   UNL     1       4.170   5.044  18.492  0.00  0.00    +0.000 A 
ENDROOT
BRANCH   1   9
ATOM      8  N   UNL     1       2.607   7.751  17.864  0.00  0.00    +0.000 N 
ATOM      9  C   UNL     1       2.536   6.925  18.984  0.00  0.00    +0.000 C 
ATOM     10  O   UNL     1       2.235   7.352  20.083  0.00  0.00    +0.000 OA
ATOM     11  H   UNL     1       2.926   7.417  16.974  0.00  0.00    +0.000 HD
BRANCH   8  12
ATOM     12  C   UNL     1       2.241   9.155  17.967  0.00  0.00    +0.000 C 
BRANCH  12  13
ATOM     13  C   UNL     1       0.727   9.454  17.830  0.00  0.00    +0.000 C 
BRANCH  13  14
ATOM     14  N   UNL     1       0.196  10.548  18.686  0.00  0.00    +0.000 NA
BRANCH  14  16
ATOM     15  C   UNL     1      -1.979  11.771  18.116  0.00  0.00    +0.000 C 
ATOM     16  C   UNL     1      -1.286  10.527  18.654  0.00  0.00    +0.000 C 
ENDBRANCH  14  16
BRANCH  14  17
ATOM     17  C   UNL     1       0.749  10.463  20.057  0.00  0.00    +0.000 C 
ATOM     18  C   UNL     1      -0.140   9.849  21.135  0.00  0.00    +0.000 C 
ENDBRANCH  14  17
ENDBRANCH  13  14
ENDBRANCH  12  13
ENDBRANCH   8  12
ENDBRANCH   1   9
BRANCH   5  19
ATOM     19  N   UNL     1       3.611   1.403  18.032  0.00  0.00    +0.000 N 
ATOM     20  H   UNL     1       4.181   1.322  17.193  0.00  0.00    +0.000 HD
ATOM     21  H   UNL     1       2.791   0.803  18.010  0.00  0.00    +0.000 HD
ENDBRANCH   5  19
BRANCH   7  22
ATOM     22  O   UNL     1       5.173   5.978  18.426  0.00  0.00    +0.000 OA
BRANCH  22  23
ATOM     23  C   UNL     1       5.884   6.089  17.187  0.00  0.00    +0.000 C 
BRANCH  23  24
ATOM     24  C   UNL     1       7.380   5.856  17.442  0.00  0.00    +0.000 C 
ATOM     25  C   UNL     1       7.740   6.002  18.914  0.00  0.00    +0.000 C 
BRANCH  24  26
ATOM     26  O   UNL     1       7.773   4.558  16.991  0.00  0.00    +0.000 OA
ATOM     27  H   UNL     1       7.347   3.913  17.587  0.00  0.00    +0.000 HD
ENDBRANCH  24  26
ENDBRANCH  23  24
ENDBRANCH  22  23
ENDBRANCH   7  22
TORSDOF 11
ENDMDL
MODEL 3
REMARK VINA RESULT:      -6.0      2.797      6.650
REMARK  Name = 
REMARK  14 active torsions:
REMARK  status: ('A' for Active; 'I' for Inactive)
REMARK    1  A    between atoms: C_1  and  C_2
REMARK    2  A    between atoms: C_2  and  N_3
REMARK    3  A    between atoms: N_3  and  C_4
REMARK    4  A    between atoms: N_3  and  C_6
REMARK    5  A    between atoms: C_4  and  C_5
REMARK    6  A    between atoms: C_6  and  C_7
REMARK    7  A    between atoms: C_7  and  N_8
REMARK    8  A    between atoms: C_9  and  C_11
REMARK    9  A    between atoms: C_15  and  N_16
REMARK   10  A    between atoms: C_18  and  O_19
REMARK   11  A    between atoms: O_19  and  C_20
REMARK   12  A    between atoms: C_20  and  C_21
REMARK   13  A    between atoms: C_21  and  C_22
REMARK   14  A    between atoms: C_21  and  O_23
REMARK                            x       y       z     vdW  Elec       q    Type
REMARK                         _______ _______ _______ _____ _____    ______ ____
ROOT
ATOM      1  C   UNL     1       3.401   5.876  18.180  0.00  0.00    +0.000 A 
ATOM      2  C   UNL     1       4.689   6.313  17.843  0.00  0.00    +0.000 A 
ATOM      3  C   UNL     1       5.529   5.494  17.087  0.00  0.00    +0.000 A 
ATOM      4 CL   UNL     1       7.117   6.081  16.732  0.00  0.00    +0.000 Cl
ATOM      5  C   UNL     1       5.091   4.254  16.615  0.00  0.00    +0.000 A 
ATOM      6  C   UNL     1       3.809   3.815  16.969  0.00  0.00    +0.000 A 
ATOM      7  C   UNL     1       2.953   4.616  17.746  0.00  0.00    +0.000 A 
ENDROOT
BRANCH   1   9
ATOM      8  N   UNL     1       2.265   8.035  18.441  0.00  0.00    +0.000 N 
ATOM      9  C   UNL     1       2.548   6.788  18.997  0.00  0.00    +0.000 C 
ATOM     10  O   UNL     1       2.134   6.462  20.093  0.00  0.00    +0.000 OA
ATOM     11  H   UNL     1       2.664   8.335  17.573  0.00  0.00    +0.000 HD
BRANCH   8  12
ATOM     12  C   UNL     1       1.388   8.963  19.139  0.00  0.00    +0.000 C 
BRANCH  12  13
ATOM     13  C   UNL     1       0.539   9.882  18.225  0.00  0.00    +0.000 C 
BRANCH  13  14
ATOM     14  N   UNL     1      -0.734  10.387  18.805  0.00  0.00    +0.000 NA
BRANCH  14  16
ATOM     15  C   UNL     1      -1.589  12.038  20.565  0.00  0.00    +0.000 C 
ATOM     16  C   UNL     1      -0.454  11.557  19.671  0.00  0.00    +0.000 C 
ENDBRANCH  14  16
BRANCH  14  17
ATOM     17  C   UNL     1      -1.724  10.673  17.744  0.00  0.00    +0.000 C 
ATOM     18  C   UNL     1      -2.942   9.757  17.653  0.00  0.00    +0.000 C 
ENDBRANCH  14  17
ENDBRANCH  13  14
ENDBRANCH  12  13
ENDBRANCH   8  12
ENDBRANCH   1   9
BRANCH   5  19
ATOM     19  N   UNL     1       5.978   3.343  16.010  0.00  0.00    +0.000 N 
ATOM     20  H   UNL     1       6.304   2.616  16.643  0.00  0.00    +0.000 HD
ATOM     21  H   UNL     1       6.731   3.766  15.475  0.00  0.00    +0.000 HD
ENDBRANCH   5  19
BRANCH   7  22
ATOM     22  O   UNL     1       1.683   4.223  18.085  0.00  0.00    +0.000 OA
BRANCH  22  23
ATOM     23  C   UNL     1       1.517   2.882  18.561  0.00  0.00    +0.000 C 
BRANCH  23  24
ATOM     24  C   UNL     1       1.219   2.915  20.068  0.00  0.00    +0.000 C 
ATOM     25  C   UNL     1       2.487   2.841  20.905  0.00  0.00    +0.000 C 
BRANCH  24  26
ATOM     26  O   UNL     1       0.499   4.101  20.413  0.00  0.00    +0.000 OA
ATOM     27  H   UNL     1      -0.426   3.958  20.142  0.00  0.00    +0.000 HD
ENDBRANCH  24  26
ENDBRANCH  23  24
ENDBRANCH  22  23
ENDBRANCH   7  22
TORSDOF 11
ENDMDL
MODEL 4
REMARK VINA RESULT:      -6.0      3.005      7.042
REMARK  Name = 
REMARK  14 active torsions:
REMARK  status: ('A' for Active; 'I' for Inactive)
REMARK    1  A    between atoms: C_1  and  C_2
REMARK    2  A    between atoms: C_2  and  N_3
REMARK    3  A    between atoms: N_3  and  C_4
REMARK    4  A    between atoms: N_3  and  C_6
REMARK    5  A    between atoms: C_4  and  C_5
REMARK    6  A    between atoms: C_6  and  C_7
REMARK    7  A    between atoms: C_7  and  N_8
REMARK    8  A    between atoms: C_9  and  C_11
REMARK    9  A    between atoms: C_15  and  N_16
REMARK   10  A    between atoms: C_18  and  O_19
REMARK   11  A    between atoms: O_19  and  C_20
REMARK   12  A    between atoms: C_20  and  C_21
REMARK   13  A    between atoms: C_21  and  C_22
REMARK   14  A    between atoms: C_21  and  O_23
REMARK                            x       y       z     vdW  Elec       q    Type
REMARK                         _______ _______ _______ _____ _____    ______ ____
ROOT
ATOM      1  C   UNL     1       2.869   5.327  18.940  0.00  0.00    +0.000 A 
ATOM      2  C   UNL     1       1.804   4.418  18.918  0.00  0.00    +0.000 A 
ATOM      3  C   UNL     1       2.052   3.055  18.750  0.00  0.00    +0.000 A 
ATOM      4 CL   UNL     1       0.691   1.989  18.702  0.00  0.00    +0.000 Cl
ATOM      5  C   UNL     1       3.359   2.569  18.648  0.00  0.00    +0.000 A 
ATOM      6  C   UNL     1       4.419   3.484  18.654  0.00  0.00    +0.000 A 
ATOM      7  C   UNL     1       4.189   4.864  18.802  0.00  0.00    +0.000 A 
ENDROOT
BRANCH   1   9
ATOM      8  N   UNL     1       2.042   7.152  20.358  0.00  0.00    +0.000 N 
ATOM      9  C   UNL     1       2.545   6.774  19.114  0.00  0.00    +0.000 C 
ATOM     10  O   UNL     1       2.702   7.575  18.212  0.00  0.00    +0.000 OA
ATOM     11  H   UNL     1       1.842   6.484  21.078  0.00  0.00    +0.000 HD
BRANCH   8  12
ATOM     12  C   UNL     1       1.760   8.551  20.638  0.00  0.00    +0.000 C 
BRANCH  12  13
ATOM     13  C   UNL     1       0.375   8.831  21.273  0.00  0.00    +0.000 C 
BRANCH  13  14
ATOM     14  N   UNL     1      -0.417   9.930  20.659  0.00  0.00    +0.000 NA
BRANCH  14  16
ATOM     15  C   UNL     1      -0.922  10.412  23.121  0.00  0.00    +0.000 C 
ATOM     16  C   UNL     1      -0.771  10.926  21.697  0.00  0.00    +0.000 C 
ENDBRANCH  14  16
BRANCH  14  17
ATOM     17  C   UNL     1       0.302  10.521  19.508  0.00  0.00    +0.000 C 
ATOM     18  C   UNL     1      -0.179  11.878  19.002  0.00  0.00    +0.000 C 
ENDBRANCH  14  17
ENDBRANCH  13  14
ENDBRANCH  12  13
ENDBRANCH   8  12
ENDBRANCH   1   9
BRANCH   5  19
ATOM     19  N   UNL     1       3.620   1.230  18.300  0.00  0.00    +0.000 N 
ATOM     20  H   UNL     1       3.168   0.557  18.915  0.00  0.00    +0.000 HD
ATOM     21  H   UNL     1       4.597   1.013  18.129  0.00  0.00    +0.000 HD
ENDBRANCH   5  19
BRANCH   7  22
ATOM     22  O   UNL     1       5.209   5.781  18.838  0.00  0.00    +0.000 OA
BRANCH  22  23
ATOM     23  C   UNL     1       5.885   6.056  17.605  0.00  0.00    +0.000 C 
BRANCH  23  24
ATOM     24  C   UNL     1       7.385   5.778  17.780  0.00  0.00    +0.000 C 
ATOM     25  C   UNL     1       7.793   5.738  19.246  0.00  0.00    +0.000 C 
BRANCH  24  26
ATOM     26  O   UNL     1       7.744   4.541  17.161  0.00  0.00    +0.000 OA
ATOM     27  H   UNL     1       8.629   4.668  16.770  0.00  0.00    +0.000 HD
ENDBRANCH  24  26
ENDBRANCH  23  24
ENDBRANCH  22  23
ENDBRANCH   7  22
TORSDOF 11
ENDMDL
MODEL 5
REMARK VINA RESULT:      -5.9      3.026      6.946
REMARK  Name = 
REMARK  14 active torsions:
REMARK  status: ('A' for Active; 'I' for Inactive)
REMARK    1  A    between atoms: C_1  and  C_2
REMARK    2  A    between atoms: C_2  and  N_3
REMARK    3  A    between atoms: N_3  and  C_4
REMARK    4  A    between atoms: N_3  and  C_6
REMARK    5  A    between atoms: C_4  and  C_5
REMARK    6  A    between atoms: C_6  and  C_7
REMARK    7  A    between atoms: C_7  and  N_8
REMARK    8  A    between atoms: C_9  and  C_11
REMARK    9  A    between atoms: C_15  and  N_16
REMARK   10  A    between atoms: C_18  and  O_19
REMARK   11  A    between atoms: O_19  and  C_20
REMARK   12  A    between atoms: C_20  and  C_21
REMARK   13  A    between atoms: C_21  and  C_22
REMARK   14  A    between atoms: C_21  and  O_23
REMARK                            x       y       z     vdW  Elec       q    Type
REMARK                         _______ _______ _______ _____ _____    ______ ____
ROOT
ATOM      1  C   UNL     1       2.645   5.737  18.674  0.00  0.00    +0.000 A 
ATOM      2  C   UNL     1       1.828   4.796  19.314  0.00  0.00    +0.000 A 
ATOM      3  C   UNL     1       2.023   3.433  19.089  0.00  0.00    +0.000 A 
ATOM      4 CL   UNL     1       0.959   2.326  19.886  0.00  0.00    +0.000 Cl
ATOM      5  C   UNL     1       3.058   2.980  18.266  0.00  0.00    +0.000 A 
ATOM      6  C   UNL     1       3.862   3.925  17.616  0.00  0.00    +0.000 A 
ATOM      7  C   UNL     1       3.669   5.304  17.813  0.00  0.00    +0.000 A 
ENDROOT
BRANCH   1   9
ATOM      8  N   UNL     1       2.331   8.021  17.832  0.00  0.00    +0.000 N 
ATOM      9  C   UNL     1       2.387   7.182  18.944  0.00  0.00    +0.000 C 
ATOM     10  O   UNL     1       2.244   7.603  20.077  0.00  0.00    +0.000 OA
ATOM     11  H   UNL     1       2.521   7.690  16.905  0.00  0.00    +0.000 HD
BRANCH   8  12
ATOM     12  C   UNL     1       2.020   9.432  17.996  0.00  0.00    +0.000 C 
BRANCH  12  13
ATOM     13  C   UNL     1       0.519   9.797  17.862  0.00  0.00    +0.000 C 
BRANCH  13  14
ATOM     14  N   UNL     1      -0.203  10.071  19.133  0.00  0.00    +0.000 NA
BRANCH  14  16
ATOM     15  C   UNL     1       0.595  10.356  21.548  0.00  0.00    +0.000 C 
ATOM     16  C   UNL     1       0.707  10.753  20.083  0.00  0.00    +0.000 C 
ENDBRANCH  14  16
BRANCH  14  17
ATOM     17  C   UNL     1      -1.451  10.826  18.881  0.00  0.00    +0.000 C 
ATOM     18  C   UNL     1      -1.314  12.269  18.404  0.00  0.00    +0.000 C 
ENDBRANCH  14  17
ENDBRANCH  13  14
ENDBRANCH  12  13
ENDBRANCH   8  12
ENDBRANCH   1   9
BRANCH   5  19
ATOM     19  N   UNL     1       3.157   1.628  17.886  0.00  0.00    +0.000 N 
ATOM     20  H   UNL     1       2.825   0.983  18.599  0.00  0.00    +0.000 HD
ATOM     21  H   UNL     1       4.054   1.356  17.495  0.00  0.00    +0.000 HD
ENDBRANCH   5  19
BRANCH   7  22
ATOM     22  O   UNL     1       4.458   6.252  17.210  0.00  0.00    +0.000 OA
BRANCH  22  23
ATOM     23  C   UNL     1       5.761   5.841  16.779  0.00  0.00    +0.000 C 
BRANCH  23  24
ATOM     24  C   UNL     1       6.821   6.674  17.515  0.00  0.00    +0.000 C 
ATOM     25  C   UNL     1       7.535   5.870  18.592  0.00  0.00    +0.000 C 
BRANCH  24  26
ATOM     26  O   UNL     1       7.789   7.185  16.595  0.00  0.00    +0.000 OA
ATOM     27  H   UNL     1       8.047   6.443  16.017  0.00  0.00    +0.000 HD
ENDBRANCH  24  26
ENDBRANCH  23  24
ENDBRANCH  22  23
ENDBRANCH   7  22
TORSDOF 11
ENDMDL
MODEL 6
REMARK VINA RESULT:      -5.9      3.089      6.959
REMARK  Name = 
REMARK  14 active torsions:
REMARK  status: ('A' for Active; 'I' for Inactive)
REMARK    1  A    between atoms: C_1  and  C_2
REMARK    2  A    between atoms: C_2  and  N_3
REMARK    3  A    between atoms: N_3  and  C_4
REMARK    4  A    between atoms: N_3  and  C_6
REMARK    5  A    between atoms: C_4  and  C_5
REMARK    6  A    between atoms: C_6  and  C_7
REMARK    7  A    between atoms: C_7  and  N_8
REMARK    8  A    between atoms: C_9  and  C_11
REMARK    9  A    between atoms: C_15  and  N_16
REMARK   10  A    between atoms: C_18  and  O_19
REMARK   11  A    between atoms: O_19  and  C_20
REMARK   12  A    between atoms: C_20  and  C_21
REMARK   13  A    between atoms: C_21  and  C_22
REMARK   14  A    between atoms: C_21  and  O_23
REMARK                            x       y       z     vdW  Elec       q    Type
REMARK                         _______ _______ _______ _____ _____    ______ ____
ROOT
ATOM      1  C   UNL     1       2.884   5.590  18.629  0.00  0.00    +0.000 A 
ATOM      2  C   UNL     1       2.022   4.618  19.153  0.00  0.00    +0.000 A 
ATOM      3  C   UNL     1       2.285   3.264  18.941  0.00  0.00    +0.000 A 
ATOM      4 CL   UNL     1       1.164   2.116  19.588  0.00  0.00    +0.000 Cl
ATOM      5  C   UNL     1       3.428   2.852  18.250  0.00  0.00    +0.000 A 
ATOM      6  C   UNL     1       4.278   3.829  17.715  0.00  0.00    +0.000 A 
ATOM      7  C   UNL     1       4.020   5.199  17.900  0.00  0.00    +0.000 A 
ENDROOT
BRANCH   1   9
ATOM      8  N   UNL     1       2.572   7.868  17.769  0.00  0.00    +0.000 N 
ATOM      9  C   UNL     1       2.551   7.023  18.879  0.00  0.00    +0.000 C 
ATOM     10  O   UNL     1       2.286   7.431  19.994  0.00  0.00    +0.000 OA
ATOM     11  H   UNL     1       2.861   7.550  16.863  0.00  0.00    +0.000 HD
BRANCH   8  12
ATOM     12  C   UNL     1       2.197   9.266  17.908  0.00  0.00    +0.000 C 
BRANCH  12  13
ATOM     13  C   UNL     1       0.673   9.548  17.866  0.00  0.00    +0.000 C 
BRANCH  13  14
ATOM     14  N   UNL     1       0.133  10.389  18.966  0.00  0.00    +0.000 NA
BRANCH  14  16
ATOM     15  C   UNL     1       0.064  12.916  19.370  0.00  0.00    +0.000 C 
ATOM     16  C   UNL     1       0.870  11.674  19.015  0.00  0.00    +0.000 C 
ENDBRANCH  14  16
BRANCH  14  17
ATOM     17  C   UNL     1      -1.331  10.564  18.831  0.00  0.00    +0.000 C 
ATOM     18  C   UNL     1      -1.969  10.137  17.512  0.00  0.00    +0.000 C 
ENDBRANCH  14  17
ENDBRANCH  13  14
ENDBRANCH  12  13
ENDBRANCH   8  12
ENDBRANCH   1   9
BRANCH   5  19
ATOM     19  N   UNL     1       3.615   1.509  17.873  0.00  0.00    +0.000 N 
ATOM     20  H   UNL     1       4.350   1.041  18.398  0.00  0.00    +0.000 HD
ATOM     21  H   UNL     1       3.682   1.348  16.872  0.00  0.00    +0.000 HD
ENDBRANCH   5  19
BRANCH   7  22
ATOM     22  O   UNL     1       4.849   6.176  17.409  0.00  0.00    +0.000 OA
BRANCH  22  23
ATOM     23  C   UNL     1       5.668   5.837  16.284  0.00  0.00    +0.000 C 
BRANCH  23  24
ATOM     24  C   UNL     1       7.146   5.912  16.694  0.00  0.00    +0.000 C 
ATOM     25  C   UNL     1       7.353   6.764  17.939  0.00  0.00    +0.000 C 
BRANCH  24  26
ATOM     26  O   UNL     1       7.670   4.603  16.932  0.00  0.00    +0.000 OA
ATOM     27  H   UNL     1       7.208   4.254  17.717  0.00  0.00    +0.000 HD
ENDBRANCH  24  26
ENDBRANCH  23  24
ENDBRANCH  22  23
ENDBRANCH   7  22
TORSDOF 11
ENDMDL
MODEL 7
REMARK VINA RESULT:      -5.9      3.080      6.817
REMARK  Name = 
REMARK  14 active torsions:
REMARK  status: ('A' for Active; 'I' for Inactive)
REMARK    1  A    between atoms: C_1  and  C_2
REMARK    2  A    between atoms: C_2  and  N_3
REMARK    3  A    between atoms: N_3  and  C_4
REMARK    4  A    between atoms: N_3  and  C_6
REMARK    5  A    between atoms: C_4  and  C_5
REMARK    6  A    between atoms: C_6  and  C_7
REMARK    7  A    between atoms: C_7  and  N_8
REMARK    8  A    between atoms: C_9  and  C_11
REMARK    9  A    between atoms: C_15  and  N_16
REMARK   10  A    between atoms: C_18  and  O_19
REMARK   11  A    between atoms: O_19  and  C_20
REMARK   12  A    between atoms: C_20  and  C_21
REMARK   13  A    between atoms: C_21  and  C_22
REMARK   14  A    between atoms: C_21  and  O_23
REMARK                            x       y       z     vdW  Elec       q    Type
REMARK                         _______ _______ _______ _____ _____    ______ ____
ROOT
ATOM      1  C   UNL     1       2.804   5.487  18.734  0.00  0.00    +0.000 A 
ATOM      2  C   UNL     1       1.765   4.559  18.885  0.00  0.00    +0.000 A 
ATOM      3  C   UNL     1       2.008   3.200  18.683  0.00  0.00    +0.000 A 
ATOM      4 CL   UNL     1       0.675   2.111  18.855  0.00  0.00    +0.000 Cl
ATOM      5  C   UNL     1       3.290   2.735  18.376  0.00  0.00    +0.000 A 
ATOM      6  C   UNL     1       4.321   3.669  18.211  0.00  0.00    +0.000 A 
ATOM      7  C   UNL     1       4.093   5.045  18.390  0.00  0.00    +0.000 A 
ENDROOT
BRANCH   1   9
ATOM      8  N   UNL     1       2.582   7.761  17.839  0.00  0.00    +0.000 N 
ATOM      9  C   UNL     1       2.487   6.929  18.953  0.00  0.00    +0.000 C 
ATOM     10  O   UNL     1       2.173   7.353  20.050  0.00  0.00    +0.000 OA
ATOM     11  H   UNL     1       2.910   7.430  16.952  0.00  0.00    +0.000 HD
BRANCH   8  12
ATOM     12  C   UNL     1       2.228   9.168  17.946  0.00  0.00    +0.000 C 
BRANCH  12  13
ATOM     13  C   UNL     1       0.715   9.479  17.820  0.00  0.00    +0.000 C 
BRANCH  13  14
ATOM     14  N   UNL     1       0.133  10.336  18.886  0.00  0.00    +0.000 NA
BRANCH  14  16
ATOM     15  C   UNL     1       0.850  12.791  18.769  0.00  0.00    +0.000 C 
ATOM     16  C   UNL     1       1.112  11.379  19.274  0.00  0.00    +0.000 C 
ENDBRANCH  14  16
BRANCH  14  17
ATOM     17  C   UNL     1      -1.173  10.893  18.466  0.00  0.00    +0.000 C 
ATOM     18  C   UNL     1      -1.999  10.075  17.477  0.00  0.00    +0.000 C 
ENDBRANCH  14  17
ENDBRANCH  13  14
ENDBRANCH  12  13
ENDBRANCH   8  12
ENDBRANCH   1   9
BRANCH   5  19
ATOM     19  N   UNL     1       3.516   1.399  17.994  0.00  0.00    +0.000 N 
ATOM     20  H   UNL     1       2.664   0.846  17.938  0.00  0.00    +0.000 HD
ATOM     21  H   UNL     1       4.259   0.927  18.501  0.00  0.00    +0.000 HD
ENDBRANCH   5  19
BRANCH   7  22
ATOM     22  O   UNL     1       5.090   5.979  18.260  0.00  0.00    +0.000 OA
BRANCH  22  23
ATOM     23  C   UNL     1       6.380   5.637  18.780  0.00  0.00    +0.000 C 
BRANCH  23  24
ATOM     24  C   UNL     1       7.428   5.782  17.666  0.00  0.00    +0.000 C 
ATOM     25  C   UNL     1       7.365   4.635  16.667  0.00  0.00    +0.000 C 
BRANCH  24  26
ATOM     26  O   UNL     1       7.254   7.018  16.969  0.00  0.00    +0.000 OA
ATOM     27  H   UNL     1       6.719   6.822  16.177  0.00  0.00    +0.000 HD
ENDBRANCH  24  26
ENDBRANCH  23  24
ENDBRANCH  22  23
ENDBRANCH   7  22
TORSDOF 11
ENDMDL
MODEL 8
REMARK VINA RESULT:      -5.9      2.426      6.400
REMARK  Name = 
REMARK  14 active torsions:
REMARK  status: ('A' for Active; 'I' for Inactive)
REMARK    1  A    between atoms: C_1  and  C_2
REMARK    2  A    between atoms: C_2  and  N_3
REMARK    3  A    between atoms: N_3  and  C_4
REMARK    4  A    between atoms: N_3  and  C_6
REMARK    5  A    between atoms: C_4  and  C_5
REMARK    6  A    between atoms: C_6  and  C_7
REMARK    7  A    between atoms: C_7  and  N_8
REMARK    8  A    between atoms: C_9  and  C_11
REMARK    9  A    between atoms: C_15  and  N_16
REMARK   10  A    between atoms: C_18  and  O_19
REMARK   11  A    between atoms: O_19  and  C_20
REMARK   12  A    between atoms: C_20  and  C_21
REMARK   13  A    between atoms: C_21  and  C_22
REMARK   14  A    between atoms: C_21  and  O_23
REMARK                            x       y       z     vdW  Elec       q    Type
REMARK                         _______ _______ _______ _____ _____    ______ ____
ROOT
ATOM      1  C   UNL     1       4.133   5.865  18.458  0.00  0.00    +0.000 A 
ATOM      2  C   UNL     1       5.169   6.714  18.048  0.00  0.00    +0.000 A 
ATOM      3  C   UNL     1       6.430   6.189  17.761  0.00  0.00    +0.000 A 
ATOM      4 CL   UNL     1       7.674   7.295  17.291  0.00  0.00    +0.000 Cl
ATOM      5  C   UNL     1       6.670   4.813  17.831  0.00  0.00    +0.000 A 
ATOM      6  C   UNL     1       5.635   3.971  18.257  0.00  0.00    +0.000 A 
ATOM      7  C   UNL     1       4.362   4.482  18.570  0.00  0.00    +0.000 A 
ENDROOT
BRANCH   1   9
ATOM      8  N   UNL     1       2.533   6.735  20.104  0.00  0.00    +0.000 N 
ATOM      9  C   UNL     1       2.807   6.481  18.760  0.00  0.00    +0.000 C 
ATOM     10  O   UNL     1       2.007   6.735  17.879  0.00  0.00    +0.000 OA
ATOM     11  H   UNL     1       3.158   6.460  20.837  0.00  0.00    +0.000 HD
BRANCH   8  12
ATOM     12  C   UNL     1       1.292   7.393  20.484  0.00  0.00    +0.000 C 
BRANCH  12  13
ATOM     13  C   UNL     1       1.454   8.614  21.424  0.00  0.00    +0.000 C 
BRANCH  13  14
ATOM     14  N   UNL     1       0.303   9.553  21.481  0.00  0.00    +0.000 NA
BRANCH  14  16
ATOM     15  C   UNL     1      -1.163  10.815  23.157  0.00  0.00    +0.000 C 
ATOM     16  C   UNL     1      -0.101   9.757  22.892  0.00  0.00    +0.000 C 
ENDBRANCH  14  16
BRANCH  14  17
ATOM     17  C   UNL     1       0.616  10.818  20.778  0.00  0.00    +0.000 C 
ATOM     18  C   UNL     1      -0.064  11.059  19.433  0.00  0.00    +0.000 C 
ENDBRANCH  14  17
ENDBRANCH  13  14
ENDBRANCH  12  13
ENDBRANCH   8  12
ENDBRANCH   1   9
BRANCH   5  19
ATOM     19  N   UNL     1       7.971   4.288  17.722  0.00  0.00    +0.000 N 
ATOM     20  H   UNL     1       8.680   4.998  17.554  0.00  0.00    +0.000 HD
ATOM     21  H   UNL     1       8.062   3.487  17.103  0.00  0.00    +0.000 HD
ENDBRANCH   5  19
BRANCH   7  22
ATOM     22  O   UNL     1       3.323   3.679  18.965  0.00  0.00    +0.000 OA
BRANCH  22  23
ATOM     23  C   UNL     1       3.430   3.052  20.249  0.00  0.00    +0.000 C 
BRANCH  23  24
ATOM     24  C   UNL     1       2.212   3.439  21.102  0.00  0.00    +0.000 C 
ATOM     25  C   UNL     1       0.941   3.544  20.271  0.00  0.00    +0.000 C 
BRANCH  24  26
ATOM     26  O   UNL     1       2.008   2.487  22.149  0.00  0.00    +0.000 OA
ATOM     27  H   UNL     1       1.467   2.930  22.829  0.00  0.00    +0.000 HD
ENDBRANCH  24  26
ENDBRANCH  23  24
ENDBRANCH  22  23
ENDBRANCH   7  22
TORSDOF 11
ENDMDL
MODEL 9
REMARK VINA RESULT:      -5.9      2.877      6.697
REMARK  Name = 
REMARK  14 active torsions:
REMARK  status: ('A' for Active; 'I' for Inactive)
REMARK    1  A    between atoms: C_1  and  C_2
REMARK    2  A    between atoms: C_2  and  N_3
REMARK    3  A    between atoms: N_3  and  C_4
REMARK    4  A    between atoms: N_3  and  C_6
REMARK    5  A    between atoms: C_4  and  C_5
REMARK    6  A    between atoms: C_6  and  C_7
REMARK    7  A    between atoms: C_7  and  N_8
REMARK    8  A    between atoms: C_9  and  C_11
REMARK    9  A    between atoms: C_15  and  N_16
REMARK   10  A    between atoms: C_18  and  O_19
REMARK   11  A    between atoms: O_19  and  C_20
REMARK   12  A    between atoms: C_20  and  C_21
REMARK   13  A    between atoms: C_21  and  C_22
REMARK   14  A    between atoms: C_21  and  O_23
REMARK                            x       y       z     vdW  Elec       q    Type
REMARK                         _______ _______ _______ _____ _____    ______ ____
ROOT
ATOM      1  C   UNL     1       3.027   5.563  18.130  0.00  0.00    +0.000 A 
ATOM      2  C   UNL     1       2.233   5.159  19.212  0.00  0.00    +0.000 A 
ATOM      3  C   UNL     1       2.039   3.800  19.467  0.00  0.00    +0.000 A 
ATOM      4 CL   UNL     1       1.022   3.370  20.798  0.00  0.00    +0.000 Cl
ATOM      5  C   UNL     1       2.664   2.825  18.686  0.00  0.00    +0.000 A 
ATOM      6  C   UNL     1       3.444   3.234  17.597  0.00  0.00    +0.000 A 
ATOM      7  C   UNL     1       3.636   4.598  17.310  0.00  0.00    +0.000 A 
ENDROOT
BRANCH   1   9
ATOM      8  N   UNL     1       2.023   7.783  17.838  0.00  0.00    +0.000 N 
ATOM      9  C   UNL     1       3.193   7.028  17.899  0.00  0.00    +0.000 C 
ATOM     10  O   UNL     1       4.293   7.530  17.759  0.00  0.00    +0.000 OA
ATOM     11  H   UNL     1       1.114   7.363  17.878  0.00  0.00    +0.000 HD
BRANCH   8  12
ATOM     12  C   UNL     1       2.094   9.228  17.680  0.00  0.00    +0.000 C 
BRANCH  12  13
ATOM     13  C   UNL     1       1.610  10.049  18.901  0.00  0.00    +0.000 C 
BRANCH  13  14
ATOM     14  N   UNL     1       0.327   9.616  19.514  0.00  0.00    +0.000 NA
BRANCH  14  16
ATOM     15  C   UNL     1      -0.395   8.564  21.733  0.00  0.00    +0.000 C 
ATOM     16  C   UNL     1       0.473   9.567  20.988  0.00  0.00    +0.000 C 
ENDBRANCH  14  16
BRANCH  14  17
ATOM     17  C   UNL     1      -0.791  10.478  19.070  0.00  0.00    +0.000 C 
ATOM     18  C   UNL     1      -1.496  10.098  17.770  0.00  0.00    +0.000 C 
ENDBRANCH  14  17
ENDBRANCH  13  14
ENDBRANCH  12  13
ENDBRANCH   8  12
ENDBRANCH   1   9
BRANCH   5  19
ATOM     19  N   UNL     1       2.339   1.461  18.814  0.00  0.00    +0.000 N 
ATOM     20  H   UNL     1       2.032   1.206  19.750  0.00  0.00    +0.000 HD
ATOM     21  H   UNL     1       3.028   0.817  18.436  0.00  0.00    +0.000 HD
ENDBRANCH   5  19
BRANCH   7  22
ATOM     22  O   UNL     1       4.416   5.028  16.266  0.00  0.00    +0.000 OA
BRANCH  22  23
ATOM     23  C   UNL     1       5.638   4.320  16.026  0.00  0.00    +0.000 C 
BRANCH  23  24
ATOM     24  C   UNL     1       6.823   5.209  16.435  0.00  0.00    +0.000 C 
ATOM     25  C   UNL     1       7.619   4.610  17.585  0.00  0.00    +0.000 C 
BRANCH  24  26
ATOM     26  O   UNL     1       7.697   5.426  15.324  0.00  0.00    +0.000 OA
ATOM     27  H   UNL     1       8.055   4.554  15.074  0.00  0.00    +0.000 HD
ENDBRANCH  24  26
ENDBRANCH  23  24
ENDBRANCH  22  23
ENDBRANCH   7  22
TORSDOF 11
ENDMDL
