MODEL 1
REMARK VINA RESULT:      -6.8      0.000      0.000
REMARK  Name = 
REMARK  6 active torsions:
REMARK  status: ('A' for Active; 'I' for Inactive)
REMARK    1  A    between atoms: S_2  and  C_4
REMARK    2  A    between atoms: S_2  and  N_11
REMARK    3  A    between atoms: C_4  and  C_5
REMARK    4  A    between atoms: C_5  and  N_6
REMARK    5  A    between atoms: N_11  and  C_12
REMARK    6  A    between atoms: C_12  and  C_13
REMARK                            x       y       z     vdW  Elec       q    Type
REMARK                         _______ _______ _______ _____ _____    ______ ____
ROOT
ATOM      1  O   UNL     1       2.874   2.133  17.758  0.00  0.00    +0.000 OA
ATOM      2  S   UNL     1       3.671   3.340  17.792  0.00  0.00    +0.000 S 
ATOM      3  O   UNL     1       3.131   4.621  17.396  0.00  0.00    +0.000 OA
ENDROOT
BRANCH   2   4
ATOM      4  N   UNL     1       5.078   3.099  16.895  0.00  0.00    +0.000 NA
ATOM      5  H   UNL     1       5.150   2.199  16.427  0.00  0.00    +0.000 HD
BRANCH   4   6
ATOM      6  C   UNL     1       5.591   4.226  16.098  0.00  0.00    +0.000 C 
BRANCH   6   7
ATOM      7  C   UNL     1       6.469   5.194  16.859  0.00  0.00    +0.000 A 
ATOM      8  C   UNL     1       7.302   4.758  17.904  0.00  0.00    +0.000 A 
ATOM      9  C   UNL     1       8.036   5.677  18.651  0.00  0.00    +0.000 A 
ATOM     10  C   UNL     1       7.967   7.027  18.333  0.00  0.00    +0.000 A 
ATOM     11  F   UNL     1       8.663   7.913  19.057  0.00  0.00    +0.000 F 
ATOM     12  C   UNL     1       7.180   7.476  17.278  0.00  0.00    +0.000 A 
ATOM     13  C   UNL     1       6.432   6.559  16.539  0.00  0.00    +0.000 A 
ENDBRANCH   6   7
ENDBRANCH   4   6
ENDBRANCH   2   4
BRANCH   2  14
ATOM     14  C   UNL     1       4.292   3.480  19.450  0.00  0.00    +0.000 C 
BRANCH  14  15
ATOM     15  C   UNL     1       3.606   2.501  20.393  0.00  0.00    +0.000 C 
BRANCH  15  16
ATOM     16  N   UNL     1       2.712   3.167  21.363  0.00  0.00    +0.000 NA
ATOM     17  C   UNL     1       1.359   2.579  21.396  0.00  0.00    +0.000 C 
ATOM     18  C   UNL     1       0.621   3.241  20.253  0.00  0.00    +0.000 C 
ATOM     19  C   UNL     1       1.103   4.673  20.348  0.00  0.00    +0.000 C 
ATOM     20  C   UNL     1       2.497   4.578  20.967  0.00  0.00    +0.000 C 
ENDBRANCH  15  16
ENDBRANCH  14  15
ENDBRANCH   2  14
TORSDOF 6
ENDMDL
MODEL 2
REMARK VINA RESULT:      -6.7      3.749      4.863
REMARK  Name = 
REMARK  6 active torsions:
REMARK  status: ('A' for Active; 'I' for Inactive)
REMARK    1  A    between atoms: S_2  and  C_4
REMARK    2  A    between atoms: S_2  and  N_11
REMARK    3  A    between atoms: C_4  and  C_5
REMARK    4  A    between atoms: C_5  and  N_6
REMARK    5  A    between atoms: N_11  and  C_12
REMARK    6  A    between atoms: C_12  and  C_13
REMARK                            x       y       z     vdW  Elec       q    Type
REMARK                         _______ _______ _______ _____ _____    ______ ____
ROOT
ATOM      1  O   UNL     1       6.341   5.161  19.720  0.00  0.00    +0.000 OA
ATOM      2  S   UNL     1       5.257   4.835  18.817  0.00  0.00    +0.000 S 
ATOM      3  O   UNL     1       5.417   4.894  17.382  0.00  0.00    +0.000 OA
ENDROOT
BRANCH   2   4
ATOM      4  N   UNL     1       3.914   5.779  19.203  0.00  0.00    +0.000 NA
ATOM      5  H   UNL     1       3.927   6.200  20.129  0.00  0.00    +0.000 HD
BRANCH   4   6
ATOM      6  C   UNL     1       3.363   6.657  18.159  0.00  0.00    +0.000 C 
BRANCH   6   7
ATOM      7  C   UNL     1       2.383   7.696  18.655  0.00  0.00    +0.000 A 
ATOM      8  C   UNL     1       1.874   8.688  17.797  0.00  0.00    +0.000 A 
ATOM      9  C   UNL     1       1.043   9.689  18.294  0.00  0.00    +0.000 A 
ATOM     10  C   UNL     1       0.689   9.682  19.636  0.00  0.00    +0.000 A 
ATOM     11  F   UNL     1      -0.102  10.650  20.117  0.00  0.00    +0.000 F 
ATOM     12  C   UNL     1       1.148   8.688  20.493  0.00  0.00    +0.000 A 
ATOM     13  C   UNL     1       1.994   7.693  20.002  0.00  0.00    +0.000 A 
ENDBRANCH   6   7
ENDBRANCH   4   6
ENDBRANCH   2   4
BRANCH   2  14
ATOM     14  C   UNL     1       4.718   3.202  19.257  0.00  0.00    +0.000 C 
BRANCH  14  15
ATOM     15  C   UNL     1       3.406   2.838  18.577  0.00  0.00    +0.000 C 
BRANCH  15  16
ATOM     16  N   UNL     1       2.438   2.202  19.494  0.00  0.00    +0.000 NA
ATOM     17  C   UNL     1       1.047   2.627  19.249  0.00  0.00    +0.000 C 
ATOM     18  C   UNL     1       0.904   3.935  19.998  0.00  0.00    +0.000 C 
ATOM     19  C   UNL     1       1.666   3.656  21.276  0.00  0.00    +0.000 C 
ATOM     20  C   UNL     1       2.716   2.616  20.889  0.00  0.00    +0.000 C 
ENDBRANCH  15  16
ENDBRANCH  14  15
ENDBRANCH   2  14
TORSDOF 6
ENDMDL
MODEL 3
REMARK VINA RESULT:      -6.5      3.591      4.442
REMARK  Name = 
REMARK  6 active torsions:
REMARK  status: ('A' for Active; 'I' for Inactive)
REMARK    1  A    between atoms: S_2  and  C_4
REMARK    2  A    between atoms: S_2  and  N_11
REMARK    3  A    between atoms: C_4  and  C_5
REMARK    4  A    between atoms: C_5  and  N_6
REMARK    5  A    between atoms: N_11  and  C_12
REMARK    6  A    between atoms: C_12  and  C_13
REMARK                            x       y       z     vdW  Elec       q    Type
REMARK                         _______ _______ _______ _____ _____    ______ ____
ROOT
ATOM      1  O   UNL     1       6.104   5.375  19.742  0.00  0.00    +0.000 OA
ATOM      2  S   UNL     1       6.014   5.111  18.322  0.00  0.00    +0.000 S 
ATOM      3  O   UNL     1       7.181   4.805  17.527  0.00  0.00    +0.000 OA
ENDROOT
BRANCH   2   4
ATOM      4  N   UNL     1       5.231   6.401  17.570  0.00  0.00    +0.000 NA
ATOM      5  H   UNL     1       5.732   6.825  16.793  0.00  0.00    +0.000 HD
BRANCH   4   6
ATOM      6  C   UNL     1       3.778   6.297  17.353  0.00  0.00    +0.000 C 
BRANCH   6   7
ATOM      7  C   UNL     1       2.940   7.203  18.225  0.00  0.00    +0.000 A 
ATOM      8  C   UNL     1       2.609   6.846  19.545  0.00  0.00    +0.000 A 
ATOM      9  C   UNL     1       1.762   7.652  20.302  0.00  0.00    +0.000 A 
ATOM     10  C   UNL     1       1.273   8.832  19.758  0.00  0.00    +0.000 A 
ATOM     11  F   UNL     1       0.450   9.603  20.481  0.00  0.00    +0.000 F 
ATOM     12  C   UNL     1       1.619   9.225  18.469  0.00  0.00    +0.000 A 
ATOM     13  C   UNL     1       2.454   8.411  17.703  0.00  0.00    +0.000 A 
ENDBRANCH   6   7
ENDBRANCH   4   6
ENDBRANCH   2   4
BRANCH   2  14
ATOM     14  C   UNL     1       4.843   3.790  18.135  0.00  0.00    +0.000 C 
BRANCH  14  15
ATOM     15  C   UNL     1       4.193   3.420  19.461  0.00  0.00    +0.000 C 
BRANCH  15  16
ATOM     16  N   UNL     1       3.127   2.407  19.316  0.00  0.00    +0.000 NA
ATOM     17  C   UNL     1       2.362   2.552  18.063  0.00  0.00    +0.000 C 
ATOM     18  C   UNL     1       1.323   3.610  18.363  0.00  0.00    +0.000 C 
ATOM     19  C   UNL     1       0.897   3.251  19.770  0.00  0.00    +0.000 C 
ATOM     20  C   UNL     1       2.120   2.576  20.390  0.00  0.00    +0.000 C 
ENDBRANCH  15  16
ENDBRANCH  14  15
ENDBRANCH   2  14
TORSDOF 6
ENDMDL
MODEL 4
REMARK VINA RESULT:      -6.5      3.253      5.650
REMARK  Name = 
REMARK  6 active torsions:
REMARK  status: ('A' for Active; 'I' for Inactive)
REMARK    1  A    between atoms: S_2  and  C_4
REMARK    2  A    between atoms: S_2  and  N_11
REMARK    3  A    between atoms: C_4  and  C_5
REMARK    4  A    between atoms: C_5  and  N_6
REMARK    5  A    between atoms: N_11  and  C_12
REMARK    6  A    between atoms: C_12  and  C_13
REMARK                            x       y       z     vdW  Elec       q    Type
REMARK                         _______ _______ _______ _____ _____    ______ ____
ROOT
ATOM      1  O   UNL     1       1.155   4.134  17.377  0.00  0.00    +0.000 OA
ATOM      2  S   UNL     1       1.629   3.459  18.566  0.00  0.00    +0.000 S 
ATOM      3  O   UNL     1       1.050   2.215  19.018  0.00  0.00    +0.000 OA
ENDROOT
BRANCH   2   4
ATOM      4  N   UNL     1       1.576   4.530  19.867  0.00  0.00    +0.000 NA
ATOM      5  H   UNL     1       1.305   4.122  20.759  0.00  0.00    +0.000 HD
BRANCH   4   6
ATOM      6  C   UNL     1       2.640   5.540  19.975  0.00  0.00    +0.000 C 
BRANCH   6   7
ATOM      7  C   UNL     1       2.233   6.938  19.569  0.00  0.00    +0.000 A 
ATOM      8  C   UNL     1       1.621   7.815  20.482  0.00  0.00    +0.000 A 
ATOM      9  C   UNL     1       1.172   9.067  20.064  0.00  0.00    +0.000 A 
ATOM     10  C   UNL     1       1.366   9.459  18.746  0.00  0.00    +0.000 A 
ATOM     11  F   UNL     1       0.926  10.657  18.342  0.00  0.00    +0.000 F 
ATOM     12  C   UNL     1       2.005   8.623  17.837  0.00  0.00    +0.000 A 
ATOM     13  C   UNL     1       2.440   7.363  18.248  0.00  0.00    +0.000 A 
ENDBRANCH   6   7
ENDBRANCH   4   6
ENDBRANCH   2   4
BRANCH   2  14
ATOM     14  C   UNL     1       3.373   3.218  18.339  0.00  0.00    +0.000 C 
BRANCH  14  15
ATOM     15  C   UNL     1       3.846   3.751  16.994  0.00  0.00    +0.000 C 
BRANCH  15  16
ATOM     16  N   UNL     1       5.264   4.168  17.006  0.00  0.00    +0.000 NA
ATOM     17  C   UNL     1       5.433   5.629  17.128  0.00  0.00    +0.000 C 
ATOM     18  C   UNL     1       5.285   6.155  15.716  0.00  0.00    +0.000 C 
ATOM     19  C   UNL     1       6.031   5.115  14.908  0.00  0.00    +0.000 C 
ATOM     20  C   UNL     1       5.903   3.824  15.714  0.00  0.00    +0.000 C 
ENDBRANCH  15  16
ENDBRANCH  14  15
ENDBRANCH   2  14
TORSDOF 6
ENDMDL
MODEL 5
REMARK VINA RESULT:      -6.5      3.575      4.475
REMARK  Name = 
REMARK  6 active torsions:
REMARK  status: ('A' for Active; 'I' for Inactive)
REMARK    1  A    between atoms: S_2  and  C_4
REMARK    2  A    between atoms: S_2  and  N_11
REMARK    3  A    between atoms: C_4  and  C_5
REMARK    4  A    between atoms: C_5  and  N_6
REMARK    5  A    between atoms: N_11  and  C_12
REMARK    6  A    between atoms: C_12  and  C_13
REMARK                            x       y       z     vdW  Elec       q    Type
REMARK                         _______ _______ _______ _____ _____    ______ ____
ROOT
ATOM      1  O   UNL     1       6.520   4.314  18.539  0.00  0.00    +0.000 OA
ATOM      2  S   UNL     1       5.312   4.564  17.783  0.00  0.00    +0.000 S 
ATOM      3  O   UNL     1       5.335   4.761  16.351  0.00  0.00    +0.000 OA
ENDROOT
BRANCH   2   4
ATOM      4  N   UNL     1       4.508   5.888  18.449  0.00  0.00    +0.000 NA
ATOM      5  H   UNL     1       5.089   6.530  18.983  0.00  0.00    +0.000 HD
BRANCH   4   6
ATOM      6  C   UNL     1       3.482   6.557  17.632  0.00  0.00    +0.000 C 
BRANCH   6   7
ATOM      7  C   UNL     1       2.640   7.569  18.374  0.00  0.00    +0.000 A 
ATOM      8  C   UNL     1       2.282   7.375  19.720  0.00  0.00    +0.000 A 
ATOM      9  C   UNL     1       1.432   8.275  20.361  0.00  0.00    +0.000 A 
ATOM     10  C   UNL     1       0.967   9.386  19.671  0.00  0.00    +0.000 A 
ATOM     11  F   UNL     1       0.142  10.246  20.282  0.00  0.00    +0.000 F 
ATOM     12  C   UNL     1       1.340   9.618  18.351  0.00  0.00    +0.000 A 
ATOM     13  C   UNL     1       2.178   8.711  17.703  0.00  0.00    +0.000 A 
ENDBRANCH   6   7
ENDBRANCH   4   6
ENDBRANCH   2   4
BRANCH   2  14
ATOM     14  C   UNL     1       4.209   3.222  18.148  0.00  0.00    +0.000 C 
BRANCH  14  15
ATOM     15  C   UNL     1       3.883   3.147  19.633  0.00  0.00    +0.000 C 
BRANCH  15  16
ATOM     16  N   UNL     1       2.787   4.056  20.028  0.00  0.00    +0.000 NA
ATOM     17  C   UNL     1       2.362   3.870  21.429  0.00  0.00    +0.000 C 
ATOM     18  C   UNL     1       1.392   2.709  21.388  0.00  0.00    +0.000 C 
ATOM     19  C   UNL     1       0.609   2.992  20.124  0.00  0.00    +0.000 C 
ATOM     20  C   UNL     1       1.575   3.766  19.228  0.00  0.00    +0.000 C 
ENDBRANCH  15  16
ENDBRANCH  14  15
ENDBRANCH   2  14
TORSDOF 6
ENDMDL
MODEL 6
REMARK VINA RESULT:      -6.5      1.288      1.855
REMARK  Name = 
REMARK  6 active torsions:
REMARK  status: ('A' for Active; 'I' for Inactive)
REMARK    1  A    between atoms: S_2  and  C_4
REMARK    2  A    between atoms: S_2  and  N_11
REMARK    3  A    between atoms: C_4  and  C_5
REMARK    4  A    between atoms: C_5  and  N_6
REMARK    5  A    between atoms: N_11  and  C_12
REMARK    6  A    between atoms: C_12  and  C_13
REMARK                            x       y       z     vdW  Elec       q    Type
REMARK                         _______ _______ _______ _____ _____    ______ ____
ROOT
ATOM      1  O   UNL     1       4.546   3.299  19.277  0.00  0.00    +0.000 OA
ATOM      2  S   UNL     1       3.994   2.691  18.086  0.00  0.00    +0.000 S 
ATOM      3  O   UNL     1       3.632   1.292  18.041  0.00  0.00    +0.000 OA
ENDROOT
BRANCH   2   4
ATOM      4  N   UNL     1       5.034   2.972  16.789  0.00  0.00    +0.000 NA
ATOM      5  H   UNL     1       5.059   2.242  16.081  0.00  0.00    +0.000 HD
BRANCH   4   6
ATOM      6  C   UNL     1       5.097   4.336  16.237  0.00  0.00    +0.000 C 
BRANCH   6   7
ATOM      7  C   UNL     1       6.103   5.245  16.905  0.00  0.00    +0.000 A 
ATOM      8  C   UNL     1       7.104   4.732  17.749  0.00  0.00    +0.000 A 
ATOM      9  C   UNL     1       7.966   5.593  18.426  0.00  0.00    +0.000 A 
ATOM     10  C   UNL     1       7.854   6.963  18.233  0.00  0.00    +0.000 A 
ATOM     11  F   UNL     1       8.674   7.792  18.891  0.00  0.00    +0.000 F 
ATOM     12  C   UNL     1       6.897   7.490  17.372  0.00  0.00    +0.000 A 
ATOM     13  C   UNL     1       6.023   6.631  16.706  0.00  0.00    +0.000 A 
ENDBRANCH   6   7
ENDBRANCH   4   6
ENDBRANCH   2   4
BRANCH   2  14
ATOM     14  C   UNL     1       2.568   3.655  17.651  0.00  0.00    +0.000 C 
BRANCH  14  15
ATOM     15  C   UNL     1       2.358   4.817  18.611  0.00  0.00    +0.000 C 
BRANCH  15  16
ATOM     16  N   UNL     1       1.204   4.619  19.512  0.00  0.00    +0.000 NA
ATOM     17  C   UNL     1       1.487   5.016  20.905  0.00  0.00    +0.000 C 
ATOM     18  C   UNL     1       2.178   3.817  21.517  0.00  0.00    +0.000 C 
ATOM     19  C   UNL     1       1.390   2.662  20.936  0.00  0.00    +0.000 C 
ATOM     20  C   UNL     1       0.869   3.178  19.595  0.00  0.00    +0.000 C 
ENDBRANCH  15  16
ENDBRANCH  14  15
ENDBRANCH   2  14
TORSDOF 6
ENDMDL
MODEL 7
REMARK VINA RESULT:      -6.4      4.117      7.209
REMARK  Name = 
REMARK  6 active torsions:
REMARK  status: ('A' for Active; 'I' for Inactive)
REMARK    1  A    between atoms: S_2  and  C_4
REMARK    2  A    between atoms: S_2  and  N_11
REMARK    3  A    between atoms: C_4  and  C_5
REMARK    4  A    between atoms: C_5  and  N_6
REMARK    5  A    between atoms: N_11  and  C_12
REMARK    6  A    between atoms: C_12  and  C_13
REMARK                            x       y       z     vdW  Elec       q    Type
REMARK                         _______ _______ _______ _____ _____    ______ ____
ROOT
ATOM      1  O   UNL     1       7.739   5.173  15.199  0.00  0.00    +0.000 OA
ATOM      2  S   UNL     1       6.410   5.291  15.760  0.00  0.00    +0.000 S 
ATOM      3  O   UNL     1       5.882   6.559  16.208  0.00  0.00    +0.000 OA
ENDROOT
BRANCH   2   4
ATOM      4  N   UNL     1       6.255   4.211  17.045  0.00  0.00    +0.000 NA
ATOM      5  H   UNL     1       7.094   3.685  17.278  0.00  0.00    +0.000 HD
BRANCH   4   6
ATOM      6  C   UNL     1       5.477   4.639  18.219  0.00  0.00    +0.000 C 
BRANCH   6   7
ATOM      7  C   UNL     1       4.115   3.995  18.347  0.00  0.00    +0.000 A 
ATOM      8  C   UNL     1       3.959   2.730  18.942  0.00  0.00    +0.000 A 
ATOM      9  C   UNL     1       2.709   2.115  18.971  0.00  0.00    +0.000 A 
ATOM     10  C   UNL     1       1.608   2.776  18.441  0.00  0.00    +0.000 A 
ATOM     11  F   UNL     1       0.409   2.181  18.459  0.00  0.00    +0.000 F 
ATOM     12  C   UNL     1       1.733   4.044  17.885  0.00  0.00    +0.000 A 
ATOM     13  C   UNL     1       2.987   4.655  17.840  0.00  0.00    +0.000 A 
ENDBRANCH   6   7
ENDBRANCH   4   6
ENDBRANCH   2   4
BRANCH   2  14
ATOM     14  C   UNL     1       5.299   4.614  14.552  0.00  0.00    +0.000 C 
BRANCH  14  15
ATOM     15  C   UNL     1       5.937   3.471  13.776  0.00  0.00    +0.000 C 
BRANCH  15  16
ATOM     16  N   UNL     1       5.916   3.685  12.314  0.00  0.00    +0.000 NA
ATOM     17  C   UNL     1       5.041   2.731  11.605  0.00  0.00    +0.000 C 
ATOM     18  C   UNL     1       5.890   1.493  11.417  0.00  0.00    +0.000 C 
ATOM     19  C   UNL     1       7.239   2.081  11.063  0.00  0.00    +0.000 C 
ATOM     20  C   UNL     1       7.265   3.446  11.749  0.00  0.00    +0.000 C 
ENDBRANCH  15  16
ENDBRANCH  14  15
ENDBRANCH   2  14
TORSDOF 6
ENDMDL
MODEL 8
REMARK VINA RESULT:      -6.4      3.416      6.752
REMARK  Name = 
REMARK  6 active torsions:
REMARK  status: ('A' for Active; 'I' for Inactive)
REMARK    1  A    between atoms: S_2  and  C_4
REMARK    2  A    between atoms: S_2  and  N_11
REMARK    3  A    between atoms: C_4  and  C_5
REMARK    4  A    between atoms: C_5  and  N_6
REMARK    5  A    between atoms: N_11  and  C_12
REMARK    6  A    between atoms: C_12  and  C_13
REMARK                            x       y       z     vdW  Elec       q    Type
REMARK                         _______ _______ _______ _____ _____    ______ ____
ROOT
ATOM      1  O   UNL     1       6.219   5.616  18.870  0.00  0.00    +0.000 OA
ATOM      2  S   UNL     1       6.022   5.710  17.440  0.00  0.00    +0.000 S 
ATOM      3  O   UNL     1       6.134   6.967  16.736  0.00  0.00    +0.000 OA
ENDROOT
BRANCH   2   4
ATOM      4  N   UNL     1       4.519   5.056  17.046  0.00  0.00    +0.000 NA
ATOM      5  H   UNL     1       4.487   4.042  16.976  0.00  0.00    +0.000 HD
BRANCH   4   6
ATOM      6  C   UNL     1       3.323   5.646  17.669  0.00  0.00    +0.000 C 
BRANCH   6   7
ATOM      7  C   UNL     1       2.671   4.788  18.729  0.00  0.00    +0.000 A 
ATOM      8  C   UNL     1       1.724   3.804  18.392  0.00  0.00    +0.000 A 
ATOM      9  C   UNL     1       1.069   3.085  19.389  0.00  0.00    +0.000 A 
ATOM     10  C   UNL     1       1.383   3.320  20.722  0.00  0.00    +0.000 A 
ATOM     11  F   UNL     1       0.746   2.637  21.681  0.00  0.00    +0.000 F 
ATOM     12  C   UNL     1       2.345   4.260  21.076  0.00  0.00    +0.000 A 
ATOM     13  C   UNL     1       2.990   4.993  20.080  0.00  0.00    +0.000 A 
ENDBRANCH   6   7
ENDBRANCH   4   6
ENDBRANCH   2   4
BRANCH   2  14
ATOM     14  C   UNL     1       7.149   4.551  16.705  0.00  0.00    +0.000 C 
BRANCH  14  15
ATOM     15  C   UNL     1       6.516   3.814  15.534  0.00  0.00    +0.000 C 
BRANCH  15  16
ATOM     16  N   UNL     1       6.120   4.716  14.432  0.00  0.00    +0.000 NA
ATOM     17  C   UNL     1       5.169   4.092  13.492  0.00  0.00    +0.000 C 
ATOM     18  C   UNL     1       6.034   3.297  12.537  0.00  0.00    +0.000 C 
ATOM     19  C   UNL     1       7.208   4.227  12.318  0.00  0.00    +0.000 C 
ATOM     20  C   UNL     1       7.302   5.050  13.603  0.00  0.00    +0.000 C 
ENDBRANCH  15  16
ENDBRANCH  14  15
ENDBRANCH   2  14
TORSDOF 6
ENDMDL
MODEL 9
REMARK VINA RESULT:      -6.4      3.838      4.950
REMARK  Name = 
REMARK  6 active torsions:
REMARK  status: ('A' for Active; 'I' for Inactive)
REMARK    1  A    between atoms: S_2  and  C_4
REMARK    2  A    between atoms: S_2  and  N_11
REMARK    3  A    between atoms: C_4  and  C_5
REMARK    4  A    between atoms: C_5  and  N_6
REMARK    5  A    between atoms: N_11  and  C_12
REMARK    6  A    between atoms: C_12  and  C_13
REMARK                            x       y       z     vdW  Elec       q    Type
REMARK                         _______ _______ _______ _____ _____    ______ ____
ROOT
ATOM      1  O   UNL     1       5.665   3.876  19.160  0.00  0.00    +0.000 OA
ATOM      2  S   UNL     1       5.307   4.791  18.097  0.00  0.00    +0.000 S 
ATOM      3  O   UNL     1       6.306   5.416  17.261  0.00  0.00    +0.000 OA
ENDROOT
BRANCH   2   4
ATOM      4  N   UNL     1       4.351   6.027  18.731  0.00  0.00    +0.000 NA
ATOM      5  H   UNL     1       4.751   6.528  19.521  0.00  0.00    +0.000 HD
BRANCH   4   6
ATOM      6  C   UNL     1       3.622   6.890  17.788  0.00  0.00    +0.000 C 
BRANCH   6   7
ATOM      7  C   UNL     1       2.588   7.793  18.422  0.00  0.00    +0.000 A 
ATOM      8  C   UNL     1       2.023   8.867  17.713  0.00  0.00    +0.000 A 
ATOM      9  C   UNL     1       1.138   9.740  18.343  0.00  0.00    +0.000 A 
ATOM     10  C   UNL     1       0.789   9.521  19.669  0.00  0.00    +0.000 A 
ATOM     11  F   UNL     1      -0.053  10.366  20.278  0.00  0.00    +0.000 F 
ATOM     12  C   UNL     1       1.305   8.442  20.377  0.00  0.00    +0.000 A 
ATOM     13  C   UNL     1       2.203   7.576  19.753  0.00  0.00    +0.000 A 
ENDBRANCH   6   7
ENDBRANCH   4   6
ENDBRANCH   2   4
BRANCH   2  14
ATOM     14  C   UNL     1       4.165   3.919  17.054  0.00  0.00    +0.000 C 
BRANCH  14  15
ATOM     15  C   UNL     1       3.526   2.742  17.777  0.00  0.00    +0.000 C 
BRANCH  15  16
ATOM     16  N   UNL     1       2.050   2.745  17.690  0.00  0.00    +0.000 NA
ATOM     17  C   UNL     1       1.462   4.076  17.936  0.00  0.00    +0.000 C 
ATOM     18  C   UNL     1       1.379   4.190  19.443  0.00  0.00    +0.000 C 
ATOM     19  C   UNL     1       0.935   2.799  19.844  0.00  0.00    +0.000 C 
ATOM     20  C   UNL     1       1.479   1.882  18.750  0.00  0.00    +0.000 C 
ENDBRANCH  15  16
ENDBRANCH  14  15
ENDBRANCH   2  14
TORSDOF 6
ENDMDL
