MODEL 1
REMARK VINA RESULT:      -7.9      0.000      0.000
REMARK  Name = 
REMARK  7 active torsions:
REMARK  status: ('A' for Active; 'I' for Inactive)
REMARK    1  A    between atoms: C_1  and  C_2
REMARK    2  A    between atoms: C_5  and  N_6
REMARK    3  A    between atoms: C_7  and  C_9
REMARK    4  A    between atoms: C_11  and  C_12
REMARK    5  A    between atoms: N_14  and  C_15
REMARK    6  A    between atoms: C_18  and  C_19
REMARK    7  A    between atoms: N_22  and  C_23
REMARK                            x       y       z     vdW  Elec       q    Type
REMARK                         _______ _______ _______ _____ _____    ______ ____
ROOT
ATOM      1  C   UNL     1       8.501   8.867  18.489  0.00  0.00    +0.000 A 
ATOM      2  C   UNL     1       7.699   8.577  17.360  0.00  0.00    +0.000 A 
ATOM      3  C   UNL     1       7.397   7.227  17.417  0.00  0.00    +0.000 A 
ATOM      4  N   UNL     1       7.971   6.806  18.599  0.00  0.00    +0.000 N 
ATOM      5  C   UNL     1       7.963   5.498  19.218  0.00  0.00    +0.000 C 
ATOM      6  N   UNL     1       8.667   7.773  19.249  0.00  0.00    +0.000 NA
ENDROOT
BRANCH   1   8
ATOM      7  N   UNL     1       8.870  11.134  17.822  0.00  0.00    +0.000 N 
ATOM      8  C   UNL     1       9.099  10.174  18.796  0.00  0.00    +0.000 C 
ATOM      9  O   UNL     1       9.691  10.340  19.857  0.00  0.00    +0.000 OA
ATOM     10  H   UNL     1       8.280  10.822  17.056  0.00  0.00    +0.000 HD
BRANCH   7  15
ATOM     11  C   UNL     1      10.520  16.617  18.113  0.00  0.00    +0.000 C 
ATOM     12  C   UNL     1      10.087  15.186  18.012  0.00  0.00    +0.000 A 
ATOM     13  C   UNL     1      10.982  14.208  17.582  0.00  0.00    +0.000 A 
ATOM     14  C   UNL     1      10.591  12.869  17.503  0.00  0.00    +0.000 A 
ATOM     15  C   UNL     1       9.298  12.477  17.855  0.00  0.00    +0.000 A 
ATOM     16  C   UNL     1       8.389  13.458  18.262  0.00  0.00    +0.000 A 
ATOM     17  C   UNL     1       8.785  14.801  18.350  0.00  0.00    +0.000 A 
ENDBRANCH   7  15
ENDBRANCH   1   8
BRANCH   3  18
ATOM     18  C   UNL     1       6.643   6.401  16.479  0.00  0.00    +0.000 C 
ATOM     19  O   UNL     1       5.453   6.162  16.645  0.00  0.00    +0.000 OA
ATOM     20  N   UNL     1       7.400   5.884  15.435  0.00  0.00    +0.000 N 
ATOM     21  H   UNL     1       8.396   6.048  15.465  0.00  0.00    +0.000 HD
BRANCH  20  22
ATOM     22  C   UNL     1       6.967   5.003  14.417  0.00  0.00    +0.000 A 
ATOM     23  C   UNL     1       7.527   4.957  13.139  0.00  0.00    +0.000 A 
ATOM     24  C   UNL     1       6.990   4.121  12.154  0.00  0.00    +0.000 A 
ATOM     25  C   UNL     1       5.885   3.310  12.428  0.00  0.00    +0.000 A 
ATOM     26  C   UNL     1       5.254   2.482  11.350  0.00  0.00    +0.000 C 
ATOM     27  C   UNL     1       5.355   3.315  13.722  0.00  0.00    +0.000 A 
ATOM     28  C   UNL     1       5.900   4.144  14.710  0.00  0.00    +0.000 A 
ENDBRANCH  20  22
ENDBRANCH   3  18
TORSDOF 4
ENDMDL
MODEL 2
REMARK VINA RESULT:      -7.5      8.387     12.103
REMARK  Name = 
REMARK  7 active torsions:
REMARK  status: ('A' for Active; 'I' for Inactive)
REMARK    1  A    between atoms: C_1  and  C_2
REMARK    2  A    between atoms: C_5  and  N_6
REMARK    3  A    between atoms: C_7  and  C_9
REMARK    4  A    between atoms: C_11  and  C_12
REMARK    5  A    between atoms: N_14  and  C_15
REMARK    6  A    between atoms: C_18  and  C_19
REMARK    7  A    between atoms: N_22  and  C_23
REMARK                            x       y       z     vdW  Elec       q    Type
REMARK                         _______ _______ _______ _____ _____    ______ ____
ROOT
ATOM      1  C   UNL     1       1.543   8.287  19.944  0.00  0.00    +0.000 A 
ATOM      2  C   UNL     1       1.142   8.534  21.278  0.00  0.00    +0.000 A 
ATOM      3  C   UNL     1       0.458   9.738  21.276  0.00  0.00    +0.000 A 
ATOM      4  N   UNL     1       0.430  10.103  19.945  0.00  0.00    +0.000 N 
ATOM      5  C   UNL     1      -0.177  11.255  19.314  0.00  0.00    +0.000 C 
ATOM      6  N   UNL     1       1.104   9.256  19.126  0.00  0.00    +0.000 NA
ENDROOT
BRANCH   1   8
ATOM      7  N   UNL     1       2.820   7.269  18.197  0.00  0.00    +0.000 N 
ATOM      8  C   UNL     1       2.350   7.143  19.495  0.00  0.00    +0.000 C 
ATOM      9  O   UNL     1       2.584   6.219  20.268  0.00  0.00    +0.000 OA
ATOM     10  H   UNL     1       2.590   8.151  17.751  0.00  0.00    +0.000 HD
BRANCH   7  15
ATOM     11  C   UNL     1       6.282   3.613  15.455  0.00  0.00    +0.000 C 
ATOM     12  C   UNL     1       5.360   4.565  16.154  0.00  0.00    +0.000 A 
ATOM     13  C   UNL     1       4.265   4.087  16.870  0.00  0.00    +0.000 A 
ATOM     14  C   UNL     1       3.412   4.968  17.539  0.00  0.00    +0.000 A 
ATOM     15  C   UNL     1       3.636   6.346  17.510  0.00  0.00    +0.000 A 
ATOM     16  C   UNL     1       4.718   6.831  16.771  0.00  0.00    +0.000 A 
ATOM     17  C   UNL     1       5.580   5.946  16.106  0.00  0.00    +0.000 A 
ENDBRANCH   7  15
ENDBRANCH   1   8
BRANCH   3  18
ATOM     18  C   UNL     1      -0.125  10.479  22.389  0.00  0.00    +0.000 C 
ATOM     19  O   UNL     1      -0.049  10.074  23.543  0.00  0.00    +0.000 OA
ATOM     20  N   UNL     1      -0.804  11.633  22.016  0.00  0.00    +0.000 N 
ATOM     21  H   UNL     1      -0.907  11.806  21.027  0.00  0.00    +0.000 HD
BRANCH  20  22
ATOM     22  C   UNL     1      -1.523  12.514  22.856  0.00  0.00    +0.000 A 
ATOM     23  C   UNL     1      -2.820  12.269  23.312  0.00  0.00    +0.000 A 
ATOM     24  C   UNL     1      -3.504  13.226  24.068  0.00  0.00    +0.000 A 
ATOM     25  C   UNL     1      -2.903  14.446  24.391  0.00  0.00    +0.000 A 
ATOM     26  C   UNL     1      -3.665  15.508  25.126  0.00  0.00    +0.000 C 
ATOM     27  C   UNL     1      -1.585  14.673  23.982  0.00  0.00    +0.000 A 
ATOM     28  C   UNL     1      -0.898  13.710  23.232  0.00  0.00    +0.000 A 
ENDBRANCH  20  22
ENDBRANCH   3  18
TORSDOF 4
ENDMDL
MODEL 3
REMARK VINA RESULT:      -7.5      8.737     12.234
REMARK  Name = 
REMARK  7 active torsions:
REMARK  status: ('A' for Active; 'I' for Inactive)
REMARK    1  A    between atoms: C_1  and  C_2
REMARK    2  A    between atoms: C_5  and  N_6
REMARK    3  A    between atoms: C_7  and  C_9
REMARK    4  A    between atoms: C_11  and  C_12
REMARK    5  A    between atoms: N_14  and  C_15
REMARK    6  A    between atoms: C_18  and  C_19
REMARK    7  A    between atoms: N_22  and  C_23
REMARK                            x       y       z     vdW  Elec       q    Type
REMARK                         _______ _______ _______ _____ _____    ______ ____
ROOT
ATOM      1  C   UNL     1       1.854   9.541  18.615  0.00  0.00    +0.000 A 
ATOM      2  C   UNL     1       0.961   9.737  19.694  0.00  0.00    +0.000 A 
ATOM      3  C   UNL     1       0.797  11.105  19.838  0.00  0.00    +0.000 A 
ATOM      4  N   UNL     1       1.540  11.640  18.805  0.00  0.00    +0.000 N 
ATOM      5  C   UNL     1       1.727  13.022  18.419  0.00  0.00    +0.000 C 
ATOM      6  N   UNL     1       2.209  10.716  18.070  0.00  0.00    +0.000 NA
ENDROOT
BRANCH   1   8
ATOM      7  N   UNL     1       2.218   7.224  19.082  0.00  0.00    +0.000 N 
ATOM      8  C   UNL     1       2.356   8.241  18.149  0.00  0.00    +0.000 C 
ATOM      9  O   UNL     1       2.799   8.129  17.011  0.00  0.00    +0.000 OA
ATOM     10  H   UNL     1       1.746   7.501  19.937  0.00  0.00    +0.000 HD
BRANCH   7  15
ATOM     11  C   UNL     1       3.676   1.750  18.197  0.00  0.00    +0.000 C 
ATOM     12  C   UNL     1       3.286   3.175  18.451  0.00  0.00    +0.000 A 
ATOM     13  C   UNL     1       4.032   3.965  19.323  0.00  0.00    +0.000 A 
ATOM     14  C   UNL     1       3.684   5.299  19.549  0.00  0.00    +0.000 A 
ATOM     15  C   UNL     1       2.585   5.874  18.908  0.00  0.00    +0.000 A 
ATOM     16  C   UNL     1       1.819   5.077  18.053  0.00  0.00    +0.000 A 
ATOM     17  C   UNL     1       2.173   3.740  17.818  0.00  0.00    +0.000 A 
ENDBRANCH   7  15
ENDBRANCH   1   8
BRANCH   3  18
ATOM     18  C   UNL     1       0.024  11.850  20.825  0.00  0.00    +0.000 C 
ATOM     19  O   UNL     1       0.562  12.597  21.634  0.00  0.00    +0.000 OA
ATOM     20  N   UNL     1      -1.342  11.596  20.793  0.00  0.00    +0.000 N 
ATOM     21  H   UNL     1      -1.660  10.873  20.165  0.00  0.00    +0.000 HD
BRANCH  20  22
ATOM     22  C   UNL     1      -2.331  12.113  21.662  0.00  0.00    +0.000 A 
ATOM     23  C   UNL     1      -2.354  11.880  23.038  0.00  0.00    +0.000 A 
ATOM     24  C   UNL     1      -3.412  12.350  23.825  0.00  0.00    +0.000 A 
ATOM     25  C   UNL     1      -4.465  13.067  23.251  0.00  0.00    +0.000 A 
ATOM     26  C   UNL     1      -5.643  13.494  24.075  0.00  0.00    +0.000 C 
ATOM     27  C   UNL     1      -4.418  13.348  21.882  0.00  0.00    +0.000 A 
ATOM     28  C   UNL     1      -3.354  12.885  21.098  0.00  0.00    +0.000 A 
ENDBRANCH  20  22
ENDBRANCH   3  18
TORSDOF 4
ENDMDL
MODEL 4
REMARK VINA RESULT:      -7.5      8.895     12.247
REMARK  Name = 
REMARK  7 active torsions:
REMARK  status: ('A' for Active; 'I' for Inactive)
REMARK    1  A    between atoms: C_1  and  C_2
REMARK    2  A    between atoms: C_5  and  N_6
REMARK    3  A    between atoms: C_7  and  C_9
REMARK    4  A    between atoms: C_11  and  C_12
REMARK    5  A    between atoms: N_14  and  C_15
REMARK    6  A    between atoms: C_18  and  C_19
REMARK    7  A    between atoms: N_22  and  C_23
REMARK                            x       y       z     vdW  Elec       q    Type
REMARK                         _______ _______ _______ _____ _____    ______ ____
ROOT
ATOM      1  C   UNL     1       1.293   9.230  19.729  0.00  0.00    +0.000 A 
ATOM      2  C   UNL     1       0.839  10.570  19.738  0.00  0.00    +0.000 A 
ATOM      3  C   UNL     1       0.261  10.791  20.977  0.00  0.00    +0.000 A 
ATOM      4  N   UNL     1       0.461   9.605  21.655  0.00  0.00    +0.000 N 
ATOM      5  C   UNL     1       0.105   9.242  23.009  0.00  0.00    +0.000 C 
ATOM      6  N   UNL     1       1.057   8.638  20.911  0.00  0.00    +0.000 NA
ENDROOT
BRANCH   1   8
ATOM      7  N   UNL     1       2.661   7.434  18.942  0.00  0.00    +0.000 N 
ATOM      8  C   UNL     1       1.919   8.550  18.587  0.00  0.00    +0.000 C 
ATOM      9  O   UNL     1       1.722   8.960  17.448  0.00  0.00    +0.000 OA
ATOM     10  H   UNL     1       2.631   7.207  19.931  0.00  0.00    +0.000 HD
BRANCH   7  15
ATOM     11  C   UNL     1       5.623   4.016  15.417  0.00  0.00    +0.000 C 
ATOM     12  C   UNL     1       4.829   4.909  16.322  0.00  0.00    +0.000 A 
ATOM     13  C   UNL     1       3.786   4.390  17.086  0.00  0.00    +0.000 A 
ATOM     14  C   UNL     1       3.054   5.214  17.945  0.00  0.00    +0.000 A 
ATOM     15  C   UNL     1       3.351   6.573  18.063  0.00  0.00    +0.000 A 
ATOM     16  C   UNL     1       4.381   7.103  17.280  0.00  0.00    +0.000 A 
ATOM     17  C   UNL     1       5.121   6.274  16.423  0.00  0.00    +0.000 A 
ENDBRANCH   7  15
ENDBRANCH   1   8
BRANCH   3  18
ATOM     18  C   UNL     1      -0.403  11.983  21.494  0.00  0.00    +0.000 C 
ATOM     19  O   UNL     1       0.231  12.957  21.880  0.00  0.00    +0.000 OA
ATOM     20  N   UNL     1      -1.789  11.885  21.553  0.00  0.00    +0.000 N 
ATOM     21  H   UNL     1      -2.196  10.991  21.322  0.00  0.00    +0.000 HD
BRANCH  20  22
ATOM     22  C   UNL     1      -2.694  12.843  22.067  0.00  0.00    +0.000 A 
ATOM     23  C   UNL     1      -3.077  13.996  21.381  0.00  0.00    +0.000 A 
ATOM     24  C   UNL     1      -3.908  14.945  21.986  0.00  0.00    +0.000 A 
ATOM     25  C   UNL     1      -4.379  14.756  23.289  0.00  0.00    +0.000 A 
ATOM     26  C   UNL     1      -5.196  15.811  23.971  0.00  0.00    +0.000 C 
ATOM     27  C   UNL     1      -4.040  13.576  23.959  0.00  0.00    +0.000 A 
ATOM     28  C   UNL     1      -3.215  12.623  23.349  0.00  0.00    +0.000 A 
ENDBRANCH  20  22
ENDBRANCH   3  18
TORSDOF 4
ENDMDL
MODEL 5
REMARK VINA RESULT:      -7.5      8.217     12.262
REMARK  Name = 
REMARK  7 active torsions:
REMARK  status: ('A' for Active; 'I' for Inactive)
REMARK    1  A    between atoms: C_1  and  C_2
REMARK    2  A    between atoms: C_5  and  N_6
REMARK    3  A    between atoms: C_7  and  C_9
REMARK    4  A    between atoms: C_11  and  C_12
REMARK    5  A    between atoms: N_14  and  C_15
REMARK    6  A    between atoms: C_18  and  C_19
REMARK    7  A    between atoms: N_22  and  C_23
REMARK                            x       y       z     vdW  Elec       q    Type
REMARK                         _______ _______ _______ _____ _____    ______ ____
ROOT
ATOM      1  C   UNL     1       1.860   9.464  18.348  0.00  0.00    +0.000 A 
ATOM      2  C   UNL     1       0.670   9.650  19.091  0.00  0.00    +0.000 A 
ATOM      3  C   UNL     1       0.514  11.014  19.266  0.00  0.00    +0.000 A 
ATOM      4  N   UNL     1       1.570  11.563  18.567  0.00  0.00    +0.000 N 
ATOM      5  C   UNL     1       1.918  12.952  18.356  0.00  0.00    +0.000 C 
ATOM      6  N   UNL     1       2.412  10.645  18.028  0.00  0.00    +0.000 NA
ENDROOT
BRANCH   1   8
ATOM      7  N   UNL     1       2.114   7.142  18.859  0.00  0.00    +0.000 N 
ATOM      8  C   UNL     1       2.443   8.165  17.983  0.00  0.00    +0.000 C 
ATOM      9  O   UNL     1       3.109   8.061  16.959  0.00  0.00    +0.000 OA
ATOM     10  H   UNL     1       1.477   7.413  19.602  0.00  0.00    +0.000 HD
BRANCH   7  15
ATOM     11  C   UNL     1       3.673   1.658  18.245  0.00  0.00    +0.000 C 
ATOM     12  C   UNL     1       3.256   3.086  18.428  0.00  0.00    +0.000 A 
ATOM     13  C   UNL     1       3.980   3.929  19.269  0.00  0.00    +0.000 A 
ATOM     14  C   UNL     1       3.608   5.266  19.429  0.00  0.00    +0.000 A 
ATOM     15  C   UNL     1       2.506   5.791  18.752  0.00  0.00    +0.000 A 
ATOM     16  C   UNL     1       1.761   4.942  17.928  0.00  0.00    +0.000 A 
ATOM     17  C   UNL     1       2.140   3.602  17.760  0.00  0.00    +0.000 A 
ENDBRANCH   7  15
ENDBRANCH   1   8
BRANCH   3  18
ATOM     18  C   UNL     1      -0.514  11.747  19.998  0.00  0.00    +0.000 C 
ATOM     19  O   UNL     1      -1.475  12.249  19.428  0.00  0.00    +0.000 OA
ATOM     20  N   UNL     1      -0.274  11.861  21.362  0.00  0.00    +0.000 N 
ATOM     21  H   UNL     1       0.609  11.512  21.704  0.00  0.00    +0.000 HD
BRANCH  20  22
ATOM     22  C   UNL     1      -1.049  12.564  22.313  0.00  0.00    +0.000 A 
ATOM     23  C   UNL     1      -2.244  12.084  22.850  0.00  0.00    +0.000 A 
ATOM     24  C   UNL     1      -3.005  12.873  23.720  0.00  0.00    +0.000 A 
ATOM     25  C   UNL     1      -2.582  14.157  24.075  0.00  0.00    +0.000 A 
ATOM     26  C   UNL     1      -3.438  15.038  24.935  0.00  0.00    +0.000 C 
ATOM     27  C   UNL     1      -1.359  14.621  23.580  0.00  0.00    +0.000 A 
ATOM     28  C   UNL     1      -0.595  13.826  22.717  0.00  0.00    +0.000 A 
ENDBRANCH  20  22
ENDBRANCH   3  18
TORSDOF 4
ENDMDL
MODEL 6
REMARK VINA RESULT:      -7.4      8.645     12.287
REMARK  Name = 
REMARK  7 active torsions:
REMARK  status: ('A' for Active; 'I' for Inactive)
REMARK    1  A    between atoms: C_1  and  C_2
REMARK    2  A    between atoms: C_5  and  N_6
REMARK    3  A    between atoms: C_7  and  C_9
REMARK    4  A    between atoms: C_11  and  C_12
REMARK    5  A    between atoms: N_14  and  C_15
REMARK    6  A    between atoms: C_18  and  C_19
REMARK    7  A    between atoms: N_22  and  C_23
REMARK                            x       y       z     vdW  Elec       q    Type
REMARK                         _______ _______ _______ _____ _____    ______ ____
ROOT
ATOM      1  C   UNL     1       1.213   9.100  19.537  0.00  0.00    +0.000 A 
ATOM      2  C   UNL     1       0.505  10.322  19.460  0.00  0.00    +0.000 A 
ATOM      3  C   UNL     1      -0.181  10.466  20.654  0.00  0.00    +0.000 A 
ATOM      4  N   UNL     1       0.206   9.368  21.395  0.00  0.00    +0.000 N 
ATOM      5  C   UNL     1      -0.154   8.989  22.744  0.00  0.00    +0.000 C 
ATOM      6  N   UNL     1       1.026   8.515  20.730  0.00  0.00    +0.000 NA
ENDROOT
BRANCH   1   8
ATOM      7  N   UNL     1       2.624   7.314  18.803  0.00  0.00    +0.000 N 
ATOM      8  C   UNL     1       2.031   8.520  18.462  0.00  0.00    +0.000 C 
ATOM      9  O   UNL     1       2.100   9.083  17.375  0.00  0.00    +0.000 OA
ATOM     10  H   UNL     1       2.374   6.969  19.725  0.00  0.00    +0.000 HD
BRANCH   7  15
ATOM     11  C   UNL     1       5.788   3.983  15.374  0.00  0.00    +0.000 C 
ATOM     12  C   UNL     1       4.981   4.855  16.286  0.00  0.00    +0.000 A 
ATOM     13  C   UNL     1       5.229   6.224  16.354  0.00  0.00    +0.000 A 
ATOM     14  C   UNL     1       4.467   7.045  17.189  0.00  0.00    +0.000 A 
ATOM     15  C   UNL     1       3.439   6.517  17.972  0.00  0.00    +0.000 A 
ATOM     16  C   UNL     1       3.204   5.140  17.926  0.00  0.00    +0.000 A 
ATOM     17  C   UNL     1       3.963   4.317  17.082  0.00  0.00    +0.000 A 
ENDBRANCH   7  15
ENDBRANCH   1   8
BRANCH   3  18
ATOM     18  C   UNL     1      -1.099  11.518  21.079  0.00  0.00    +0.000 C 
ATOM     19  O   UNL     1      -1.828  12.096  20.283  0.00  0.00    +0.000 OA
ATOM     20  N   UNL     1      -1.027  11.827  22.432  0.00  0.00    +0.000 N 
ATOM     21  H   UNL     1      -0.305  11.371  22.970  0.00  0.00    +0.000 HD
BRANCH  20  22
ATOM     22  C   UNL     1      -1.738  12.839  23.118  0.00  0.00    +0.000 A 
ATOM     23  C   UNL     1      -3.049  12.695  23.574  0.00  0.00    +0.000 A 
ATOM     24  C   UNL     1      -3.722  13.769  24.167  0.00  0.00    +0.000 A 
ATOM     25  C   UNL     1      -3.093  15.008  24.323  0.00  0.00    +0.000 A 
ATOM     26  C   UNL     1      -3.839  16.184  24.877  0.00  0.00    +0.000 C 
ATOM     27  C   UNL     1      -1.762  15.140  23.916  0.00  0.00    +0.000 A 
ATOM     28  C   UNL     1      -1.087  14.061  23.331  0.00  0.00    +0.000 A 
ENDBRANCH  20  22
ENDBRANCH   3  18
TORSDOF 4
ENDMDL
MODEL 7
REMARK VINA RESULT:      -7.4      7.760      8.584
REMARK  Name = 
REMARK  7 active torsions:
REMARK  status: ('A' for Active; 'I' for Inactive)
REMARK    1  A    between atoms: C_1  and  C_2
REMARK    2  A    between atoms: C_5  and  N_6
REMARK    3  A    between atoms: C_7  and  C_9
REMARK    4  A    between atoms: C_11  and  C_12
REMARK    5  A    between atoms: N_14  and  C_15
REMARK    6  A    between atoms: C_18  and  C_19
REMARK    7  A    between atoms: N_22  and  C_23
REMARK                            x       y       z     vdW  Elec       q    Type
REMARK                         _______ _______ _______ _____ _____    ______ ____
ROOT
ATOM      1  C   UNL     1       0.858   8.900  21.434  0.00  0.00    +0.000 A 
ATOM      2  C   UNL     1       1.407   9.162  20.157  0.00  0.00    +0.000 A 
ATOM      3  C   UNL     1       1.863   7.953  19.660  0.00  0.00    +0.000 A 
ATOM      4  N   UNL     1       1.503   7.037  20.627  0.00  0.00    +0.000 N 
ATOM      5  C   UNL     1       1.682   5.602  20.656  0.00  0.00    +0.000 C 
ATOM      6  N   UNL     1       0.919   7.591  21.721  0.00  0.00    +0.000 NA
ENDROOT
BRANCH   1   8
ATOM      7  N   UNL     1      -0.359  10.942  21.703  0.00  0.00    +0.000 N 
ATOM      8  C   UNL     1       0.308   9.912  22.348  0.00  0.00    +0.000 C 
ATOM      9  O   UNL     1       0.427   9.768  23.561  0.00  0.00    +0.000 OA
ATOM     10  H   UNL     1      -0.423  10.834  20.696  0.00  0.00    +0.000 HD
BRANCH   7  15
ATOM     11  C   UNL     1      -3.040  15.270  24.340  0.00  0.00    +0.000 C 
ATOM     12  C   UNL     1      -2.346  14.148  23.629  0.00  0.00    +0.000 A 
ATOM     13  C   UNL     1      -1.115  14.360  23.012  0.00  0.00    +0.000 A 
ATOM     14  C   UNL     1      -0.453  13.315  22.363  0.00  0.00    +0.000 A 
ATOM     15  C   UNL     1      -1.007  12.033  22.318  0.00  0.00    +0.000 A 
ATOM     16  C   UNL     1      -2.253  11.823  22.914  0.00  0.00    +0.000 A 
ATOM     17  C   UNL     1      -2.913  12.870  23.573  0.00  0.00    +0.000 A 
ENDBRANCH   7  15
ENDBRANCH   1   8
BRANCH   3  18
ATOM     18  C   UNL     1       2.557   7.663  18.409  0.00  0.00    +0.000 C 
ATOM     19  O   UNL     1       2.353   8.317  17.394  0.00  0.00    +0.000 OA
ATOM     20  N   UNL     1       3.408   6.566  18.467  0.00  0.00    +0.000 N 
ATOM     21  H   UNL     1       3.406   6.028  19.322  0.00  0.00    +0.000 HD
BRANCH  20  22
ATOM     22  C   UNL     1       4.158   6.006  17.407  0.00  0.00    +0.000 A 
ATOM     23  C   UNL     1       4.856   6.762  16.465  0.00  0.00    +0.000 A 
ATOM     24  C   UNL     1       5.504   6.143  15.390  0.00  0.00    +0.000 A 
ATOM     25  C   UNL     1       5.472   4.753  15.240  0.00  0.00    +0.000 A 
ATOM     26  C   UNL     1       6.090   4.095  14.043  0.00  0.00    +0.000 C 
ATOM     27  C   UNL     1       4.818   3.989  16.212  0.00  0.00    +0.000 A 
ATOM     28  C   UNL     1       4.178   4.609  17.292  0.00  0.00    +0.000 A 
ENDBRANCH  20  22
ENDBRANCH   3  18
TORSDOF 4
ENDMDL
MODEL 8
REMARK VINA RESULT:      -7.4      8.315     12.044
REMARK  Name = 
REMARK  7 active torsions:
REMARK  status: ('A' for Active; 'I' for Inactive)
REMARK    1  A    between atoms: C_1  and  C_2
REMARK    2  A    between atoms: C_5  and  N_6
REMARK    3  A    between atoms: C_7  and  C_9
REMARK    4  A    between atoms: C_11  and  C_12
REMARK    5  A    between atoms: N_14  and  C_15
REMARK    6  A    between atoms: C_18  and  C_19
REMARK    7  A    between atoms: N_22  and  C_23
REMARK                            x       y       z     vdW  Elec       q    Type
REMARK                         _______ _______ _______ _____ _____    ______ ____
ROOT
ATOM      1  C   UNL     1       1.469   8.952  19.328  0.00  0.00    +0.000 A 
ATOM      2  C   UNL     1       0.737  10.158  19.220  0.00  0.00    +0.000 A 
ATOM      3  C   UNL     1       0.090  10.346  20.430  0.00  0.00    +0.000 A 
ATOM      4  N   UNL     1       0.522   9.289  21.206  0.00  0.00    +0.000 N 
ATOM      5  C   UNL     1       0.215   8.966  22.583  0.00  0.00    +0.000 C 
ATOM      6  N   UNL     1       1.333   8.419  20.552  0.00  0.00    +0.000 NA
ENDROOT
BRANCH   1   8
ATOM      7  N   UNL     1       2.903   7.168  18.634  0.00  0.00    +0.000 N 
ATOM      8  C   UNL     1       2.260   8.336  18.253  0.00  0.00    +0.000 C 
ATOM      9  O   UNL     1       2.266   8.838  17.134  0.00  0.00    +0.000 OA
ATOM     10  H   UNL     1       2.702   6.869  19.583  0.00  0.00    +0.000 HD
BRANCH   7  15
ATOM     11  C   UNL     1       6.021   3.768  15.230  0.00  0.00    +0.000 C 
ATOM     12  C   UNL     1       5.224   4.655  16.137  0.00  0.00    +0.000 A 
ATOM     13  C   UNL     1       5.593   5.985  16.325  0.00  0.00    +0.000 A 
ATOM     14  C   UNL     1       4.844   6.823  17.155  0.00  0.00    +0.000 A 
ATOM     15  C   UNL     1       3.707   6.350  17.814  0.00  0.00    +0.000 A 
ATOM     16  C   UNL     1       3.348   5.010  17.648  0.00  0.00    +0.000 A 
ATOM     17  C   UNL     1       4.095   4.171  16.808  0.00  0.00    +0.000 A 
ENDBRANCH   7  15
ENDBRANCH   1   8
BRANCH   3  18
ATOM     18  C   UNL     1      -0.830  11.402  20.839  0.00  0.00    +0.000 C 
ATOM     19  O   UNL     1      -1.661  11.865  20.068  0.00  0.00    +0.000 OA
ATOM     20  N   UNL     1      -0.640  11.855  22.139  0.00  0.00    +0.000 N 
ATOM     21  H   UNL     1       0.153  11.485  22.643  0.00  0.00    +0.000 HD
BRANCH  20  22
ATOM     22  C   UNL     1      -1.327  12.906  22.789  0.00  0.00    +0.000 A 
ATOM     23  C   UNL     1      -0.820  14.200  22.923  0.00  0.00    +0.000 A 
ATOM     24  C   UNL     1      -1.516  15.167  23.656  0.00  0.00    +0.000 A 
ATOM     25  C   UNL     1      -2.736  14.862  24.266  0.00  0.00    +0.000 A 
ATOM     26  C   UNL     1      -3.440  15.869  25.125  0.00  0.00    +0.000 C 
ATOM     27  C   UNL     1      -3.272  13.582  24.089  0.00  0.00    +0.000 A 
ATOM     28  C   UNL     1      -2.579  12.618  23.347  0.00  0.00    +0.000 A 
ENDBRANCH  20  22
ENDBRANCH   3  18
TORSDOF 4
ENDMDL
MODEL 9
REMARK VINA RESULT:      -7.4      9.142     12.415
REMARK  Name = 
REMARK  7 active torsions:
REMARK  status: ('A' for Active; 'I' for Inactive)
REMARK    1  A    between atoms: C_1  and  C_2
REMARK    2  A    between atoms: C_5  and  N_6
REMARK    3  A    between atoms: C_7  and  C_9
REMARK    4  A    between atoms: C_11  and  C_12
REMARK    5  A    between atoms: N_14  and  C_15
REMARK    6  A    between atoms: C_18  and  C_19
REMARK    7  A    between atoms: N_22  and  C_23
REMARK                            x       y       z     vdW  Elec       q    Type
REMARK                         _______ _______ _______ _____ _____    ______ ____
ROOT
ATOM      1  C   UNL     1       1.150   9.236  19.995  0.00  0.00    +0.000 A 
ATOM      2  C   UNL     1       0.618  10.547  19.978  0.00  0.00    +0.000 A 
ATOM      3  C   UNL     1       0.127  10.799  21.247  0.00  0.00    +0.000 A 
ATOM      4  N   UNL     1       0.451   9.664  21.962  0.00  0.00    +0.000 N 
ATOM      5  C   UNL     1       0.226   9.352  23.357  0.00  0.00    +0.000 C 
ATOM      6  N   UNL     1       1.045   8.695  21.219  0.00  0.00    +0.000 NA
ENDROOT
BRANCH   1   8
ATOM      7  N   UNL     1       2.533   7.462  19.184  0.00  0.00    +0.000 N 
ATOM      8  C   UNL     1       1.725   8.534  18.839  0.00  0.00    +0.000 C 
ATOM      9  O   UNL     1       1.435   8.891  17.702  0.00  0.00    +0.000 OA
ATOM     10  H   UNL     1       2.578   7.274  20.181  0.00  0.00    +0.000 HD
BRANCH   7  15
ATOM     11  C   UNL     1       5.386   4.006  15.607  0.00  0.00    +0.000 C 
ATOM     12  C   UNL     1       4.621   4.909  16.526  0.00  0.00    +0.000 A 
ATOM     13  C   UNL     1       3.583   4.404  17.307  0.00  0.00    +0.000 A 
ATOM     14  C   UNL     1       2.878   5.237  18.180  0.00  0.00    +0.000 A 
ATOM     15  C   UNL     1       3.196   6.592  18.293  0.00  0.00    +0.000 A 
ATOM     16  C   UNL     1       4.219   7.108  17.492  0.00  0.00    +0.000 A 
ATOM     17  C   UNL     1       4.932   6.270  16.623  0.00  0.00    +0.000 A 
ENDBRANCH   7  15
ENDBRANCH   1   8
BRANCH   3  18
ATOM     18  C   UNL     1      -0.566  11.976  21.760  0.00  0.00    +0.000 C 
ATOM     19  O   UNL     1       0.043  12.978  22.116  0.00  0.00    +0.000 OA
ATOM     20  N   UNL     1      -1.946  11.833  21.852  0.00  0.00    +0.000 N 
ATOM     21  H   UNL     1      -2.328  10.922  21.645  0.00  0.00    +0.000 HD
BRANCH  20  22
ATOM     22  C   UNL     1      -2.871  12.768  22.370  0.00  0.00    +0.000 A 
ATOM     23  C   UNL     1      -3.324  12.764  23.690  0.00  0.00    +0.000 A 
ATOM     24  C   UNL     1      -4.308  13.665  24.111  0.00  0.00    +0.000 A 
ATOM     25  C   UNL     1      -4.855  14.594  23.221  0.00  0.00    +0.000 A 
ATOM     26  C   UNL     1      -5.971  15.501  23.646  0.00  0.00    +0.000 C 
ATOM     27  C   UNL     1      -4.366  14.636  21.912  0.00  0.00    +0.000 A 
ATOM     28  C   UNL     1      -3.374  13.740  21.495  0.00  0.00    +0.000 A 
ENDBRANCH  20  22
ENDBRANCH   3  18
TORSDOF 4
ENDMDL
