MODEL 1
REMARK VINA RESULT:      -7.3      0.000      0.000
REMARK  Name = 
REMARK  2 active torsions:
REMARK  status: ('A' for Active; 'I' for Inactive)
REMARK    1  A    between atoms: C_1  and  C_2
REMARK    2  A    between atoms: C_10  and  C_11
REMARK                            x       y       z     vdW  Elec       q    Type
REMARK                         _______ _______ _______ _____ _____    ______ ____
ROOT
ATOM      1  C   UNL     1       5.735   4.796  18.389  0.00  0.00    +0.000 C 
ATOM      2  N   UNL     1       6.642   5.770  18.981  0.00  0.00    +0.000 N 
ATOM      3  C   UNL     1       7.574   6.515  18.197  0.00  0.00    +0.000 C 
ATOM      4  N   UNL     1       8.459   7.431  18.820  0.00  0.00    +0.000 N 
ATOM      5  N   UNL     1       7.630   6.359  16.918  0.00  0.00    +0.000 NA
ATOM      6  C   UNL     1       6.784   5.452  16.229  0.00  0.00    +0.000 C 
ATOM      7  C   UNL     1       5.886   4.707  16.885  0.00  0.00    +0.000 C 
ATOM      8 CL   UNL     1       4.899   3.562  15.982  0.00  0.00    +0.000 Cl
ATOM      9  H   UNL     1       6.634   5.898  20.004  0.00  0.00    +0.000 HD
ATOM     10  H   UNL     1       8.431   7.575  19.840  0.00  0.00    +0.000 HD
ATOM     11  H   UNL     1       9.145   7.957  18.260  0.00  0.00    +0.000 HD
ENDROOT
BRANCH   1  21
ATOM     12  C   UNL     1       4.154   7.298  17.391  0.00  0.00    +0.000 C 
ATOM     13  C   UNL     1       3.604   6.232  18.286  0.00  0.00    +0.000 A 
ATOM     14  S   UNL     1       2.043   6.281  18.921  0.00  0.00    +0.000 S 
ATOM     15  C   UNL     1       2.194   4.861  19.790  0.00  0.00    +0.000 A 
ATOM     16  C   UNL     1       1.229   4.268  20.601  0.00  0.00    +0.000 A 
ATOM     17  C   UNL     1       1.553   3.068  21.245  0.00  0.00    +0.000 A 
ATOM     18  C   UNL     1       2.822   2.488  21.067  0.00  0.00    +0.000 A 
ATOM     19  C   UNL     1       3.785   3.110  20.252  0.00  0.00    +0.000 A 
ATOM     20  C   UNL     1       3.462   4.314  19.608  0.00  0.00    +0.000 A 
ATOM     21  C   UNL     1       4.286   5.090  18.753  0.00  0.00    +0.000 A 
ENDBRANCH   1  21
TORSDOF 1
ENDMDL
MODEL 2
REMARK VINA RESULT:      -7.2      1.949      3.167
REMARK  Name = 
REMARK  2 active torsions:
REMARK  status: ('A' for Active; 'I' for Inactive)
REMARK    1  A    between atoms: C_1  and  C_2
REMARK    2  A    between atoms: C_10  and  C_11
REMARK                            x       y       z     vdW  Elec       q    Type
REMARK                         _______ _______ _______ _____ _____    ______ ____
ROOT
ATOM      1  C   UNL     1       5.588   3.956  17.562  0.00  0.00    +0.000 C 
ATOM      2  N   UNL     1       6.398   4.320  18.716  0.00  0.00    +0.000 N 
ATOM      3  C   UNL     1       7.532   5.180  18.608  0.00  0.00    +0.000 C 
ATOM      4  N   UNL     1       8.309   5.483  19.754  0.00  0.00    +0.000 N 
ATOM      5  N   UNL     1       7.869   5.683  17.470  0.00  0.00    +0.000 NA
ATOM      6  C   UNL     1       7.145   5.415  16.280  0.00  0.00    +0.000 C 
ATOM      7  C   UNL     1       6.073   4.612  16.287  0.00  0.00    +0.000 C 
ATOM      8 CL   UNL     1       5.246   4.275  14.769  0.00  0.00    +0.000 Cl
ATOM      9  H   UNL     1       6.164   3.913  19.634  0.00  0.00    +0.000 HD
ATOM     10  H   UNL     1       8.058   5.095  20.676  0.00  0.00    +0.000 HD
ATOM     11  H   UNL     1       9.139   6.089  19.677  0.00  0.00    +0.000 HD
ENDROOT
BRANCH   1  21
ATOM     12  C   UNL     1       3.374   1.795  17.992  0.00  0.00    +0.000 C 
ATOM     13  C   UNL     1       3.143   3.275  17.977  0.00  0.00    +0.000 A 
ATOM     14  S   UNL     1       1.616   3.968  18.143  0.00  0.00    +0.000 S 
ATOM     15  C   UNL     1       2.152   5.543  17.990  0.00  0.00    +0.000 A 
ATOM     16  C   UNL     1       1.378   6.700  18.024  0.00  0.00    +0.000 A 
ATOM     17  C   UNL     1       2.023   7.934  17.880  0.00  0.00    +0.000 A 
ATOM     18  C   UNL     1       3.418   7.988  17.705  0.00  0.00    +0.000 A 
ATOM     19  C   UNL     1       4.180   6.806  17.662  0.00  0.00    +0.000 A 
ATOM     20  C   UNL     1       3.533   5.568  17.805  0.00  0.00    +0.000 A 
ATOM     21  C   UNL     1       4.117   4.276  17.789  0.00  0.00    +0.000 A 
ENDBRANCH   1  21
TORSDOF 1
ENDMDL
MODEL 3
REMARK VINA RESULT:      -7.2      2.330      2.841
REMARK  Name = 
REMARK  2 active torsions:
REMARK  status: ('A' for Active; 'I' for Inactive)
REMARK    1  A    between atoms: C_1  and  C_2
REMARK    2  A    between atoms: C_10  and  C_11
REMARK                            x       y       z     vdW  Elec       q    Type
REMARK                         _______ _______ _______ _____ _____    ______ ____
ROOT
ATOM      1  C   UNL     1       5.311   5.759  16.832  0.00  0.00    +0.000 C 
ATOM      2  N   UNL     1       5.337   5.191  15.492  0.00  0.00    +0.000 N 
ATOM      3  C   UNL     1       6.391   4.337  15.049  0.00  0.00    +0.000 C 
ATOM      4  N   UNL     1       6.391   3.830  13.725  0.00  0.00    +0.000 N 
ATOM      5  N   UNL     1       7.360   4.023  15.841  0.00  0.00    +0.000 NA
ATOM      6  C   UNL     1       7.432   4.503  17.174  0.00  0.00    +0.000 C 
ATOM      7  C   UNL     1       6.491   5.315  17.670  0.00  0.00    +0.000 C 
ATOM      8 CL   UNL     1       6.661   5.918  19.316  0.00  0.00    +0.000 Cl
ATOM      9  H   UNL     1       4.587   5.443  14.831  0.00  0.00    +0.000 HD
ATOM     10  H   UNL     1       5.626   4.064  13.074  0.00  0.00    +0.000 HD
ATOM     11  H   UNL     1       7.159   3.228  13.396  0.00  0.00    +0.000 HD
ENDROOT
BRANCH   1  21
ATOM     12  C   UNL     1       3.280   7.916  17.823  0.00  0.00    +0.000 C 
ATOM     13  C   UNL     1       3.115   6.436  17.986  0.00  0.00    +0.000 A 
ATOM     14  S   UNL     1       1.805   5.742  18.789  0.00  0.00    +0.000 S 
ATOM     15  C   UNL     1       2.334   4.168  18.596  0.00  0.00    +0.000 A 
ATOM     16  C   UNL     1       1.705   3.011  19.049  0.00  0.00    +0.000 A 
ATOM     17  C   UNL     1       2.312   1.778  18.780  0.00  0.00    +0.000 A 
ATOM     18  C   UNL     1       3.525   1.726  18.070  0.00  0.00    +0.000 A 
ATOM     19  C   UNL     1       4.149   2.908  17.632  0.00  0.00    +0.000 A 
ATOM     20  C   UNL     1       3.542   4.145  17.902  0.00  0.00    +0.000 A 
ATOM     21  C   UNL     1       4.007   5.437  17.550  0.00  0.00    +0.000 A 
ENDBRANCH   1  21
TORSDOF 1
ENDMDL
MODEL 4
REMARK VINA RESULT:      -7.2      1.774      3.532
REMARK  Name = 
REMARK  2 active torsions:
REMARK  status: ('A' for Active; 'I' for Inactive)
REMARK    1  A    between atoms: C_1  and  C_2
REMARK    2  A    between atoms: C_10  and  C_11
REMARK                            x       y       z     vdW  Elec       q    Type
REMARK                         _______ _______ _______ _____ _____    ______ ____
ROOT
ATOM      1  C   UNL     1       4.377   3.901  18.869  0.00  0.00    +0.000 C 
ATOM      2  N   UNL     1       5.752   4.350  19.034  0.00  0.00    +0.000 N 
ATOM      3  C   UNL     1       6.656   4.450  17.933  0.00  0.00    +0.000 C 
ATOM      4  N   UNL     1       7.996   4.864  18.145  0.00  0.00    +0.000 N 
ATOM      5  N   UNL     1       6.271   4.159  16.738  0.00  0.00    +0.000 NA
ATOM      6  C   UNL     1       4.950   3.728  16.453  0.00  0.00    +0.000 C 
ATOM      7  C   UNL     1       4.038   3.597  17.425  0.00  0.00    +0.000 C 
ATOM      8 CL   UNL     1       2.430   3.008  17.017  0.00  0.00    +0.000 Cl
ATOM      9  H   UNL     1       6.093   4.568  19.982  0.00  0.00    +0.000 HD
ATOM     10  H   UNL     1       8.326   5.105  19.091  0.00  0.00    +0.000 HD
ATOM     11  H   UNL     1       8.655   4.920  17.356  0.00  0.00    +0.000 HD
ENDROOT
BRANCH   1  21
ATOM     12  C   UNL     1       2.549   3.357  21.342  0.00  0.00    +0.000 C 
ATOM     13  C   UNL     1       2.577   4.629  20.554  0.00  0.00    +0.000 A 
ATOM     14  S   UNL     1       1.563   5.935  20.884  0.00  0.00    +0.000 S 
ATOM     15  C   UNL     1       2.133   6.883  19.630  0.00  0.00    +0.000 A 
ATOM     16  C   UNL     1       1.709   8.165  19.288  0.00  0.00    +0.000 A 
ATOM     17  C   UNL     1       2.320   8.795  18.198  0.00  0.00    +0.000 A 
ATOM     18  C   UNL     1       3.334   8.139  17.477  0.00  0.00    +0.000 A 
ATOM     19  C   UNL     1       3.739   6.840  17.833  0.00  0.00    +0.000 A 
ATOM     20  C   UNL     1       3.126   6.206  18.925  0.00  0.00    +0.000 A 
ATOM     21  C   UNL     1       3.388   4.910  19.437  0.00  0.00    +0.000 A 
ENDBRANCH   1  21
TORSDOF 1
ENDMDL
MODEL 5
REMARK VINA RESULT:      -7.1      1.564      1.564
REMARK  Name = 
REMARK  2 active torsions:
REMARK  status: ('A' for Active; 'I' for Inactive)
REMARK    1  A    between atoms: C_1  and  C_2
REMARK    2  A    between atoms: C_10  and  C_11
REMARK                            x       y       z     vdW  Elec       q    Type
REMARK                         _______ _______ _______ _____ _____    ______ ____
ROOT
ATOM      1  C   UNL     1       5.574   4.095  17.613  0.00  0.00    +0.000 C 
ATOM      2  N   UNL     1       6.393   4.449  18.764  0.00  0.00    +0.000 N 
ATOM      3  C   UNL     1       7.549   5.278  18.648  0.00  0.00    +0.000 C 
ATOM      4  N   UNL     1       8.334   5.572  19.792  0.00  0.00    +0.000 N 
ATOM      5  N   UNL     1       7.900   5.760  17.505  0.00  0.00    +0.000 NA
ATOM      6  C   UNL     1       7.170   5.499  16.318  0.00  0.00    +0.000 C 
ATOM      7  C   UNL     1       6.077   4.726  16.332  0.00  0.00    +0.000 C 
ATOM      8 CL   UNL     1       5.242   4.395  14.818  0.00  0.00    +0.000 Cl
ATOM      9  H   UNL     1       6.148   4.058  19.687  0.00  0.00    +0.000 HD
ATOM     10  H   UNL     1       8.072   5.200  20.717  0.00  0.00    +0.000 HD
ATOM     11  H   UNL     1       9.179   6.155  19.709  0.00  0.00    +0.000 HD
ENDROOT
BRANCH   1  21
ATOM     12  C   UNL     1       4.443   7.000  17.419  0.00  0.00    +0.000 C 
ATOM     13  C   UNL     1       3.636   5.781  17.743  0.00  0.00    +0.000 A 
ATOM     14  S   UNL     1       1.990   5.837  18.101  0.00  0.00    +0.000 S 
ATOM     15  C   UNL     1       1.843   4.194  18.373  0.00  0.00    +0.000 A 
ATOM     16  C   UNL     1       0.690   3.504  18.737  0.00  0.00    +0.000 A 
ATOM     17  C   UNL     1       0.775   2.118  18.914  0.00  0.00    +0.000 A 
ATOM     18  C   UNL     1       2.000   1.454  18.725  0.00  0.00    +0.000 A 
ATOM     19  C   UNL     1       3.155   2.171  18.367  0.00  0.00    +0.000 A 
ATOM     20  C   UNL     1       3.072   3.562  18.192  0.00  0.00    +0.000 A 
ATOM     21  C   UNL     1       4.112   4.457  17.836  0.00  0.00    +0.000 A 
ENDBRANCH   1  21
TORSDOF 1
ENDMDL
MODEL 6
REMARK VINA RESULT:      -7.0      2.862      4.951
REMARK  Name = 
REMARK  2 active torsions:
REMARK  status: ('A' for Active; 'I' for Inactive)
REMARK    1  A    between atoms: C_1  and  C_2
REMARK    2  A    between atoms: C_10  and  C_11
REMARK                            x       y       z     vdW  Elec       q    Type
REMARK                         _______ _______ _______ _____ _____    ______ ____
ROOT
ATOM      1  C   UNL     1       3.035   4.142  19.192  0.00  0.00    +0.000 C 
ATOM      2  N   UNL     1       4.117   3.418  19.844  0.00  0.00    +0.000 N 
ATOM      3  C   UNL     1       4.263   2.003  19.727  0.00  0.00    +0.000 C 
ATOM      4  N   UNL     1       5.314   1.335  20.405  0.00  0.00    +0.000 N 
ATOM      5  N   UNL     1       3.439   1.314  19.012  0.00  0.00    +0.000 NA
ATOM      6  C   UNL     1       2.358   1.913  18.316  0.00  0.00    +0.000 C 
ATOM      7  C   UNL     1       2.141   3.232  18.377  0.00  0.00    +0.000 C 
ATOM      8 CL   UNL     1       0.752   3.911  17.533  0.00  0.00    +0.000 Cl
ATOM      9  H   UNL     1       4.776   3.941  20.440  0.00  0.00    +0.000 HD
ATOM     10  H   UNL     1       5.986   1.864  20.979  0.00  0.00    +0.000 HD
ATOM     11  H   UNL     1       5.412   0.312  20.337  0.00  0.00    +0.000 HD
ENDROOT
BRANCH   1  21
ATOM     12  C   UNL     1       2.336   7.157  19.614  0.00  0.00    +0.000 C 
ATOM     13  C   UNL     1       3.228   6.622  18.538  0.00  0.00    +0.000 A 
ATOM     14  S   UNL     1       3.940   7.601  17.364  0.00  0.00    +0.000 S 
ATOM     15  C   UNL     1       4.695   6.343  16.563  0.00  0.00    +0.000 A 
ATOM     16  C   UNL     1       5.495   6.433  15.426  0.00  0.00    +0.000 A 
ATOM     17  C   UNL     1       6.043   5.254  14.907  0.00  0.00    +0.000 A 
ATOM     18  C   UNL     1       5.783   4.018  15.527  0.00  0.00    +0.000 A 
ATOM     19  C   UNL     1       4.963   3.949  16.668  0.00  0.00    +0.000 A 
ATOM     20  C   UNL     1       4.412   5.131  17.189  0.00  0.00    +0.000 A 
ATOM     21  C   UNL     1       3.568   5.271  18.319  0.00  0.00    +0.000 A 
ENDBRANCH   1  21
TORSDOF 1
ENDMDL
MODEL 7
REMARK VINA RESULT:      -6.8      2.120      2.635
REMARK  Name = 
REMARK  2 active torsions:
REMARK  status: ('A' for Active; 'I' for Inactive)
REMARK    1  A    between atoms: C_1  and  C_2
REMARK    2  A    between atoms: C_10  and  C_11
REMARK                            x       y       z     vdW  Elec       q    Type
REMARK                         _______ _______ _______ _____ _____    ______ ____
ROOT
ATOM      1  C   UNL     1       5.318   5.991  17.196  0.00  0.00    +0.000 C 
ATOM      2  N   UNL     1       4.987   5.462  15.881  0.00  0.00    +0.000 N 
ATOM      3  C   UNL     1       5.824   4.523  15.206  0.00  0.00    +0.000 C 
ATOM      4  N   UNL     1       5.477   4.058  13.912  0.00  0.00    +0.000 N 
ATOM      5  N   UNL     1       6.907   4.093  15.758  0.00  0.00    +0.000 NA
ATOM      6  C   UNL     1       7.322   4.523  17.045  0.00  0.00    +0.000 C 
ATOM      7  C   UNL     1       6.603   5.408  17.746  0.00  0.00    +0.000 C 
ATOM      8 CL   UNL     1       7.196   5.943  19.315  0.00  0.00    +0.000 Cl
ATOM      9  H   UNL     1       4.138   5.806  15.406  0.00  0.00    +0.000 HD
ATOM     10  H   UNL     1       4.614   4.385  13.452  0.00  0.00    +0.000 HD
ATOM     11  H   UNL     1       6.087   3.394  13.415  0.00  0.00    +0.000 HD
ENDROOT
BRANCH   1  21
ATOM     12  C   UNL     1       3.117   8.117  17.819  0.00  0.00    +0.000 C 
ATOM     13  C   UNL     1       3.205   6.760  18.445  0.00  0.00    +0.000 A 
ATOM     14  S   UNL     1       2.131   6.222  19.627  0.00  0.00    +0.000 S 
ATOM     15  C   UNL     1       2.870   4.736  19.830  0.00  0.00    +0.000 A 
ATOM     16  C   UNL     1       2.490   3.725  20.709  0.00  0.00    +0.000 A 
ATOM     17  C   UNL     1       3.243   2.545  20.725  0.00  0.00    +0.000 A 
ATOM     18  C   UNL     1       4.351   2.399  19.871  0.00  0.00    +0.000 A 
ATOM     19  C   UNL     1       4.723   3.438  18.999  0.00  0.00    +0.000 A 
ATOM     20  C   UNL     1       3.970   4.623  18.984  0.00  0.00    +0.000 A 
ATOM     21  C   UNL     1       4.181   5.776  18.186  0.00  0.00    +0.000 A 
ENDBRANCH   1  21
TORSDOF 1
ENDMDL
MODEL 8
REMARK VINA RESULT:      -6.7      3.115      4.334
REMARK  Name = 
REMARK  2 active torsions:
REMARK  status: ('A' for Active; 'I' for Inactive)
REMARK    1  A    between atoms: C_1  and  C_2
REMARK    2  A    between atoms: C_10  and  C_11
REMARK                            x       y       z     vdW  Elec       q    Type
REMARK                         _______ _______ _______ _____ _____    ______ ____
ROOT
ATOM      1  C   UNL     1       3.339   5.600  19.965  0.00  0.00    +0.000 C 
ATOM      2  N   UNL     1       4.730   5.448  19.560  0.00  0.00    +0.000 N 
ATOM      3  C   UNL     1       5.213   4.259  18.935  0.00  0.00    +0.000 C 
ATOM      4  N   UNL     1       6.583   4.144  18.584  0.00  0.00    +0.000 N 
ATOM      5  N   UNL     1       4.417   3.275  18.689  0.00  0.00    +0.000 NA
ATOM      6  C   UNL     1       3.039   3.316  19.022  0.00  0.00    +0.000 C 
ATOM      7  C   UNL     1       2.501   4.387  19.618  0.00  0.00    +0.000 C 
ATOM      8 CL   UNL     1       0.796   4.359  20.054  0.00  0.00    +0.000 Cl
ATOM      9  H   UNL     1       5.393   6.210  19.766  0.00  0.00    +0.000 HD
ATOM     10  H   UNL     1       7.238   4.918  18.768  0.00  0.00    +0.000 HD
ATOM     11  H   UNL     1       6.939   3.281  18.149  0.00  0.00    +0.000 HD
ENDROOT
BRANCH   1  21
ATOM     12  C   UNL     1       3.931   6.638  17.080  0.00  0.00    +0.000 C 
ATOM     13  C   UNL     1       3.010   7.295  18.060  0.00  0.00    +0.000 A 
ATOM     14  S   UNL     1       2.202   8.739  17.736  0.00  0.00    +0.000 S 
ATOM     15  C   UNL     1       1.462   8.831  19.232  0.00  0.00    +0.000 A 
ATOM     16  C   UNL     1       0.604   9.832  19.682  0.00  0.00    +0.000 A 
ATOM     17  C   UNL     1       0.082   9.723  20.977  0.00  0.00    +0.000 A 
ATOM     18  C   UNL     1       0.424   8.627  21.789  0.00  0.00    +0.000 A 
ATOM     19  C   UNL     1       1.300   7.633  21.318  0.00  0.00    +0.000 A 
ATOM     20  C   UNL     1       1.826   7.742  20.020  0.00  0.00    +0.000 A 
ATOM     21  C   UNL     1       2.718   6.855  19.367  0.00  0.00    +0.000 A 
ENDBRANCH   1  21
TORSDOF 1
ENDMDL
MODEL 9
REMARK VINA RESULT:      -6.6      1.660      3.339
REMARK  Name = 
REMARK  2 active torsions:
REMARK  status: ('A' for Active; 'I' for Inactive)
REMARK    1  A    between atoms: C_1  and  C_2
REMARK    2  A    between atoms: C_10  and  C_11
REMARK                            x       y       z     vdW  Elec       q    Type
REMARK                         _______ _______ _______ _____ _____    ______ ____
ROOT
ATOM      1  C   UNL     1       4.921   4.380  18.075  0.00  0.00    +0.000 C 
ATOM      2  N   UNL     1       6.041   5.295  17.908  0.00  0.00    +0.000 N 
ATOM      3  C   UNL     1       6.523   5.678  16.620  0.00  0.00    +0.000 C 
ATOM      4  N   UNL     1       7.636   6.549  16.504  0.00  0.00    +0.000 N 
ATOM      5  N   UNL     1       5.962   5.232  15.548  0.00  0.00    +0.000 NA
ATOM      6  C   UNL     1       4.852   4.348  15.587  0.00  0.00    +0.000 C 
ATOM      7  C   UNL     1       4.339   3.931  16.751  0.00  0.00    +0.000 C 
ATOM      8 CL   UNL     1       2.995   2.794  16.736  0.00  0.00    +0.000 Cl
ATOM      9  H   UNL     1       6.523   5.650  18.747  0.00  0.00    +0.000 HD
ATOM     10  H   UNL     1       8.100   6.921  17.346  0.00  0.00    +0.000 HD
ATOM     11  H   UNL     1       7.998   6.813  15.577  0.00  0.00    +0.000 HD
ENDROOT
BRANCH   1  21
ATOM     12  C   UNL     1       3.600   2.914  20.496  0.00  0.00    +0.000 C 
ATOM     13  C   UNL     1       3.254   4.295  20.031  0.00  0.00    +0.000 A 
ATOM     14  S   UNL     1       2.044   5.227  20.745  0.00  0.00    +0.000 S 
ATOM     15  C   UNL     1       2.229   6.524  19.706  0.00  0.00    +0.000 A 
ATOM     16  C   UNL     1       1.504   7.714  19.713  0.00  0.00    +0.000 A 
ATOM     17  C   UNL     1       1.816   8.685  18.755  0.00  0.00    +0.000 A 
ATOM     18  C   UNL     1       2.837   8.452  17.816  0.00  0.00    +0.000 A 
ATOM     19  C   UNL     1       3.549   7.239  17.820  0.00  0.00    +0.000 A 
ATOM     20  C   UNL     1       3.236   6.263  18.779  0.00  0.00    +0.000 A 
ATOM     21  C   UNL     1       3.830   4.987  18.947  0.00  0.00    +0.000 A 
ENDBRANCH   1  21
TORSDOF 1
ENDMDL
