MODEL 1
REMARK VINA RESULT:      -7.2      0.000      0.000
REMARK  Name = 
REMARK  11 active torsions:
REMARK  status: ('A' for Active; 'I' for Inactive)
REMARK    1  A    between atoms: C_1  and  O_2
REMARK    2  A    between atoms: O_2  and  C_3
REMARK    3  A    between atoms: C_5  and  C_6
REMARK    4  A    between atoms: C_6  and  C_8
REMARK    5  A    between atoms: C_16  and  C_17
REMARK    6  A    between atoms: C_20  and  S_21
REMARK    7  A    between atoms: S_21  and  C_22
REMARK    8  A    between atoms: C_26  and  O_27
REMARK    9  A    between atoms: O_27  and  C_28
REMARK   10  A    between atoms: C_29  and  O_30
REMARK   11  A    between atoms: O_30  and  C_31
REMARK                            x       y       z     vdW  Elec       q    Type
REMARK                         _______ _______ _______ _____ _____    ______ ____
ROOT
ATOM      1  C   UNL     1       5.685   4.578  17.082  0.00  0.00    +0.000 A 
ATOM      2  S   UNL     1       4.908   3.587  15.924  0.00  0.00    +0.000 S 
ATOM      3  C   UNL     1       5.922   4.091  14.660  0.00  0.00    +0.000 A 
ATOM      4  C   UNL     1       5.843   3.601  13.337  0.00  0.00    +0.000 A 
ATOM      5  C   UNL     1       6.765   4.040  12.400  0.00  0.00    +0.000 A 
ATOM      6  C   UNL     1       7.725   4.964  12.765  0.00  0.00    +0.000 A 
ATOM      7  C   UNL     1       7.756   5.499  14.072  0.00  0.00    +0.000 A 
ATOM      8  C   UNL     1       6.838   5.066  15.077  0.00  0.00    +0.000 A 
ATOM      9  C   UNL     1       6.612   5.457  16.492  0.00  0.00    +0.000 A 
ENDROOT
BRANCH   9  10
ATOM     10  C   UNL     1       7.220   6.604  17.240  0.00  0.00    +0.000 A 
ATOM     11  C   UNL     1       7.953   6.390  18.424  0.00  0.00    +0.000 A 
ATOM     12  C   UNL     1       8.603   7.436  19.120  0.00  0.00    +0.000 A 
ATOM     13  C   UNL     1       8.488   8.753  18.694  0.00  0.00    +0.000 A 
ATOM     14  C   UNL     1       7.706   8.991  17.553  0.00  0.00    +0.000 A 
ATOM     15  C   UNL     1       7.092   7.937  16.833  0.00  0.00    +0.000 A 
BRANCH  13  16
ATOM     16  S   UNL     1       9.260  10.174  19.468  0.00  0.00    +0.000 S 
ATOM     17  C   UNL     1       9.455  11.409  18.140  0.00  0.00    +0.000 C 
ENDBRANCH  13  16
ENDBRANCH   9  10
BRANCH   1  18
ATOM     18  C   UNL     1       5.188   4.355  18.440  0.00  0.00    +0.000 C 
ATOM     19  O   UNL     1       5.819   3.727  19.293  0.00  0.00    +0.000 OA
BRANCH  18  22
ATOM     20  C   UNL     1       1.939   4.764  20.289  0.00  0.00    +0.000 A 
ATOM     21  C   UNL     1       2.990   4.118  19.643  0.00  0.00    +0.000 A 
ATOM     22  C   UNL     1       3.866   4.874  18.866  0.00  0.00    +0.000 A 
ATOM     23  C   UNL     1       3.560   6.202  18.542  0.00  0.00    +0.000 A 
ATOM     24  C   UNL     1       2.510   6.859  19.176  0.00  0.00    +0.000 A 
ATOM     25  C   UNL     1       1.776   6.159  20.139  0.00  0.00    +0.000 A 
BRANCH  20  27
ATOM     26  C   UNL     1       1.401   2.801  21.496  0.00  0.00    +0.000 C 
ATOM     27  O   UNL     1       1.047   4.123  21.109  0.00  0.00    +0.000 OA
ENDBRANCH  20  27
BRANCH  24  28
ATOM     28  O   UNL     1       2.445   8.194  18.894  0.00  0.00    +0.000 OA
ATOM     29  C   UNL     1       1.767   8.595  17.708  0.00  0.00    +0.000 C 
ENDBRANCH  24  28
BRANCH  25  30
ATOM     30  O   UNL     1       0.981   6.866  21.011  0.00  0.00    +0.000 OA
ATOM     31  C   UNL     1       1.531   8.154  21.304  0.00  0.00    +0.000 C 
ENDBRANCH  25  30
ENDBRANCH  18  22
ENDBRANCH   1  18
TORSDOF 7
ENDMDL
MODEL 2
REMARK VINA RESULT:      -7.0      6.487     10.239
REMARK  Name = 
REMARK  11 active torsions:
REMARK  status: ('A' for Active; 'I' for Inactive)
REMARK    1  A    between atoms: C_1  and  O_2
REMARK    2  A    between atoms: O_2  and  C_3
REMARK    3  A    between atoms: C_5  and  C_6
REMARK    4  A    between atoms: C_6  and  C_8
REMARK    5  A    between atoms: C_16  and  C_17
REMARK    6  A    between atoms: C_20  and  S_21
REMARK    7  A    between atoms: S_21  and  C_22
REMARK    8  A    between atoms: C_26  and  O_27
REMARK    9  A    between atoms: O_27  and  C_28
REMARK   10  A    between atoms: C_29  and  O_30
REMARK   11  A    between atoms: O_30  and  C_31
REMARK                            x       y       z     vdW  Elec       q    Type
REMARK                         _______ _______ _______ _____ _____    ______ ____
ROOT
ATOM      1  C   UNL     1      -0.700  13.090  20.059  0.00  0.00    +0.000 A 
ATOM      2  S   UNL     1      -0.682  14.799  20.121  0.00  0.00    +0.000 S 
ATOM      3  C   UNL     1       0.792  14.916  19.286  0.00  0.00    +0.000 A 
ATOM      4  C   UNL     1       1.414  16.138  18.943  0.00  0.00    +0.000 A 
ATOM      5  C   UNL     1       2.586  16.113  18.206  0.00  0.00    +0.000 A 
ATOM      6  C   UNL     1       3.140  14.901  17.841  0.00  0.00    +0.000 A 
ATOM      7  C   UNL     1       2.548  13.683  18.243  0.00  0.00    +0.000 A 
ATOM      8  C   UNL     1       1.330  13.657  18.990  0.00  0.00    +0.000 A 
ATOM      9  C   UNL     1       0.509  12.563  19.567  0.00  0.00    +0.000 A 
ENDROOT
BRANCH   9  10
ATOM     10  C   UNL     1       0.851  11.108  19.668  0.00  0.00    +0.000 A 
ATOM     11  C   UNL     1       1.174  10.359  18.519  0.00  0.00    +0.000 A 
ATOM     12  C   UNL     1       1.573   9.003  18.577  0.00  0.00    +0.000 A 
ATOM     13  C   UNL     1       1.599   8.321  19.788  0.00  0.00    +0.000 A 
ATOM     14  C   UNL     1       1.215   9.035  20.933  0.00  0.00    +0.000 A 
ATOM     15  C   UNL     1       0.859  10.404  20.878  0.00  0.00    +0.000 A 
BRANCH  13  16
ATOM     16  S   UNL     1       2.089   6.611  20.015  0.00  0.00    +0.000 S 
ATOM     17  C   UNL     1       2.819   6.098  18.424  0.00  0.00    +0.000 C 
ENDBRANCH  13  16
ENDBRANCH   9  10
BRANCH   1  18
ATOM     18  C   UNL     1      -1.942  12.519  20.583  0.00  0.00    +0.000 C 
ATOM     19  O   UNL     1      -2.060  12.111  21.740  0.00  0.00    +0.000 OA
BRANCH  18  22
ATOM     20  C   UNL     1      -4.304  11.369  17.893  0.00  0.00    +0.000 A 
ATOM     21  C   UNL     1      -3.106  11.759  18.485  0.00  0.00    +0.000 A 
ATOM     22  C   UNL     1      -3.145  12.390  19.727  0.00  0.00    +0.000 A 
ATOM     23  C   UNL     1      -4.362  12.843  20.253  0.00  0.00    +0.000 A 
ATOM     24  C   UNL     1      -5.568  12.464  19.669  0.00  0.00    +0.000 A 
ATOM     25  C   UNL     1      -5.527  11.626  18.551  0.00  0.00    +0.000 A 
BRANCH  20  27
ATOM     26  C   UNL     1      -3.268  10.885  15.820  0.00  0.00    +0.000 C 
ATOM     27  O   UNL     1      -4.374  10.705  16.695  0.00  0.00    +0.000 OA
ENDBRANCH  20  27
BRANCH  24  28
ATOM     28  O   UNL     1      -6.668  12.829  20.392  0.00  0.00    +0.000 OA
ATOM     29  C   UNL     1      -6.775  12.359  21.731  0.00  0.00    +0.000 C 
ENDBRANCH  24  28
BRANCH  25  30
ATOM     30  O   UNL     1      -6.674  10.968  18.172  0.00  0.00    +0.000 OA
ATOM     31  C   UNL     1      -6.889   9.787  18.951  0.00  0.00    +0.000 C 
ENDBRANCH  25  30
ENDBRANCH  18  22
ENDBRANCH   1  18
TORSDOF 7
ENDMDL
MODEL 3
REMARK VINA RESULT:      -6.9      2.924      6.041
REMARK  Name = 
REMARK  11 active torsions:
REMARK  status: ('A' for Active; 'I' for Inactive)
REMARK    1  A    between atoms: C_1  and  O_2
REMARK    2  A    between atoms: O_2  and  C_3
REMARK    3  A    between atoms: C_5  and  C_6
REMARK    4  A    between atoms: C_6  and  C_8
REMARK    5  A    between atoms: C_16  and  C_17
REMARK    6  A    between atoms: C_20  and  S_21
REMARK    7  A    between atoms: S_21  and  C_22
REMARK    8  A    between atoms: C_26  and  O_27
REMARK    9  A    between atoms: O_27  and  C_28
REMARK   10  A    between atoms: C_29  and  O_30
REMARK   11  A    between atoms: O_30  and  C_31
REMARK                            x       y       z     vdW  Elec       q    Type
REMARK                         _______ _______ _______ _____ _____    ______ ____
ROOT
ATOM      1  C   UNL     1       2.621   6.270  19.093  0.00  0.00    +0.000 A 
ATOM      2  S   UNL     1       1.458   5.872  20.283  0.00  0.00    +0.000 S 
ATOM      3  C   UNL     1       2.167   4.367  20.619  0.00  0.00    +0.000 A 
ATOM      4  C   UNL     1       1.692   3.469  21.602  0.00  0.00    +0.000 A 
ATOM      5  C   UNL     1       2.388   2.294  21.833  0.00  0.00    +0.000 A 
ATOM      6  C   UNL     1       3.515   2.007  21.086  0.00  0.00    +0.000 A 
ATOM      7  C   UNL     1       3.946   2.879  20.061  0.00  0.00    +0.000 A 
ATOM      8  C   UNL     1       3.271   4.109  19.796  0.00  0.00    +0.000 A 
ATOM      9  C   UNL     1       3.465   5.186  18.792  0.00  0.00    +0.000 A 
ENDROOT
BRANCH   9  10
ATOM     10  C   UNL     1       4.380   5.185  17.604  0.00  0.00    +0.000 A 
ATOM     11  C   UNL     1       5.530   5.998  17.576  0.00  0.00    +0.000 A 
ATOM     12  C   UNL     1       6.457   5.974  16.507  0.00  0.00    +0.000 A 
ATOM     13  C   UNL     1       6.232   5.180  15.389  0.00  0.00    +0.000 A 
ATOM     14  C   UNL     1       5.057   4.413  15.374  0.00  0.00    +0.000 A 
ATOM     15  C   UNL     1       4.153   4.407  16.464  0.00  0.00    +0.000 A 
BRANCH  13  16
ATOM     16  S   UNL     1       7.320   5.042  13.970  0.00  0.00    +0.000 S 
ATOM     17  C   UNL     1       6.524   3.832  12.861  0.00  0.00    +0.000 C 
ENDBRANCH  13  16
ENDBRANCH   9  10
BRANCH   1  18
ATOM     18  C   UNL     1       2.467   7.635  18.587  0.00  0.00    +0.000 C 
ATOM     19  O   UNL     1       3.045   8.050  17.580  0.00  0.00    +0.000 OA
BRANCH  18  22
ATOM     20  C   UNL     1       0.999   9.852  21.245  0.00  0.00    +0.000 A 
ATOM     21  C   UNL     1       1.556   8.713  20.671  0.00  0.00    +0.000 A 
ATOM     22  C   UNL     1       1.597   8.614  19.281  0.00  0.00    +0.000 A 
ATOM     23  C   UNL     1       0.878   9.515  18.485  0.00  0.00    +0.000 A 
ATOM     24  C   UNL     1       0.312  10.657  19.047  0.00  0.00    +0.000 A 
ATOM     25  C   UNL     1       0.481  10.873  20.418  0.00  0.00    +0.000 A 
BRANCH  20  27
ATOM     26  C   UNL     1      -0.209   9.574  23.262  0.00  0.00    +0.000 C 
ATOM     27  O   UNL     1       0.947  10.068  22.599  0.00  0.00    +0.000 OA
ENDBRANCH  20  27
BRANCH  24  28
ATOM     28  O   UNL     1      -0.198  11.528  18.127  0.00  0.00    +0.000 OA
ATOM     29  C   UNL     1      -1.613  11.652  18.034  0.00  0.00    +0.000 C 
ENDBRANCH  24  28
BRANCH  25  30
ATOM     30  O   UNL     1       0.243  12.129  20.926  0.00  0.00    +0.000 OA
ATOM     31  C   UNL     1       1.383  12.982  20.785  0.00  0.00    +0.000 C 
ENDBRANCH  25  30
ENDBRANCH  18  22
ENDBRANCH   1  18
TORSDOF 7
ENDMDL
MODEL 4
REMARK VINA RESULT:      -6.8      6.289      9.934
REMARK  Name = 
REMARK  11 active torsions:
REMARK  status: ('A' for Active; 'I' for Inactive)
REMARK    1  A    between atoms: C_1  and  O_2
REMARK    2  A    between atoms: O_2  and  C_3
REMARK    3  A    between atoms: C_5  and  C_6
REMARK    4  A    between atoms: C_6  and  C_8
REMARK    5  A    between atoms: C_16  and  C_17
REMARK    6  A    between atoms: C_20  and  S_21
REMARK    7  A    between atoms: S_21  and  C_22
REMARK    8  A    between atoms: C_26  and  O_27
REMARK    9  A    between atoms: O_27  and  C_28
REMARK   10  A    between atoms: C_29  and  O_30
REMARK   11  A    between atoms: O_30  and  C_31
REMARK                            x       y       z     vdW  Elec       q    Type
REMARK                         _______ _______ _______ _____ _____    ______ ____
ROOT
ATOM      1  C   UNL     1      -0.374  12.813  18.775  0.00  0.00    +0.000 A 
ATOM      2  S   UNL     1      -0.397  14.521  18.865  0.00  0.00    +0.000 S 
ATOM      3  C   UNL     1       1.280  14.658  18.643  0.00  0.00    +0.000 A 
ATOM      4  C   UNL     1       1.973  15.888  18.576  0.00  0.00    +0.000 A 
ATOM      5  C   UNL     1       3.336  15.880  18.329  0.00  0.00    +0.000 A 
ATOM      6  C   UNL     1       3.998  14.676  18.179  0.00  0.00    +0.000 A 
ATOM      7  C   UNL     1       3.310  13.449  18.312  0.00  0.00    +0.000 A 
ATOM      8  C   UNL     1       1.902  13.406  18.550  0.00  0.00    +0.000 A 
ATOM      9  C   UNL     1       0.936  12.299  18.762  0.00  0.00    +0.000 A 
ENDROOT
BRANCH   9  10
ATOM     10  C   UNL     1       1.230  10.843  18.961  0.00  0.00    +0.000 A 
ATOM     11  C   UNL     1       1.800  10.073  17.928  0.00  0.00    +0.000 A 
ATOM     12  C   UNL     1       2.160   8.714  18.098  0.00  0.00    +0.000 A 
ATOM     13  C   UNL     1       1.900   8.054  19.293  0.00  0.00    +0.000 A 
ATOM     14  C   UNL     1       1.272   8.791  20.308  0.00  0.00    +0.000 A 
ATOM     15  C   UNL     1       0.953  10.161  20.151  0.00  0.00    +0.000 A 
BRANCH  13  16
ATOM     16  S   UNL     1       2.307   6.345  19.652  0.00  0.00    +0.000 S 
ATOM     17  C   UNL     1       2.902   5.643  18.077  0.00  0.00    +0.000 C 
ENDBRANCH  13  16
ENDBRANCH   9  10
BRANCH   1  18
ATOM     18  C   UNL     1      -1.716  12.229  18.789  0.00  0.00    +0.000 C 
ATOM     19  O   UNL     1      -2.214  11.661  17.814  0.00  0.00    +0.000 OA
BRANCH  18  22
ATOM     20  C   UNL     1      -2.862  12.821  22.321  0.00  0.00    +0.000 A 
ATOM     21  C   UNL     1      -2.032  12.418  21.278  0.00  0.00    +0.000 A 
ATOM     22  C   UNL     1      -2.570  12.302  19.998  0.00  0.00    +0.000 A 
ATOM     23  C   UNL     1      -3.957  12.350  19.806  0.00  0.00    +0.000 A 
ATOM     24  C   UNL     1      -4.799  12.747  20.841  0.00  0.00    +0.000 A 
ATOM     25  C   UNL     1      -4.224  13.095  22.066  0.00  0.00    +0.000 A 
BRANCH  20  27
ATOM     26  C   UNL     1      -1.505  14.075  23.801  0.00  0.00    +0.000 C 
ATOM     27  O   UNL     1      -2.424  13.007  23.607  0.00  0.00    +0.000 OA
ENDBRANCH  20  27
BRANCH  24  28
ATOM     28  O   UNL     1      -6.099  12.920  20.457  0.00  0.00    +0.000 OA
ATOM     29  C   UNL     1      -6.919  11.764  20.332  0.00  0.00    +0.000 C 
ENDBRANCH  24  28
BRANCH  25  30
ATOM     30  O   UNL     1      -4.973  13.808  22.973  0.00  0.00    +0.000 OA
ATOM     31  C   UNL     1      -5.757  12.946  23.804  0.00  0.00    +0.000 C 
ENDBRANCH  25  30
ENDBRANCH  18  22
ENDBRANCH   1  18
TORSDOF 7
ENDMDL
MODEL 5
REMARK VINA RESULT:      -6.8      5.794      9.829
REMARK  Name = 
REMARK  11 active torsions:
REMARK  status: ('A' for Active; 'I' for Inactive)
REMARK    1  A    between atoms: C_1  and  O_2
REMARK    2  A    between atoms: O_2  and  C_3
REMARK    3  A    between atoms: C_5  and  C_6
REMARK    4  A    between atoms: C_6  and  C_8
REMARK    5  A    between atoms: C_16  and  C_17
REMARK    6  A    between atoms: C_20  and  S_21
REMARK    7  A    between atoms: S_21  and  C_22
REMARK    8  A    between atoms: C_26  and  O_27
REMARK    9  A    between atoms: O_27  and  C_28
REMARK   10  A    between atoms: C_29  and  O_30
REMARK   11  A    between atoms: O_30  and  C_31
REMARK                            x       y       z     vdW  Elec       q    Type
REMARK                         _______ _______ _______ _____ _____    ______ ____
ROOT
ATOM      1  C   UNL     1      -0.171  11.705  19.767  0.00  0.00    +0.000 A 
ATOM      2  S   UNL     1      -1.412  12.844  19.466  0.00  0.00    +0.000 S 
ATOM      3  C   UNL     1      -2.343  11.746  18.566  0.00  0.00    +0.000 A 
ATOM      4  C   UNL     1      -3.605  12.049  18.006  0.00  0.00    +0.000 A 
ATOM      5  C   UNL     1      -4.303  11.054  17.343  0.00  0.00    +0.000 A 
ATOM      6  C   UNL     1      -3.748   9.795  17.217  0.00  0.00    +0.000 A 
ATOM      7  C   UNL     1      -2.458   9.518  17.722  0.00  0.00    +0.000 A 
ATOM      8  C   UNL     1      -1.706  10.506  18.428  0.00  0.00    +0.000 A 
ATOM      9  C   UNL     1      -0.349  10.520  19.030  0.00  0.00    +0.000 A 
ENDROOT
BRANCH   9  10
ATOM     10  C   UNL     1       0.727   9.484  18.903  0.00  0.00    +0.000 A 
ATOM     11  C   UNL     1       1.091   8.680  20.002  0.00  0.00    +0.000 A 
ATOM     12  C   UNL     1       2.050   7.644  19.906  0.00  0.00    +0.000 A 
ATOM     13  C   UNL     1       2.733   7.415  18.717  0.00  0.00    +0.000 A 
ATOM     14  C   UNL     1       2.428   8.251  17.633  0.00  0.00    +0.000 A 
ATOM     15  C   UNL     1       1.438   9.259  17.719  0.00  0.00    +0.000 A 
BRANCH  13  16
ATOM     16  S   UNL     1       3.961   6.137  18.448  0.00  0.00    +0.000 S 
ATOM     17  C   UNL     1       4.766   6.559  16.867  0.00  0.00    +0.000 C 
ENDBRANCH  13  16
ENDBRANCH   9  10
BRANCH   1  18
ATOM     18  C   UNL     1       0.852  12.215  20.681  0.00  0.00    +0.000 C 
ATOM     19  O   UNL     1       1.107  11.689  21.767  0.00  0.00    +0.000 OA
BRANCH  18  22
ATOM     20  C   UNL     1       2.897  14.729  18.774  0.00  0.00    +0.000 A 
ATOM     21  C   UNL     1       2.458  13.484  19.217  0.00  0.00    +0.000 A 
ATOM     22  C   UNL     1       1.644  13.422  20.347  0.00  0.00    +0.000 A 
ATOM     23  C   UNL     1       1.474  14.550  21.160  0.00  0.00    +0.000 A 
ATOM     24  C   UNL     1       1.912  15.800  20.732  0.00  0.00    +0.000 A 
ATOM     25  C   UNL     1       2.521  15.895  19.477  0.00  0.00    +0.000 A 
BRANCH  20  27
ATOM     26  C   UNL     1       5.072  14.855  17.848  0.00  0.00    +0.000 C 
ATOM     27  O   UNL     1       3.664  14.905  17.651  0.00  0.00    +0.000 OA
ENDBRANCH  20  27
BRANCH  24  28
ATOM     28  O   UNL     1       1.518  16.828  21.542  0.00  0.00    +0.000 OA
ATOM     29  C   UNL     1       1.525  16.613  22.948  0.00  0.00    +0.000 C 
ENDBRANCH  24  28
BRANCH  25  30
ATOM     30  O   UNL     1       2.645  17.133  18.891  0.00  0.00    +0.000 OA
ATOM     31  C   UNL     1       1.480  17.480  18.136  0.00  0.00    +0.000 C 
ENDBRANCH  25  30
ENDBRANCH  18  22
ENDBRANCH   1  18
TORSDOF 7
ENDMDL
MODEL 6
REMARK VINA RESULT:      -6.8      6.272      9.885
REMARK  Name = 
REMARK  11 active torsions:
REMARK  status: ('A' for Active; 'I' for Inactive)
REMARK    1  A    between atoms: C_1  and  O_2
REMARK    2  A    between atoms: O_2  and  C_3
REMARK    3  A    between atoms: C_5  and  C_6
REMARK    4  A    between atoms: C_6  and  C_8
REMARK    5  A    between atoms: C_16  and  C_17
REMARK    6  A    between atoms: C_20  and  S_21
REMARK    7  A    between atoms: S_21  and  C_22
REMARK    8  A    between atoms: C_26  and  O_27
REMARK    9  A    between atoms: O_27  and  C_28
REMARK   10  A    between atoms: C_29  and  O_30
REMARK   11  A    between atoms: O_30  and  C_31
REMARK                            x       y       z     vdW  Elec       q    Type
REMARK                         _______ _______ _______ _____ _____    ______ ____
ROOT
ATOM      1  C   UNL     1      -0.505  12.548  18.956  0.00  0.00    +0.000 A 
ATOM      2  S   UNL     1      -0.568  14.256  19.029  0.00  0.00    +0.000 S 
ATOM      3  C   UNL     1       1.096  14.432  18.742  0.00  0.00    +0.000 A 
ATOM      4  C   UNL     1       1.755  15.678  18.637  0.00  0.00    +0.000 A 
ATOM      5  C   UNL     1       3.107  15.701  18.339  0.00  0.00    +0.000 A 
ATOM      6  C   UNL     1       3.793  14.513  18.177  0.00  0.00    +0.000 A 
ATOM      7  C   UNL     1       3.142  13.271  18.349  0.00  0.00    +0.000 A 
ATOM      8  C   UNL     1       1.746  13.195  18.640  0.00  0.00    +0.000 A 
ATOM      9  C   UNL     1       0.816  12.067  18.900  0.00  0.00    +0.000 A 
ENDROOT
BRANCH   9  10
ATOM     10  C   UNL     1       1.154  10.622  19.103  0.00  0.00    +0.000 A 
ATOM     11  C   UNL     1       1.700   9.852  18.057  0.00  0.00    +0.000 A 
ATOM     12  C   UNL     1       2.100   8.505  18.227  0.00  0.00    +0.000 A 
ATOM     13  C   UNL     1       1.906   7.853  19.439  0.00  0.00    +0.000 A 
ATOM     14  C   UNL     1       1.302   8.588  20.471  0.00  0.00    +0.000 A 
ATOM     15  C   UNL     1       0.943   9.948  20.311  0.00  0.00    +0.000 A 
BRANCH  13  16
ATOM     16  S   UNL     1       2.370   6.160  19.800  0.00  0.00    +0.000 S 
ATOM     17  C   UNL     1       3.851   5.832  18.789  0.00  0.00    +0.000 C 
ENDBRANCH  13  16
ENDBRANCH   9  10
BRANCH   1  18
ATOM     18  C   UNL     1      -1.831  11.931  19.027  0.00  0.00    +0.000 C 
ATOM     19  O   UNL     1      -2.182  11.005  18.293  0.00  0.00    +0.000 OA
BRANCH  18  22
ATOM     20  C   UNL     1      -5.119  12.538  20.746  0.00  0.00    +0.000 A 
ATOM     21  C   UNL     1      -4.207  12.411  19.702  0.00  0.00    +0.000 A 
ATOM     22  C   UNL     1      -2.845  12.407  19.997  0.00  0.00    +0.000 A 
ATOM     23  C   UNL     1      -2.396  12.767  21.274  0.00  0.00    +0.000 A 
ATOM     24  C   UNL     1      -3.297  12.901  22.327  0.00  0.00    +0.000 A 
ATOM     25  C   UNL     1      -4.652  12.667  22.073  0.00  0.00    +0.000 A 
BRANCH  20  27
ATOM     26  C   UNL     1      -7.029  11.258  20.181  0.00  0.00    +0.000 C 
ATOM     27  O   UNL     1      -6.479  12.511  20.570  0.00  0.00    +0.000 OA
ENDBRANCH  20  27
BRANCH  24  28
ATOM     28  O   UNL     1      -2.700  13.076  23.543  0.00  0.00    +0.000 OA
ATOM     29  C   UNL     1      -1.437  13.729  23.582  0.00  0.00    +0.000 C 
ENDBRANCH  24  28
BRANCH  25  30
ATOM     30  O   UNL     1      -5.500  12.454  23.135  0.00  0.00    +0.000 OA
ATOM     31  C   UNL     1      -5.989  13.684  23.677  0.00  0.00    +0.000 C 
ENDBRANCH  25  30
ENDBRANCH  18  22
ENDBRANCH   1  18
TORSDOF 7
ENDMDL
MODEL 7
REMARK VINA RESULT:      -6.7      4.735      7.186
REMARK  Name = 
REMARK  11 active torsions:
REMARK  status: ('A' for Active; 'I' for Inactive)
REMARK    1  A    between atoms: C_1  and  O_2
REMARK    2  A    between atoms: O_2  and  C_3
REMARK    3  A    between atoms: C_5  and  C_6
REMARK    4  A    between atoms: C_6  and  C_8
REMARK    5  A    between atoms: C_16  and  C_17
REMARK    6  A    between atoms: C_20  and  S_21
REMARK    7  A    between atoms: S_21  and  C_22
REMARK    8  A    between atoms: C_26  and  O_27
REMARK    9  A    between atoms: O_27  and  C_28
REMARK   10  A    between atoms: C_29  and  O_30
REMARK   11  A    between atoms: O_30  and  C_31
REMARK                            x       y       z     vdW  Elec       q    Type
REMARK                         _______ _______ _______ _____ _____    ______ ____
ROOT
ATOM      1  C   UNL     1       2.736   6.982  18.717  0.00  0.00    +0.000 A 
ATOM      2  S   UNL     1       3.818   5.750  18.230  0.00  0.00    +0.000 S 
ATOM      3  C   UNL     1       3.315   4.683  19.451  0.00  0.00    +0.000 A 
ATOM      4  C   UNL     1       3.818   3.373  19.616  0.00  0.00    +0.000 A 
ATOM      5  C   UNL     1       3.289   2.569  20.612  0.00  0.00    +0.000 A 
ATOM      6  C   UNL     1       2.301   3.066  21.440  0.00  0.00    +0.000 A 
ATOM      7  C   UNL     1       1.850   4.398  21.311  0.00  0.00    +0.000 A 
ATOM      8  C   UNL     1       2.353   5.261  20.290  0.00  0.00    +0.000 A 
ATOM      9  C   UNL     1       2.101   6.680  19.936  0.00  0.00    +0.000 A 
ENDROOT
BRANCH   9  10
ATOM     10  C   UNL     1       1.324   7.700  20.711  0.00  0.00    +0.000 A 
ATOM     11  C   UNL     1      -0.083   7.641  20.777  0.00  0.00    +0.000 A 
ATOM     12  C   UNL     1      -0.849   8.540  21.556  0.00  0.00    +0.000 A 
ATOM     13  C   UNL     1      -0.240   9.580  22.248  0.00  0.00    +0.000 A 
ATOM     14  C   UNL     1       1.154   9.691  22.139  0.00  0.00    +0.000 A 
ATOM     15  C   UNL     1       1.924   8.764  21.394  0.00  0.00    +0.000 A 
BRANCH  13  16
ATOM     16  S   UNL     1      -1.080  10.784  23.278  0.00  0.00    +0.000 S 
ATOM     17  C   UNL     1      -0.716  12.406  22.529  0.00  0.00    +0.000 C 
ENDBRANCH  13  16
ENDBRANCH   9  10
BRANCH   1  18
ATOM     18  C   UNL     1       2.732   8.124  17.801  0.00  0.00    +0.000 C 
ATOM     19  O   UNL     1       3.582   8.287  16.924  0.00  0.00    +0.000 OA
BRANCH  18  22
ATOM     20  C   UNL     1      -0.618   9.827  17.936  0.00  0.00    +0.000 A 
ATOM     21  C   UNL     1       0.367   8.937  17.516  0.00  0.00    +0.000 A 
ATOM     22  C   UNL     1       1.689   9.173  17.891  0.00  0.00    +0.000 A 
ATOM     23  C   UNL     1       2.055  10.398  18.464  0.00  0.00    +0.000 A 
ATOM     24  C   UNL     1       1.080  11.300  18.885  0.00  0.00    +0.000 A 
ATOM     25  C   UNL     1      -0.263  10.947  18.720  0.00  0.00    +0.000 A 
BRANCH  20  27
ATOM     26  C   UNL     1      -2.379  10.122  16.382  0.00  0.00    +0.000 C 
ATOM     27  O   UNL     1      -1.951   9.665  17.659  0.00  0.00    +0.000 OA
ENDBRANCH  20  27
BRANCH  24  28
ATOM     28  O   UNL     1       1.578  12.362  19.584  0.00  0.00    +0.000 OA
ATOM     29  C   UNL     1       2.410  13.288  18.893  0.00  0.00    +0.000 C 
ENDBRANCH  24  28
BRANCH  25  30
ATOM     30  O   UNL     1      -1.221  11.638  19.423  0.00  0.00    +0.000 OA
ATOM     31  C   UNL     1      -1.481  12.921  18.843  0.00  0.00    +0.000 C 
ENDBRANCH  25  30
ENDBRANCH  18  22
ENDBRANCH   1  18
TORSDOF 7
ENDMDL
MODEL 8
REMARK VINA RESULT:      -6.7      6.482     10.145
REMARK  Name = 
REMARK  11 active torsions:
REMARK  status: ('A' for Active; 'I' for Inactive)
REMARK    1  A    between atoms: C_1  and  O_2
REMARK    2  A    between atoms: O_2  and  C_3
REMARK    3  A    between atoms: C_5  and  C_6
REMARK    4  A    between atoms: C_6  and  C_8
REMARK    5  A    between atoms: C_16  and  C_17
REMARK    6  A    between atoms: C_20  and  S_21
REMARK    7  A    between atoms: S_21  and  C_22
REMARK    8  A    between atoms: C_26  and  O_27
REMARK    9  A    between atoms: O_27  and  C_28
REMARK   10  A    between atoms: C_29  and  O_30
REMARK   11  A    between atoms: O_30  and  C_31
REMARK                            x       y       z     vdW  Elec       q    Type
REMARK                         _______ _______ _______ _____ _____    ______ ____
ROOT
ATOM      1  C   UNL     1      -0.559  13.039  20.033  0.00  0.00    +0.000 A 
ATOM      2  S   UNL     1      -0.552  14.749  20.062  0.00  0.00    +0.000 S 
ATOM      3  C   UNL     1       0.934  14.859  19.248  0.00  0.00    +0.000 A 
ATOM      4  C   UNL     1       1.554  16.078  18.892  0.00  0.00    +0.000 A 
ATOM      5  C   UNL     1       2.738  16.047  18.173  0.00  0.00    +0.000 A 
ATOM      6  C   UNL     1       3.304  14.831  17.840  0.00  0.00    +0.000 A 
ATOM      7  C   UNL     1       2.712  13.618  18.256  0.00  0.00    +0.000 A 
ATOM      8  C   UNL     1       1.484  13.598  18.985  0.00  0.00    +0.000 A 
ATOM      9  C   UNL     1       0.660  12.511  19.570  0.00  0.00    +0.000 A 
ENDROOT
BRANCH   9  10
ATOM     10  C   UNL     1       1.009  11.059  19.703  0.00  0.00    +0.000 A 
ATOM     11  C   UNL     1       0.972  10.419  20.958  0.00  0.00    +0.000 A 
ATOM     12  C   UNL     1       1.224   9.036  21.118  0.00  0.00    +0.000 A 
ATOM     13  C   UNL     1       1.589   8.249  20.031  0.00  0.00    +0.000 A 
ATOM     14  C   UNL     1       1.694   8.887  18.786  0.00  0.00    +0.000 A 
ATOM     15  C   UNL     1       1.400  10.262  18.622  0.00  0.00    +0.000 A 
BRANCH  13  16
ATOM     16  S   UNL     1       1.928   6.489  20.082  0.00  0.00    +0.000 S 
ATOM     17  C   UNL     1       2.506   6.055  18.408  0.00  0.00    +0.000 C 
ENDBRANCH  13  16
ENDBRANCH   9  10
BRANCH   1  18
ATOM     18  C   UNL     1      -1.806  12.471  20.548  0.00  0.00    +0.000 C 
ATOM     19  O   UNL     1      -1.943  12.093  21.714  0.00  0.00    +0.000 OA
BRANCH  18  22
ATOM     20  C   UNL     1      -4.145  11.160  17.912  0.00  0.00    +0.000 A 
ATOM     21  C   UNL     1      -2.947  11.558  18.499  0.00  0.00    +0.000 A 
ATOM     22  C   UNL     1      -2.991  12.307  19.673  0.00  0.00    +0.000 A 
ATOM     23  C   UNL     1      -4.201  12.857  20.118  0.00  0.00    +0.000 A 
ATOM     24  C   UNL     1      -5.407  12.471  19.537  0.00  0.00    +0.000 A 
ATOM     25  C   UNL     1      -5.373  11.527  18.506  0.00  0.00    +0.000 A 
BRANCH  20  27
ATOM     26  C   UNL     1      -3.631  10.947  15.611  0.00  0.00    +0.000 C 
ATOM     27  O   UNL     1      -4.213  10.386  16.781  0.00  0.00    +0.000 OA
ENDBRANCH  20  27
BRANCH  24  28
ATOM     28  O   UNL     1      -6.509  12.947  20.189  0.00  0.00    +0.000 OA
ATOM     29  C   UNL     1      -7.119  14.134  19.694  0.00  0.00    +0.000 C 
ENDBRANCH  24  28
BRANCH  25  30
ATOM     30  O   UNL     1      -6.536  10.882  18.158  0.00  0.00    +0.000 OA
ATOM     31  C   UNL     1      -6.864   9.844  19.087  0.00  0.00    +0.000 C 
ENDBRANCH  25  30
ENDBRANCH  18  22
ENDBRANCH   1  18
TORSDOF 7
ENDMDL
MODEL 9
REMARK VINA RESULT:      -6.7      2.935      6.036
REMARK  Name = 
REMARK  11 active torsions:
REMARK  status: ('A' for Active; 'I' for Inactive)
REMARK    1  A    between atoms: C_1  and  O_2
REMARK    2  A    between atoms: O_2  and  C_3
REMARK    3  A    between atoms: C_5  and  C_6
REMARK    4  A    between atoms: C_6  and  C_8
REMARK    5  A    between atoms: C_16  and  C_17
REMARK    6  A    between atoms: C_20  and  S_21
REMARK    7  A    between atoms: S_21  and  C_22
REMARK    8  A    between atoms: C_26  and  O_27
REMARK    9  A    between atoms: O_27  and  C_28
REMARK   10  A    between atoms: C_29  and  O_30
REMARK   11  A    between atoms: O_30  and  C_31
REMARK                            x       y       z     vdW  Elec       q    Type
REMARK                         _______ _______ _______ _____ _____    ______ ____
ROOT
ATOM      1  C   UNL     1       2.586   6.248  19.062  0.00  0.00    +0.000 A 
ATOM      2  S   UNL     1       1.377   5.881  20.214  0.00  0.00    +0.000 S 
ATOM      3  C   UNL     1       2.061   4.378  20.606  0.00  0.00    +0.000 A 
ATOM      4  C   UNL     1       1.542   3.502  21.587  0.00  0.00    +0.000 A 
ATOM      5  C   UNL     1       2.220   2.327  21.866  0.00  0.00    +0.000 A 
ATOM      6  C   UNL     1       3.371   2.018  21.168  0.00  0.00    +0.000 A 
ATOM      7  C   UNL     1       3.847   2.866  20.143  0.00  0.00    +0.000 A 
ATOM      8  C   UNL     1       3.193   4.097  19.830  0.00  0.00    +0.000 A 
ATOM      9  C   UNL     1       3.433   5.152  18.813  0.00  0.00    +0.000 A 
ENDROOT
BRANCH   9  10
ATOM     10  C   UNL     1       4.391   5.122  17.661  0.00  0.00    +0.000 A 
ATOM     11  C   UNL     1       4.241   4.184  16.621  0.00  0.00    +0.000 A 
ATOM     12  C   UNL     1       5.080   4.167  15.481  0.00  0.00    +0.000 A 
ATOM     13  C   UNL     1       6.147   5.051  15.370  0.00  0.00    +0.000 A 
ATOM     14  C   UNL     1       6.348   5.948  16.430  0.00  0.00    +0.000 A 
ATOM     15  C   UNL     1       5.482   5.991  17.549  0.00  0.00    +0.000 A 
BRANCH  13  16
ATOM     16  S   UNL     1       7.281   5.151  13.985  0.00  0.00    +0.000 S 
ATOM     17  C   UNL     1       6.683   3.925  12.774  0.00  0.00    +0.000 C 
ENDBRANCH  13  16
ENDBRANCH   9  10
BRANCH   1  18
ATOM     18  C   UNL     1       2.462   7.604  18.525  0.00  0.00    +0.000 C 
ATOM     19  O   UNL     1       2.935   7.945  17.439  0.00  0.00    +0.000 OA
BRANCH  18  22
ATOM     20  C   UNL     1       1.147   9.697  21.359  0.00  0.00    +0.000 A 
ATOM     21  C   UNL     1       1.496   8.552  20.646  0.00  0.00    +0.000 A 
ATOM     22  C   UNL     1       1.754   8.664  19.282  0.00  0.00    +0.000 A 
ATOM     23  C   UNL     1       1.434   9.842  18.594  0.00  0.00    +0.000 A 
ATOM     24  C   UNL     1       1.079  10.993  19.293  0.00  0.00    +0.000 A 
ATOM     25  C   UNL     1       1.053  10.937  20.690  0.00  0.00    +0.000 A 
BRANCH  20  27
ATOM     26  C   UNL     1      -0.424   9.435  23.110  0.00  0.00    +0.000 C 
ATOM     27  O   UNL     1       0.914   9.704  22.710  0.00  0.00    +0.000 OA
ENDBRANCH  20  27
BRANCH  24  28
ATOM     28  O   UNL     1       0.971  12.104  18.506  0.00  0.00    +0.000 OA
ATOM     29  C   UNL     1       2.158  12.830  18.208  0.00  0.00    +0.000 C 
ENDBRANCH  24  28
BRANCH  25  30
ATOM     30  O   UNL     1       1.049  12.114  21.401  0.00  0.00    +0.000 OA
ATOM     31  C   UNL     1      -0.262  12.682  21.477  0.00  0.00    +0.000 C 
ENDBRANCH  25  30
ENDBRANCH  18  22
ENDBRANCH   1  18
TORSDOF 7
ENDMDL
