MODEL 1
REMARK VINA RESULT:      -8.2      0.000      0.000
REMARK  Name = 
REMARK  8 active torsions:
REMARK  status: ('A' for Active; 'I' for Inactive)
REMARK    1  A    between atoms: C_1  and  N_2
REMARK    2  A    between atoms: N_2  and  C_3
REMARK    3  A    between atoms: N_2  and  C_4
REMARK    4  A    between atoms: C_4  and  C_5
REMARK    5  A    between atoms: C_5  and  O_6
REMARK    6  A    between atoms: O_6  and  C_7
REMARK    7  A    between atoms: C_10  and  N_11
REMARK    8  A    between atoms: N_14  and  C_15
REMARK                            x       y       z     vdW  Elec       q    Type
REMARK                         _______ _______ _______ _____ _____    ______ ____
ROOT
ATOM      1  N   UNL     1       2.534   8.310  17.679  0.00  0.00    +0.000 N 
ATOM      2  C   UNL     1       1.681   9.073  18.457  0.00  0.00    +0.000 C 
ATOM      3  O   UNL     1       1.454   8.855  19.648  0.00  0.00    +0.000 OA
ATOM      4  N   UNL     1       1.089  10.115  17.761  0.00  0.00    +0.000 N 
ATOM      5  H   UNL     1       2.908   8.750  16.858  0.00  0.00    +0.000 HD
ATOM      6  H   UNL     1       0.912   9.919  16.789  0.00  0.00    +0.000 HD
ENDROOT
BRANCH   4   7
ATOM      7  C   UNL     1       0.123  10.916  18.449  0.00  0.00    +0.000 A 
ATOM      8  C   UNL     1       0.560  11.719  19.504  0.00  0.00    +0.000 A 
ATOM      9  C   UNL     1      -0.374  12.422  20.224  0.00  0.00    +0.000 A 
ATOM     10  N   UNL     1      -1.691  12.392  19.953  0.00  0.00    +0.000 NA
ATOM     11  C   UNL     1      -2.142  11.606  18.952  0.00  0.00    +0.000 A 
ATOM     12  C   UNL     1      -3.518  11.488  18.711  0.00  0.00    +0.000 A 
ATOM     13 BR   UNL     1      -4.779  12.492  19.731  0.00  0.00    +0.000 Br
ATOM     14  C   UNL     1      -4.037  10.621  17.744  0.00  0.00    +0.000 A 
ATOM     15  C   UNL     1      -3.175   9.866  16.967  0.00  0.00    +0.000 A 
ATOM     16  C   UNL     1      -1.800   9.985  17.154  0.00  0.00    +0.000 A 
ATOM     17  C   UNL     1      -1.260  10.840  18.146  0.00  0.00    +0.000 A 
ENDBRANCH   4   7
BRANCH   1  21
ATOM     18  C   UNL     1       4.527   4.789  19.014  0.00  0.00    +0.000 A 
ATOM     19  C   UNL     1       3.462   5.321  19.746  0.00  0.00    +0.000 A 
ATOM     20  C   UNL     1       2.787   6.465  19.313  0.00  0.00    +0.000 A 
ATOM     21  C   UNL     1       3.165   7.125  18.140  0.00  0.00    +0.000 A 
ATOM     22  C   UNL     1       4.191   6.569  17.374  0.00  0.00    +0.000 A 
ATOM     23  C   UNL     1       4.850   5.395  17.790  0.00  0.00    +0.000 A 
ATOM     24 CL   UNL     1       5.982   4.758  16.643  0.00  0.00    +0.000 Cl
BRANCH  18  25
ATOM     25  O   UNL     1       5.099   3.696  19.618  0.00  0.00    +0.000 OA
BRANCH  25  26
ATOM     26  C   UNL     1       4.226   2.592  19.873  0.00  0.00    +0.000 C 
BRANCH  26  27
ATOM     27  C   UNL     1       3.851   1.861  18.572  0.00  0.00    +0.000 C 
BRANCH  27  29
ATOM     28  C   UNL     1       1.617   2.183  19.432  0.00  0.00    +0.000 C 
ATOM     29  N   UNL     1       2.418   1.993  18.222  0.00  0.00    +0.000 NA
ATOM     30  C   UNL     1       2.165   3.093  17.288  0.00  0.00    +0.000 C 
ENDBRANCH  27  29
ENDBRANCH  26  27
ENDBRANCH  25  26
ENDBRANCH  18  25
ENDBRANCH   1  21
TORSDOF 6
ENDMDL
MODEL 2
REMARK VINA RESULT:      -7.8      6.364      8.264
REMARK  Name = 
REMARK  8 active torsions:
REMARK  status: ('A' for Active; 'I' for Inactive)
REMARK    1  A    between atoms: C_1  and  N_2
REMARK    2  A    between atoms: N_2  and  C_3
REMARK    3  A    between atoms: N_2  and  C_4
REMARK    4  A    between atoms: C_4  and  C_5
REMARK    5  A    between atoms: C_5  and  O_6
REMARK    6  A    between atoms: O_6  and  C_7
REMARK    7  A    between atoms: C_10  and  N_11
REMARK    8  A    between atoms: N_14  and  C_15
REMARK                            x       y       z     vdW  Elec       q    Type
REMARK                         _______ _______ _______ _____ _____    ______ ____
ROOT
ATOM      1  N   UNL     1       8.408   7.305  18.906  0.00  0.00    +0.000 N 
ATOM      2  C   UNL     1       8.395   8.666  18.656  0.00  0.00    +0.000 C 
ATOM      3  O   UNL     1       7.533   9.236  17.985  0.00  0.00    +0.000 OA
ATOM      4  N   UNL     1       9.463   9.339  19.230  0.00  0.00    +0.000 N 
ATOM      5  H   UNL     1       8.924   7.001  19.710  0.00  0.00    +0.000 HD
ATOM      6  H   UNL     1      10.312   8.803  19.283  0.00  0.00    +0.000 HD
ENDROOT
BRANCH   4   7
ATOM      7  C   UNL     1       9.592  10.740  18.963  0.00  0.00    +0.000 A 
ATOM      8  C   UNL     1      10.037  11.134  17.701  0.00  0.00    +0.000 A 
ATOM      9  C   UNL     1      10.247  12.471  17.467  0.00  0.00    +0.000 A 
ATOM     10  N   UNL     1      10.026  13.425  18.389  0.00  0.00    +0.000 NA
ATOM     11  C   UNL     1       9.616  13.068  19.625  0.00  0.00    +0.000 A 
ATOM     12  C   UNL     1       9.469  14.036  20.628  0.00  0.00    +0.000 A 
ATOM     13 BR   UNL     1       9.761  15.883  20.255  0.00  0.00    +0.000 Br
ATOM     14  C   UNL     1       9.131  13.705  21.944  0.00  0.00    +0.000 A 
ATOM     15  C   UNL     1       8.901  12.381  22.280  0.00  0.00    +0.000 A 
ATOM     16  C   UNL     1       9.004  11.396  21.300  0.00  0.00    +0.000 A 
ATOM     17  C   UNL     1       9.370  11.713  19.969  0.00  0.00    +0.000 A 
ENDBRANCH   4   7
BRANCH   1  21
ATOM     18  C   UNL     1       5.717   4.540  17.098  0.00  0.00    +0.000 A 
ATOM     19  C   UNL     1       5.614   4.842  18.459  0.00  0.00    +0.000 A 
ATOM     20  C   UNL     1       6.478   5.760  19.064  0.00  0.00    +0.000 A 
ATOM     21  C   UNL     1       7.484   6.395  18.329  0.00  0.00    +0.000 A 
ATOM     22  C   UNL     1       7.558   6.141  16.959  0.00  0.00    +0.000 A 
ATOM     23  C   UNL     1       6.666   5.243  16.339  0.00  0.00    +0.000 A 
ATOM     24 CL   UNL     1       6.796   5.171  14.613  0.00  0.00    +0.000 Cl
BRANCH  18  25
ATOM     25  O   UNL     1       4.820   3.582  16.694  0.00  0.00    +0.000 OA
BRANCH  25  26
ATOM     26  C   UNL     1       4.068   2.949  17.734  0.00  0.00    +0.000 C 
BRANCH  26  27
ATOM     27  C   UNL     1       2.565   2.928  17.408  0.00  0.00    +0.000 C 
BRANCH  27  29
ATOM     28  C   UNL     1       2.055   3.521  19.693  0.00  0.00    +0.000 C 
ATOM     29  N   UNL     1       1.766   3.810  18.287  0.00  0.00    +0.000 NA
ATOM     30  C   UNL     1       1.999   5.232  18.021  0.00  0.00    +0.000 C 
ENDBRANCH  27  29
ENDBRANCH  26  27
ENDBRANCH  25  26
ENDBRANCH  18  25
ENDBRANCH   1  21
TORSDOF 6
ENDMDL
MODEL 3
REMARK VINA RESULT:      -7.7      1.298      2.612
REMARK  Name = 
REMARK  8 active torsions:
REMARK  status: ('A' for Active; 'I' for Inactive)
REMARK    1  A    between atoms: C_1  and  N_2
REMARK    2  A    between atoms: N_2  and  C_3
REMARK    3  A    between atoms: N_2  and  C_4
REMARK    4  A    between atoms: C_4  and  C_5
REMARK    5  A    between atoms: C_5  and  O_6
REMARK    6  A    between atoms: O_6  and  C_7
REMARK    7  A    between atoms: C_10  and  N_11
REMARK    8  A    between atoms: N_14  and  C_15
REMARK                            x       y       z     vdW  Elec       q    Type
REMARK                         _______ _______ _______ _____ _____    ______ ____
ROOT
ATOM      1  N   UNL     1       2.752   8.231  17.581  0.00  0.00    +0.000 N 
ATOM      2  C   UNL     1       1.856   8.960  18.342  0.00  0.00    +0.000 C 
ATOM      3  O   UNL     1       1.544   8.676  19.499  0.00  0.00    +0.000 OA
ATOM      4  N   UNL     1       1.327  10.052  17.671  0.00  0.00    +0.000 N 
ATOM      5  H   UNL     1       3.188   8.713  16.815  0.00  0.00    +0.000 HD
ATOM      6  H   UNL     1       1.217   9.917  16.680  0.00  0.00    +0.000 HD
ENDROOT
BRANCH   4   7
ATOM      7  C   UNL     1       0.325  10.827  18.339  0.00  0.00    +0.000 A 
ATOM      8  C   UNL     1      -0.998  10.391  18.275  0.00  0.00    +0.000 A 
ATOM      9  C   UNL     1      -1.974  11.175  18.839  0.00  0.00    +0.000 A 
ATOM     10  N   UNL     1      -1.718  12.336  19.468  0.00  0.00    +0.000 NA
ATOM     11  C   UNL     1      -0.447  12.791  19.524  0.00  0.00    +0.000 A 
ATOM     12  C   UNL     1      -0.168  14.041  20.092  0.00  0.00    +0.000 A 
ATOM     13 BR   UNL     1      -1.555  15.092  20.874  0.00  0.00    +0.000 Br
ATOM     14  C   UNL     1       1.117  14.592  20.096  0.00  0.00    +0.000 A 
ATOM     15  C   UNL     1       2.170  13.878  19.548  0.00  0.00    +0.000 A 
ATOM     16  C   UNL     1       1.935  12.616  19.006  0.00  0.00    +0.000 A 
ATOM     17  C   UNL     1       0.635  12.056  18.973  0.00  0.00    +0.000 A 
ENDBRANCH   4   7
BRANCH   1  21
ATOM     18  C   UNL     1       4.590   4.587  18.804  0.00  0.00    +0.000 A 
ATOM     19  C   UNL     1       3.762   5.292  19.681  0.00  0.00    +0.000 A 
ATOM     20  C   UNL     1       3.138   6.480  19.290  0.00  0.00    +0.000 A 
ATOM     21  C   UNL     1       3.335   7.010  18.011  0.00  0.00    +0.000 A 
ATOM     22  C   UNL     1       4.115   6.284  17.111  0.00  0.00    +0.000 A 
ATOM     23  C   UNL     1       4.717   5.068  17.491  0.00  0.00    +0.000 A 
ATOM     24 CL   UNL     1       5.514   4.223  16.205  0.00  0.00    +0.000 Cl
BRANCH  18  25
ATOM     25  O   UNL     1       5.155   3.474  19.378  0.00  0.00    +0.000 OA
BRANCH  25  26
ATOM     26  C   UNL     1       4.245   2.555  19.989  0.00  0.00    +0.000 C 
BRANCH  26  27
ATOM     27  C   UNL     1       3.335   1.887  18.945  0.00  0.00    +0.000 C 
BRANCH  27  29
ATOM     28  C   UNL     1       1.705   2.446  20.637  0.00  0.00    +0.000 C 
ATOM     29  N   UNL     1       1.893   2.046  19.241  0.00  0.00    +0.000 NA
ATOM     30  C   UNL     1       1.240   3.017  18.360  0.00  0.00    +0.000 C 
ENDBRANCH  27  29
ENDBRANCH  26  27
ENDBRANCH  25  26
ENDBRANCH  18  25
ENDBRANCH   1  21
TORSDOF 6
ENDMDL
MODEL 4
REMARK VINA RESULT:      -7.6      6.616      8.468
REMARK  Name = 
REMARK  8 active torsions:
REMARK  status: ('A' for Active; 'I' for Inactive)
REMARK    1  A    between atoms: C_1  and  N_2
REMARK    2  A    between atoms: N_2  and  C_3
REMARK    3  A    between atoms: N_2  and  C_4
REMARK    4  A    between atoms: C_4  and  C_5
REMARK    5  A    between atoms: C_5  and  O_6
REMARK    6  A    between atoms: O_6  and  C_7
REMARK    7  A    between atoms: C_10  and  N_11
REMARK    8  A    between atoms: N_14  and  C_15
REMARK                            x       y       z     vdW  Elec       q    Type
REMARK                         _______ _______ _______ _____ _____    ______ ____
ROOT
ATOM      1  N   UNL     1       8.603   7.709  18.983  0.00  0.00    +0.000 N 
ATOM      2  C   UNL     1       8.604   9.058  18.674  0.00  0.00    +0.000 C 
ATOM      3  O   UNL     1       7.803   9.589  17.903  0.00  0.00    +0.000 OA
ATOM      4  N   UNL     1       9.608   9.767  19.314  0.00  0.00    +0.000 N 
ATOM      5  H   UNL     1       9.046   7.445  19.844  0.00  0.00    +0.000 HD
ATOM      6  H   UNL     1      10.454   9.243  19.468  0.00  0.00    +0.000 HD
ENDROOT
BRANCH   4   7
ATOM      7  C   UNL     1       9.752  11.157  19.000  0.00  0.00    +0.000 A 
ATOM      8  C   UNL     1      10.223  11.502  17.733  0.00  0.00    +0.000 A 
ATOM      9  C   UNL     1      10.445  12.829  17.456  0.00  0.00    +0.000 A 
ATOM     10  N   UNL     1      10.213  13.817  18.338  0.00  0.00    +0.000 NA
ATOM     11  C   UNL     1       9.777  13.506  19.578  0.00  0.00    +0.000 A 
ATOM     12  C   UNL     1       9.617  14.511  20.543  0.00  0.00    +0.000 A 
ATOM     13 BR   UNL     1       9.927  16.342  20.109  0.00  0.00    +0.000 Br
ATOM     14  C   UNL     1       9.253  14.229  21.864  0.00  0.00    +0.000 A 
ATOM     15  C   UNL     1       9.009  12.920  22.242  0.00  0.00    +0.000 A 
ATOM     16  C   UNL     1       9.123  11.900  21.300  0.00  0.00    +0.000 A 
ATOM     17  C   UNL     1       9.516  12.167  19.966  0.00  0.00    +0.000 A 
ENDBRANCH   4   7
BRANCH   1  21
ATOM     18  C   UNL     1       6.033   4.932  17.025  0.00  0.00    +0.000 A 
ATOM     19  C   UNL     1       6.837   4.522  18.092  0.00  0.00    +0.000 A 
ATOM     20  C   UNL     1       7.673   5.424  18.756  0.00  0.00    +0.000 A 
ATOM     21  C   UNL     1       7.744   6.764  18.364  0.00  0.00    +0.000 A 
ATOM     22  C   UNL     1       6.904   7.194  17.335  0.00  0.00    +0.000 A 
ATOM     23  C   UNL     1       6.034   6.295  16.687  0.00  0.00    +0.000 A 
ATOM     24 CL   UNL     1       4.953   7.028  15.549  0.00  0.00    +0.000 Cl
BRANCH  18  25
ATOM     25  O   UNL     1       5.320   3.900  16.465  0.00  0.00    +0.000 OA
BRANCH  25  26
ATOM     26  C   UNL     1       4.359   3.269  17.316  0.00  0.00    +0.000 C 
BRANCH  26  27
ATOM     27  C   UNL     1       2.999   3.985  17.255  0.00  0.00    +0.000 C 
BRANCH  27  29
ATOM     28  C   UNL     1       1.317   3.298  18.847  0.00  0.00    +0.000 C 
ATOM     29  N   UNL     1       2.412   4.236  18.592  0.00  0.00    +0.000 NA
ATOM     30  C   UNL     1       3.402   4.139  19.668  0.00  0.00    +0.000 C 
ENDBRANCH  27  29
ENDBRANCH  26  27
ENDBRANCH  25  26
ENDBRANCH  18  25
ENDBRANCH   1  21
TORSDOF 6
ENDMDL
MODEL 5
REMARK VINA RESULT:      -7.6      0.925      1.063
REMARK  Name = 
REMARK  8 active torsions:
REMARK  status: ('A' for Active; 'I' for Inactive)
REMARK    1  A    between atoms: C_1  and  N_2
REMARK    2  A    between atoms: N_2  and  C_3
REMARK    3  A    between atoms: N_2  and  C_4
REMARK    4  A    between atoms: C_4  and  C_5
REMARK    5  A    between atoms: C_5  and  O_6
REMARK    6  A    between atoms: O_6  and  C_7
REMARK    7  A    between atoms: C_10  and  N_11
REMARK    8  A    between atoms: N_14  and  C_15
REMARK                            x       y       z     vdW  Elec       q    Type
REMARK                         _______ _______ _______ _____ _____    ______ ____
ROOT
ATOM      1  N   UNL     1       2.397   8.852  17.533  0.00  0.00    +0.000 N 
ATOM      2  C   UNL     1       1.490   9.446  18.393  0.00  0.00    +0.000 C 
ATOM      3  O   UNL     1       1.163   8.975  19.483  0.00  0.00    +0.000 OA
ATOM      4  N   UNL     1       0.968  10.634  17.905  0.00  0.00    +0.000 N 
ATOM      5  H   UNL     1       2.842   9.454  16.864  0.00  0.00    +0.000 HD
ATOM      6  H   UNL     1       0.870  10.665  16.903  0.00  0.00    +0.000 HD
ENDROOT
BRANCH   4   7
ATOM      7  C   UNL     1      -0.044  11.288  18.678  0.00  0.00    +0.000 A 
ATOM      8  C   UNL     1       0.338  11.931  19.856  0.00  0.00    +0.000 A 
ATOM      9  C   UNL     1      -0.640  12.484  20.646  0.00  0.00    +0.000 A 
ATOM     10  N   UNL     1      -1.947  12.456  20.333  0.00  0.00    +0.000 NA
ATOM     11  C   UNL     1      -2.344  11.821  19.209  0.00  0.00    +0.000 A 
ATOM     12  C   UNL     1      -3.708  11.698  18.910  0.00  0.00    +0.000 A 
ATOM     13 BR   UNL     1      -5.030  12.493  20.032  0.00  0.00    +0.000 Br
ATOM     14  C   UNL     1      -4.171  10.976  17.806  0.00  0.00    +0.000 A 
ATOM     15  C   UNL     1      -3.262  10.378  16.949  0.00  0.00    +0.000 A 
ATOM     16  C   UNL     1      -1.897  10.510  17.195  0.00  0.00    +0.000 A 
ATOM     17  C   UNL     1      -1.414  11.217  18.324  0.00  0.00    +0.000 A 
ENDBRANCH   4   7
BRANCH   1  21
ATOM     18  C   UNL     1       4.234   5.076  18.255  0.00  0.00    +0.000 A 
ATOM     19  C   UNL     1       2.861   5.245  18.453  0.00  0.00    +0.000 A 
ATOM     20  C   UNL     1       2.240   6.473  18.204  0.00  0.00    +0.000 A 
ATOM     21  C   UNL     1       2.976   7.577  17.764  0.00  0.00    +0.000 A 
ATOM     22  C   UNL     1       4.337   7.402  17.512  0.00  0.00    +0.000 A 
ATOM     23  C   UNL     1       4.960   6.156  17.727  0.00  0.00    +0.000 A 
ATOM     24 CL   UNL     1       6.611   6.075  17.211  0.00  0.00    +0.000 Cl
BRANCH  18  25
ATOM     25  O   UNL     1       4.674   3.821  18.600  0.00  0.00    +0.000 OA
BRANCH  25  26
ATOM     26  C   UNL     1       3.673   2.801  18.654  0.00  0.00    +0.000 C 
BRANCH  26  27
ATOM     27  C   UNL     1       3.311   2.444  20.105  0.00  0.00    +0.000 C 
BRANCH  27  29
ATOM     28  C   UNL     1       1.323   2.870  21.409  0.00  0.00    +0.000 C 
ATOM     29  N   UNL     1       1.879   2.115  20.285  0.00  0.00    +0.000 NA
ATOM     30  C   UNL     1       1.086   2.375  19.080  0.00  0.00    +0.000 C 
ENDBRANCH  27  29
ENDBRANCH  26  27
ENDBRANCH  25  26
ENDBRANCH  18  25
ENDBRANCH   1  21
TORSDOF 6
ENDMDL
MODEL 6
REMARK VINA RESULT:      -7.6      6.452      8.384
REMARK  Name = 
REMARK  8 active torsions:
REMARK  status: ('A' for Active; 'I' for Inactive)
REMARK    1  A    between atoms: C_1  and  N_2
REMARK    2  A    between atoms: N_2  and  C_3
REMARK    3  A    between atoms: N_2  and  C_4
REMARK    4  A    between atoms: C_4  and  C_5
REMARK    5  A    between atoms: C_5  and  O_6
REMARK    6  A    between atoms: O_6  and  C_7
REMARK    7  A    between atoms: C_10  and  N_11
REMARK    8  A    between atoms: N_14  and  C_15
REMARK                            x       y       z     vdW  Elec       q    Type
REMARK                         _______ _______ _______ _____ _____    ______ ____
ROOT
ATOM      1  N   UNL     1       8.439   7.415  18.922  0.00  0.00    +0.000 N 
ATOM      2  C   UNL     1       8.452   8.774  18.661  0.00  0.00    +0.000 C 
ATOM      3  O   UNL     1       7.639   9.345  17.934  0.00  0.00    +0.000 OA
ATOM      4  N   UNL     1       9.487   9.444  19.298  0.00  0.00    +0.000 N 
ATOM      5  H   UNL     1       8.901   7.113  19.760  0.00  0.00    +0.000 HD
ATOM      6  H   UNL     1      10.327   8.901  19.409  0.00  0.00    +0.000 HD
ENDROOT
BRANCH   4   7
ATOM      7  C   UNL     1       9.644  10.841  19.029  0.00  0.00    +0.000 A 
ATOM      8  C   UNL     1      10.121  11.223  17.775  0.00  0.00    +0.000 A 
ATOM      9  C   UNL     1      10.357  12.556  17.542  0.00  0.00    +0.000 A 
ATOM     10  N   UNL     1      10.133  13.517  18.455  0.00  0.00    +0.000 NA
ATOM     11  C   UNL     1       9.691  13.170  19.684  0.00  0.00    +0.000 A 
ATOM     12  C   UNL     1       9.539  14.144  20.681  0.00  0.00    +0.000 A 
ATOM     13 BR   UNL     1       9.867  15.986  20.308  0.00  0.00    +0.000 Br
ATOM     14  C   UNL     1       9.168  13.823  21.991  0.00  0.00    +0.000 A 
ATOM     15  C   UNL     1       8.911  12.505  22.326  0.00  0.00    +0.000 A 
ATOM     16  C   UNL     1       9.018  11.515  21.352  0.00  0.00    +0.000 A 
ATOM     17  C   UNL     1       9.416  11.822  20.027  0.00  0.00    +0.000 A 
ENDBRANCH   4   7
BRANCH   1  21
ATOM     18  C   UNL     1       5.689   4.697  17.130  0.00  0.00    +0.000 A 
ATOM     19  C   UNL     1       6.489   5.523  16.335  0.00  0.00    +0.000 A 
ATOM     20  C   UNL     1       7.408   6.408  16.907  0.00  0.00    +0.000 A 
ATOM     21  C   UNL     1       7.546   6.507  18.295  0.00  0.00    +0.000 A 
ATOM     22  C   UNL     1       6.792   5.647  19.094  0.00  0.00    +0.000 A 
ATOM     23  C   UNL     1       5.890   4.729  18.520  0.00  0.00    +0.000 A 
ATOM     24 CL   UNL     1       5.159   3.633  19.646  0.00  0.00    +0.000 Cl
BRANCH  18  25
ATOM     25  O   UNL     1       4.813   3.935  16.397  0.00  0.00    +0.000 OA
BRANCH  25  26
ATOM     26  C   UNL     1       3.432   4.054  16.752  0.00  0.00    +0.000 C 
BRANCH  26  27
ATOM     27  C   UNL     1       2.835   2.694  17.151  0.00  0.00    +0.000 C 
BRANCH  27  29
ATOM     28  C   UNL     1       1.840   2.001  19.240  0.00  0.00    +0.000 C 
ATOM     29  N   UNL     1       1.654   2.813  18.036  0.00  0.00    +0.000 NA
ATOM     30  C   UNL     1       1.374   4.200  18.418  0.00  0.00    +0.000 C 
ENDBRANCH  27  29
ENDBRANCH  26  27
ENDBRANCH  25  26
ENDBRANCH  18  25
ENDBRANCH   1  21
TORSDOF 6
ENDMDL
MODEL 7
REMARK VINA RESULT:      -7.6      7.371     10.368
REMARK  Name = 
REMARK  8 active torsions:
REMARK  status: ('A' for Active; 'I' for Inactive)
REMARK    1  A    between atoms: C_1  and  N_2
REMARK    2  A    between atoms: N_2  and  C_3
REMARK    3  A    between atoms: N_2  and  C_4
REMARK    4  A    between atoms: C_4  and  C_5
REMARK    5  A    between atoms: C_5  and  O_6
REMARK    6  A    between atoms: O_6  and  C_7
REMARK    7  A    between atoms: C_10  and  N_11
REMARK    8  A    between atoms: N_14  and  C_15
REMARK                            x       y       z     vdW  Elec       q    Type
REMARK                         _______ _______ _______ _____ _____    ______ ____
ROOT
ATOM      1  N   UNL     1       7.943   9.883  17.631  0.00  0.00    +0.000 N 
ATOM      2  C   UNL     1       7.686   8.536  17.819  0.00  0.00    +0.000 C 
ATOM      3  O   UNL     1       8.315   7.816  18.596  0.00  0.00    +0.000 OA
ATOM      4  N   UNL     1       6.647   8.061  17.034  0.00  0.00    +0.000 N 
ATOM      5  H   UNL     1       7.192  10.436  17.260  0.00  0.00    +0.000 HD
ATOM      6  H   UNL     1       6.563   8.512  16.138  0.00  0.00    +0.000 HD
ENDROOT
BRANCH   4   7
ATOM      7  C   UNL     1       6.353   6.661  17.088  0.00  0.00    +0.000 A 
ATOM      8  C   UNL     1       7.326   5.764  16.644  0.00  0.00    +0.000 A 
ATOM      9  C   UNL     1       7.017   4.426  16.612  0.00  0.00    +0.000 A 
ATOM     10  N   UNL     1       5.830   3.932  17.005  0.00  0.00    +0.000 NA
ATOM     11  C   UNL     1       4.864   4.781  17.418  0.00  0.00    +0.000 A 
ATOM     12  C   UNL     1       3.589   4.298  17.744  0.00  0.00    +0.000 A 
ATOM     13 BR   UNL     1       3.210   2.429  17.695  0.00  0.00    +0.000 Br
ATOM     14  C   UNL     1       2.534   5.146  18.092  0.00  0.00    +0.000 A 
ATOM     15  C   UNL     1       2.744   6.514  18.151  0.00  0.00    +0.000 A 
ATOM     16  C   UNL     1       4.008   7.026  17.868  0.00  0.00    +0.000 A 
ATOM     17  C   UNL     1       5.081   6.182  17.489  0.00  0.00    +0.000 A 
ENDBRANCH   4   7
BRANCH   1  21
ATOM     18  C   UNL     1      11.198  12.012  19.370  0.00  0.00    +0.000 A 
ATOM     19  C   UNL     1      10.366  11.219  20.164  0.00  0.00    +0.000 A 
ATOM     20  C   UNL     1       9.304  10.500  19.607  0.00  0.00    +0.000 A 
ATOM     21  C   UNL     1       9.031  10.564  18.237  0.00  0.00    +0.000 A 
ATOM     22  C   UNL     1       9.890  11.310  17.429  0.00  0.00    +0.000 A 
ATOM     23  C   UNL     1      10.982  12.007  17.982  0.00  0.00    +0.000 A 
ATOM     24 CL   UNL     1      12.033  12.745  16.819  0.00  0.00    +0.000 Cl
BRANCH  18  25
ATOM     25  O   UNL     1      12.152  12.682  20.097  0.00  0.00    +0.000 OA
BRANCH  25  26
ATOM     26  C   UNL     1      12.331  14.063  19.772  0.00  0.00    +0.000 C 
BRANCH  26  27
ATOM     27  C   UNL     1      11.170  14.920  20.305  0.00  0.00    +0.000 C 
BRANCH  27  29
ATOM     28  C   UNL     1      11.689  16.277  18.375  0.00  0.00    +0.000 C 
ATOM     29  N   UNL     1      10.631  15.862  19.297  0.00  0.00    +0.000 NA
ATOM     30  C   UNL     1       9.513  15.294  18.537  0.00  0.00    +0.000 C 
ENDBRANCH  27  29
ENDBRANCH  26  27
ENDBRANCH  25  26
ENDBRANCH  18  25
ENDBRANCH   1  21
TORSDOF 6
ENDMDL
MODEL 8
REMARK VINA RESULT:      -7.6      4.429      9.526
REMARK  Name = 
REMARK  8 active torsions:
REMARK  status: ('A' for Active; 'I' for Inactive)
REMARK    1  A    between atoms: C_1  and  N_2
REMARK    2  A    between atoms: N_2  and  C_3
REMARK    3  A    between atoms: N_2  and  C_4
REMARK    4  A    between atoms: C_4  and  C_5
REMARK    5  A    between atoms: C_5  and  O_6
REMARK    6  A    between atoms: O_6  and  C_7
REMARK    7  A    between atoms: C_10  and  N_11
REMARK    8  A    between atoms: N_14  and  C_15
REMARK                            x       y       z     vdW  Elec       q    Type
REMARK                         _______ _______ _______ _____ _____    ______ ____
ROOT
ATOM      1  N   UNL     1       1.978   7.875  21.003  0.00  0.00    +0.000 N 
ATOM      2  C   UNL     1       2.245   7.264  19.791  0.00  0.00    +0.000 C 
ATOM      3  O   UNL     1       1.824   7.671  18.707  0.00  0.00    +0.000 OA
ATOM      4  N   UNL     1       3.033   6.129  19.909  0.00  0.00    +0.000 N 
ATOM      5  H   UNL     1       2.619   7.686  21.753  0.00  0.00    +0.000 HD
ATOM      6  H   UNL     1       2.891   5.612  20.761  0.00  0.00    +0.000 HD
ENDROOT
BRANCH   4   7
ATOM      7  C   UNL     1       3.300   5.372  18.724  0.00  0.00    +0.000 A 
ATOM      8  C   UNL     1       2.456   4.303  18.419  0.00  0.00    +0.000 A 
ATOM      9  C   UNL     1       2.758   3.520  17.332  0.00  0.00    +0.000 A 
ATOM     10  N   UNL     1       3.815   3.742  16.532  0.00  0.00    +0.000 NA
ATOM     11  C   UNL     1       4.659   4.758  16.819  0.00  0.00    +0.000 A 
ATOM     12  C   UNL     1       5.818   4.951  16.054  0.00  0.00    +0.000 A 
ATOM     13 BR   UNL     1       6.190   3.845  14.545  0.00  0.00    +0.000 Br
ATOM     14  C   UNL     1       6.765   5.932  16.364  0.00  0.00    +0.000 A 
ATOM     15  C   UNL     1       6.552   6.772  17.444  0.00  0.00    +0.000 A 
ATOM     16  C   UNL     1       5.394   6.632  18.205  0.00  0.00    +0.000 A 
ATOM     17  C   UNL     1       4.438   5.626  17.919  0.00  0.00    +0.000 A 
ENDBRANCH   4   7
BRANCH   1  21
ATOM     18  C   UNL     1      -0.665  11.202  21.317  0.00  0.00    +0.000 A 
ATOM     19  C   UNL     1      -0.597  10.252  22.340  0.00  0.00    +0.000 A 
ATOM     20  C   UNL     1       0.277   9.164  22.261  0.00  0.00    +0.000 A 
ATOM     21  C   UNL     1       1.102   8.982  21.146  0.00  0.00    +0.000 A 
ATOM     22  C   UNL     1       1.080   9.954  20.146  0.00  0.00    +0.000 A 
ATOM     23  C   UNL     1       0.225  11.071  20.239  0.00  0.00    +0.000 A 
ATOM     24 CL   UNL     1       0.445  12.255  18.993  0.00  0.00    +0.000 Cl
BRANCH  18  25
ATOM     25  O   UNL     1      -1.615  12.167  21.545  0.00  0.00    +0.000 OA
BRANCH  25  26
ATOM     26  C   UNL     1      -2.279  12.105  22.811  0.00  0.00    +0.000 C 
BRANCH  26  27
ATOM     27  C   UNL     1      -3.514  13.021  22.843  0.00  0.00    +0.000 C 
BRANCH  27  29
ATOM     28  C   UNL     1      -4.547  12.360  24.924  0.00  0.00    +0.000 C 
ATOM     29  N   UNL     1      -4.696  12.384  23.468  0.00  0.00    +0.000 NA
ATOM     30  C   UNL     1      -5.950  13.054  23.114  0.00  0.00    +0.000 C 
ENDBRANCH  27  29
ENDBRANCH  26  27
ENDBRANCH  25  26
ENDBRANCH  18  25
ENDBRANCH   1  21
TORSDOF 6
ENDMDL
MODEL 9
REMARK VINA RESULT:      -7.4      4.448      9.644
REMARK  Name = 
REMARK  8 active torsions:
REMARK  status: ('A' for Active; 'I' for Inactive)
REMARK    1  A    between atoms: C_1  and  N_2
REMARK    2  A    between atoms: N_2  and  C_3
REMARK    3  A    between atoms: N_2  and  C_4
REMARK    4  A    between atoms: C_4  and  C_5
REMARK    5  A    between atoms: C_5  and  O_6
REMARK    6  A    between atoms: O_6  and  C_7
REMARK    7  A    between atoms: C_10  and  N_11
REMARK    8  A    between atoms: N_14  and  C_15
REMARK                            x       y       z     vdW  Elec       q    Type
REMARK                         _______ _______ _______ _____ _____    ______ ____
ROOT
ATOM      1  N   UNL     1       2.001   7.743  21.056  0.00  0.00    +0.000 N 
ATOM      2  C   UNL     1       2.262   7.167  19.826  0.00  0.00    +0.000 C 
ATOM      3  O   UNL     1       1.822   7.593  18.757  0.00  0.00    +0.000 OA
ATOM      4  N   UNL     1       3.071   6.043  19.907  0.00  0.00    +0.000 N 
ATOM      5  H   UNL     1       2.654   7.546  21.793  0.00  0.00    +0.000 HD
ATOM      6  H   UNL     1       2.948   5.502  20.747  0.00  0.00    +0.000 HD
ENDROOT
BRANCH   4   7
ATOM      7  C   UNL     1       3.334   5.320  18.700  0.00  0.00    +0.000 A 
ATOM      8  C   UNL     1       2.489   4.261  18.366  0.00  0.00    +0.000 A 
ATOM      9  C   UNL     1       2.788   3.509  17.256  0.00  0.00    +0.000 A 
ATOM     10  N   UNL     1       3.845   3.752  16.461  0.00  0.00    +0.000 NA
ATOM     11  C   UNL     1       4.691   4.758  16.776  0.00  0.00    +0.000 A 
ATOM     12  C   UNL     1       5.849   4.971  16.015  0.00  0.00    +0.000 A 
ATOM     13 BR   UNL     1       6.217   3.908  14.475  0.00  0.00    +0.000 Br
ATOM     14  C   UNL     1       6.797   5.942  16.352  0.00  0.00    +0.000 A 
ATOM     15  C   UNL     1       6.587   6.750  17.457  0.00  0.00    +0.000 A 
ATOM     16  C   UNL     1       5.429   6.590  18.215  0.00  0.00    +0.000 A 
ATOM     17  C   UNL     1       4.472   5.595  17.901  0.00  0.00    +0.000 A 
ENDBRANCH   4   7
BRANCH   1  21
ATOM     18  C   UNL     1      -0.710  11.001  21.488  0.00  0.00    +0.000 A 
ATOM     19  C   UNL     1      -0.411  10.180  22.578  0.00  0.00    +0.000 A 
ATOM     20  C   UNL     1       0.489   9.117  22.458  0.00  0.00    +0.000 A 
ATOM     21  C   UNL     1       1.109   8.832  21.237  0.00  0.00    +0.000 A 
ATOM     22  C   UNL     1       0.857   9.680  20.158  0.00  0.00    +0.000 A 
ATOM     23  C   UNL     1      -0.022  10.774  20.286  0.00  0.00    +0.000 A 
ATOM     24 CL   UNL     1      -0.092  11.811  18.900  0.00  0.00    +0.000 Cl
BRANCH  18  25
ATOM     25  O   UNL     1      -1.652  11.957  21.782  0.00  0.00    +0.000 OA
BRANCH  25  26
ATOM     26  C   UNL     1      -1.690  12.403  23.140  0.00  0.00    +0.000 C 
BRANCH  26  27
ATOM     27  C   UNL     1      -2.061  13.892  23.234  0.00  0.00    +0.000 C 
BRANCH  27  29
ATOM     28  C   UNL     1      -3.953  12.879  24.341  0.00  0.00    +0.000 C 
ATOM     29  N   UNL     1      -3.272  14.141  24.049  0.00  0.00    +0.000 NA
ATOM     30  C   UNL     1      -2.974  14.839  25.302  0.00  0.00    +0.000 C 
ENDBRANCH  27  29
ENDBRANCH  26  27
ENDBRANCH  25  26
ENDBRANCH  18  25
ENDBRANCH   1  21
TORSDOF 6
ENDMDL
