MODEL 1
REMARK VINA RESULT:      -6.7      0.000      0.000
REMARK  Name = 
REMARK  7 active torsions:
REMARK  status: ('A' for Active; 'I' for Inactive)
REMARK    1  A    between atoms: C_1  and  C_2
REMARK    2  A    between atoms: C_2  and  C_3
REMARK    3  A    between atoms: C_3  and  C_4
REMARK    4  A    between atoms: C_4  and  C_5
REMARK    5  A    between atoms: C_5  and  N_6
REMARK    6  A    between atoms: C_7  and  C_9
REMARK    7  A    between atoms: C_12  and  O_13
REMARK                            x       y       z     vdW  Elec       q    Type
REMARK                         _______ _______ _______ _____ _____    ______ ____
ROOT
ATOM      1  N   UNL     1       6.138   3.708  13.819  0.00  0.00    +0.000 N 
ATOM      2  C   UNL     1       6.755   4.672  14.586  0.00  0.00    +0.000 C 
ATOM      3  O   UNL     1       7.680   5.372  14.178  0.00  0.00    +0.000 OA
ATOM      4  H   UNL     1       5.268   3.301  14.136  0.00  0.00    +0.000 HD
ENDROOT
BRANCH   2   5
ATOM      5  C   UNL     1       6.221   4.874  15.954  0.00  0.00    +0.000 A 
ATOM      6  C   UNL     1       4.963   4.386  16.330  0.00  0.00    +0.000 A 
ATOM      7  C   UNL     1       4.503   4.574  17.637  0.00  0.00    +0.000 A 
ATOM      8  C   UNL     1       5.303   5.249  18.555  0.00  0.00    +0.000 A 
ATOM      9  C   UNL     1       6.558   5.728  18.195  0.00  0.00    +0.000 A 
ATOM     10  C   UNL     1       7.022   5.535  16.894  0.00  0.00    +0.000 A 
BRANCH   8  11
ATOM     11  O   UNL     1       4.892   5.457  19.838  0.00  0.00    +0.000 OA
ATOM     12  H   UNL     1       4.027   5.897  19.825  0.00  0.00    +0.000 HD
ENDBRANCH   8  11
ENDBRANCH   2   5
BRANCH   1  13
ATOM     13  C   UNL     1       6.574   3.451  12.462  0.00  0.00    +0.000 C 
BRANCH  13  14
ATOM     14  C   UNL     1       5.520   2.711  11.638  0.00  0.00    +0.000 C 
BRANCH  14  15
ATOM     15  C   UNL     1       4.200   3.487  11.586  0.00  0.00    +0.000 C 
BRANCH  15  17
ATOM     16  C   UNL     1       2.899   4.272   9.578  0.00  0.00    +0.000 C 
ATOM     17  C   UNL     1       3.342   3.069  10.394  0.00  0.00    +0.000 C 
ENDBRANCH  15  17
ENDBRANCH  14  15
ENDBRANCH  13  14
ENDBRANCH   1  13
TORSDOF 6
ENDMDL
MODEL 2
REMARK VINA RESULT:      -6.5      1.325      1.402
REMARK  Name = 
REMARK  7 active torsions:
REMARK  status: ('A' for Active; 'I' for Inactive)
REMARK    1  A    between atoms: C_1  and  C_2
REMARK    2  A    between atoms: C_2  and  C_3
REMARK    3  A    between atoms: C_3  and  C_4
REMARK    4  A    between atoms: C_4  and  C_5
REMARK    5  A    between atoms: C_5  and  N_6
REMARK    6  A    between atoms: C_7  and  C_9
REMARK    7  A    between atoms: C_12  and  O_13
REMARK                            x       y       z     vdW  Elec       q    Type
REMARK                         _______ _______ _______ _____ _____    ______ ____
ROOT
ATOM      1  N   UNL     1       5.560   4.100  13.913  0.00  0.00    +0.000 N 
ATOM      2  C   UNL     1       6.125   4.678  15.028  0.00  0.00    +0.000 C 
ATOM      3  O   UNL     1       7.336   4.832  15.170  0.00  0.00    +0.000 OA
ATOM      4  H   UNL     1       4.561   4.173  13.765  0.00  0.00    +0.000 HD
ENDROOT
BRANCH   2   5
ATOM      5  C   UNL     1       5.189   5.164  16.070  0.00  0.00    +0.000 A 
ATOM      6  C   UNL     1       4.397   4.281  16.815  0.00  0.00    +0.000 A 
ATOM      7  C   UNL     1       3.545   4.775  17.807  0.00  0.00    +0.000 A 
ATOM      8  C   UNL     1       3.490   6.145  18.044  0.00  0.00    +0.000 A 
ATOM      9  C   UNL     1       4.279   7.029  17.317  0.00  0.00    +0.000 A 
ATOM     10  C   UNL     1       5.136   6.539  16.332  0.00  0.00    +0.000 A 
BRANCH   8  11
ATOM     11  O   UNL     1       2.670   6.669  18.999  0.00  0.00    +0.000 OA
ATOM     12  H   UNL     1       1.920   6.069  19.135  0.00  0.00    +0.000 HD
ENDBRANCH   8  11
ENDBRANCH   2   5
BRANCH   1  13
ATOM     13  C   UNL     1       6.389   3.613  12.830  0.00  0.00    +0.000 C 
BRANCH  13  14
ATOM     14  C   UNL     1       5.572   2.987  11.700  0.00  0.00    +0.000 C 
BRANCH  14  15
ATOM     15  C   UNL     1       4.154   3.565  11.646  0.00  0.00    +0.000 C 
BRANCH  15  17
ATOM     16  C   UNL     1       2.897   4.227   9.567  0.00  0.00    +0.000 C 
ATOM     17  C   UNL     1       3.385   3.070  10.422  0.00  0.00    +0.000 C 
ENDBRANCH  15  17
ENDBRANCH  14  15
ENDBRANCH  13  14
ENDBRANCH   1  13
TORSDOF 6
ENDMDL
MODEL 3
REMARK VINA RESULT:      -6.3      2.582      4.161
REMARK  Name = 
REMARK  7 active torsions:
REMARK  status: ('A' for Active; 'I' for Inactive)
REMARK    1  A    between atoms: C_1  and  C_2
REMARK    2  A    between atoms: C_2  and  C_3
REMARK    3  A    between atoms: C_3  and  C_4
REMARK    4  A    between atoms: C_4  and  C_5
REMARK    5  A    between atoms: C_5  and  N_6
REMARK    6  A    between atoms: C_7  and  C_9
REMARK    7  A    between atoms: C_12  and  O_13
REMARK                            x       y       z     vdW  Elec       q    Type
REMARK                         _______ _______ _______ _____ _____    ______ ____
ROOT
ATOM      1  N   UNL     1       5.615   4.141  16.762  0.00  0.00    +0.000 N 
ATOM      2  C   UNL     1       5.287   4.066  18.097  0.00  0.00    +0.000 C 
ATOM      3  O   UNL     1       6.062   4.369  19.002  0.00  0.00    +0.000 OA
ATOM      4  H   UNL     1       4.886   4.065  16.064  0.00  0.00    +0.000 HD
ENDROOT
BRANCH   2   5
ATOM      5  C   UNL     1       3.906   3.634  18.418  0.00  0.00    +0.000 A 
ATOM      6  C   UNL     1       3.640   2.372  18.966  0.00  0.00    +0.000 A 
ATOM      7  C   UNL     1       2.327   2.009  19.279  0.00  0.00    +0.000 A 
ATOM      8  C   UNL     1       1.292   2.908  19.039  0.00  0.00    +0.000 A 
ATOM      9  C   UNL     1       1.545   4.166  18.506  0.00  0.00    +0.000 A 
ATOM     10  C   UNL     1       2.855   4.535  18.200  0.00  0.00    +0.000 A 
BRANCH   8  11
ATOM     11  O   UNL     1      -0.004   2.594  19.326  0.00  0.00    +0.000 OA
ATOM     12  H   UNL     1      -0.087   2.436  20.281  0.00  0.00    +0.000 HD
ENDBRANCH   8  11
ENDBRANCH   2   5
BRANCH   1  13
ATOM     13  C   UNL     1       6.933   4.573  16.347  0.00  0.00    +0.000 C 
BRANCH  13  14
ATOM     14  C   UNL     1       7.059   4.699  14.828  0.00  0.00    +0.000 C 
BRANCH  14  15
ATOM     15  C   UNL     1       5.874   4.044  14.110  0.00  0.00    +0.000 C 
BRANCH  15  17
ATOM     16  C   UNL     1       5.018   3.315  11.857  0.00  0.00    +0.000 C 
ATOM     17  C   UNL     1       6.251   3.570  12.708  0.00  0.00    +0.000 C 
ENDBRANCH  15  17
ENDBRANCH  14  15
ENDBRANCH  13  14
ENDBRANCH   1  13
TORSDOF 6
ENDMDL
MODEL 4
REMARK VINA RESULT:      -6.3      3.454      6.269
REMARK  Name = 
REMARK  7 active torsions:
REMARK  status: ('A' for Active; 'I' for Inactive)
REMARK    1  A    between atoms: C_1  and  C_2
REMARK    2  A    between atoms: C_2  and  C_3
REMARK    3  A    between atoms: C_3  and  C_4
REMARK    4  A    between atoms: C_4  and  C_5
REMARK    5  A    between atoms: C_5  and  N_6
REMARK    6  A    between atoms: C_7  and  C_9
REMARK    7  A    between atoms: C_12  and  O_13
REMARK                            x       y       z     vdW  Elec       q    Type
REMARK                         _______ _______ _______ _____ _____    ______ ____
ROOT
ATOM      1  N   UNL     1       3.526   5.016  19.476  0.00  0.00    +0.000 N 
ATOM      2  C   UNL     1       4.568   4.164  19.186  0.00  0.00    +0.000 C 
ATOM      3  O   UNL     1       4.861   3.192  19.880  0.00  0.00    +0.000 OA
ATOM      4  H   UNL     1       3.213   5.678  18.777  0.00  0.00    +0.000 HD
ENDROOT
BRANCH   2   5
ATOM      5  C   UNL     1       5.326   4.441  17.942  0.00  0.00    +0.000 A 
ATOM      6  C   UNL     1       4.689   4.519  16.696  0.00  0.00    +0.000 A 
ATOM      7  C   UNL     1       5.433   4.807  15.549  0.00  0.00    +0.000 A 
ATOM      8  C   UNL     1       6.806   5.012  15.655  0.00  0.00    +0.000 A 
ATOM      9  C   UNL     1       7.446   4.947  16.888  0.00  0.00    +0.000 A 
ATOM     10  C   UNL     1       6.705   4.668  18.036  0.00  0.00    +0.000 A 
BRANCH   8  11
ATOM     11  O   UNL     1       7.570   5.291  14.561  0.00  0.00    +0.000 OA
ATOM     12  H   UNL     1       8.496   5.079  14.760  0.00  0.00    +0.000 HD
ENDBRANCH   8  11
ENDBRANCH   2   5
BRANCH   1  13
ATOM     13  C   UNL     1       2.713   4.816  20.657  0.00  0.00    +0.000 C 
BRANCH  13  14
ATOM     14  C   UNL     1       1.281   4.402  20.321  0.00  0.00    +0.000 C 
BRANCH  14  15
ATOM     15  C   UNL     1       1.154   2.881  20.179  0.00  0.00    +0.000 C 
BRANCH  15  17
ATOM     16  C   UNL     1       2.089   2.087  17.979  0.00  0.00    +0.000 C 
ATOM     17  C   UNL     1       0.832   2.469  18.744  0.00  0.00    +0.000 C 
ENDBRANCH  15  17
ENDBRANCH  14  15
ENDBRANCH  13  14
ENDBRANCH   1  13
TORSDOF 6
ENDMDL
MODEL 5
REMARK VINA RESULT:      -6.3      3.495      6.367
REMARK  Name = 
REMARK  7 active torsions:
REMARK  status: ('A' for Active; 'I' for Inactive)
REMARK    1  A    between atoms: C_1  and  C_2
REMARK    2  A    between atoms: C_2  and  C_3
REMARK    3  A    between atoms: C_3  and  C_4
REMARK    4  A    between atoms: C_4  and  C_5
REMARK    5  A    between atoms: C_5  and  N_6
REMARK    6  A    between atoms: C_7  and  C_9
REMARK    7  A    between atoms: C_12  and  O_13
REMARK                            x       y       z     vdW  Elec       q    Type
REMARK                         _______ _______ _______ _____ _____    ______ ____
ROOT
ATOM      1  N   UNL     1       3.559   5.007  19.530  0.00  0.00    +0.000 N 
ATOM      2  C   UNL     1       4.593   4.149  19.229  0.00  0.00    +0.000 C 
ATOM      3  O   UNL     1       4.854   3.145  19.889  0.00  0.00    +0.000 OA
ATOM      4  H   UNL     1       3.274   5.702  18.852  0.00  0.00    +0.000 HD
ENDROOT
BRANCH   2   5
ATOM      5  C   UNL     1       5.385   4.464  18.016  0.00  0.00    +0.000 A 
ATOM      6  C   UNL     1       6.776   4.626  18.068  0.00  0.00    +0.000 A 
ATOM      7  C   UNL     1       7.492   4.898  16.898  0.00  0.00    +0.000 A 
ATOM      8  C   UNL     1       6.812   5.008  15.689  0.00  0.00    +0.000 A 
ATOM      9  C   UNL     1       5.434   4.839  15.624  0.00  0.00    +0.000 A 
ATOM     10  C   UNL     1       4.718   4.560  16.788  0.00  0.00    +0.000 A 
BRANCH   8  11
ATOM     11  O   UNL     1       7.471   5.275  14.525  0.00  0.00    +0.000 OA
ATOM     12  H   UNL     1       8.340   4.844  14.549  0.00  0.00    +0.000 HD
ENDBRANCH   8  11
ENDBRANCH   2   5
BRANCH   1  13
ATOM     13  C   UNL     1       2.715   4.773  20.683  0.00  0.00    +0.000 C 
BRANCH  13  14
ATOM     14  C   UNL     1       1.289   4.379  20.297  0.00  0.00    +0.000 C 
BRANCH  14  15
ATOM     15  C   UNL     1       1.148   2.862  20.139  0.00  0.00    +0.000 C 
BRANCH  15  17
ATOM     16  C   UNL     1       2.126   2.089  17.951  0.00  0.00    +0.000 C 
ATOM     17  C   UNL     1       0.854   2.466  18.693  0.00  0.00    +0.000 C 
ENDBRANCH  15  17
ENDBRANCH  14  15
ENDBRANCH  13  14
ENDBRANCH   1  13
TORSDOF 6
ENDMDL
MODEL 6
REMARK VINA RESULT:      -6.2      2.529      3.573
REMARK  Name = 
REMARK  7 active torsions:
REMARK  status: ('A' for Active; 'I' for Inactive)
REMARK    1  A    between atoms: C_1  and  C_2
REMARK    2  A    between atoms: C_2  and  C_3
REMARK    3  A    between atoms: C_3  and  C_4
REMARK    4  A    between atoms: C_4  and  C_5
REMARK    5  A    between atoms: C_5  and  N_6
REMARK    6  A    between atoms: C_7  and  C_9
REMARK    7  A    between atoms: C_12  and  O_13
REMARK                            x       y       z     vdW  Elec       q    Type
REMARK                         _______ _______ _______ _____ _____    ______ ____
ROOT
ATOM      1  N   UNL     1       5.095   3.632  16.263  0.00  0.00    +0.000 N 
ATOM      2  C   UNL     1       4.427   4.639  16.922  0.00  0.00    +0.000 C 
ATOM      3  O   UNL     1       4.638   5.834  16.725  0.00  0.00    +0.000 OA
ATOM      4  H   UNL     1       4.750   2.682  16.323  0.00  0.00    +0.000 HD
ENDROOT
BRANCH   2   5
ATOM      5  C   UNL     1       3.377   4.222  17.883  0.00  0.00    +0.000 A 
ATOM      6  C   UNL     1       2.459   3.209  17.573  0.00  0.00    +0.000 A 
ATOM      7  C   UNL     1       1.500   2.825  18.514  0.00  0.00    +0.000 A 
ATOM      8  C   UNL     1       1.464   3.457  19.754  0.00  0.00    +0.000 A 
ATOM      9  C   UNL     1       2.376   4.455  20.075  0.00  0.00    +0.000 A 
ATOM     10  C   UNL     1       3.340   4.835  19.142  0.00  0.00    +0.000 A 
BRANCH   8  11
ATOM     11  O   UNL     1       0.542   3.116  20.699  0.00  0.00    +0.000 OA
ATOM     12  H   UNL     1       0.027   3.903  20.937  0.00  0.00    +0.000 HD
ENDBRANCH   8  11
ENDBRANCH   2   5
BRANCH   1  13
ATOM     13  C   UNL     1       6.122   3.939  15.289  0.00  0.00    +0.000 C 
BRANCH  13  14
ATOM     14  C   UNL     1       5.551   4.195  13.895  0.00  0.00    +0.000 C 
BRANCH  14  15
ATOM     15  C   UNL     1       6.474   3.648  12.801  0.00  0.00    +0.000 C 
BRANCH  15  17
ATOM     16  C   UNL     1       4.348   3.289  11.500  0.00  0.00    +0.000 C 
ATOM     17  C   UNL     1       5.726   2.738  11.829  0.00  0.00    +0.000 C 
ENDBRANCH  15  17
ENDBRANCH  14  15
ENDBRANCH  13  14
ENDBRANCH   1  13
TORSDOF 6
ENDMDL
MODEL 7
REMARK VINA RESULT:      -6.2      3.070      5.910
REMARK  Name = 
REMARK  7 active torsions:
REMARK  status: ('A' for Active; 'I' for Inactive)
REMARK    1  A    between atoms: C_1  and  C_2
REMARK    2  A    between atoms: C_2  and  C_3
REMARK    3  A    between atoms: C_3  and  C_4
REMARK    4  A    between atoms: C_4  and  C_5
REMARK    5  A    between atoms: C_5  and  N_6
REMARK    6  A    between atoms: C_7  and  C_9
REMARK    7  A    between atoms: C_12  and  O_13
REMARK                            x       y       z     vdW  Elec       q    Type
REMARK                         _______ _______ _______ _____ _____    ______ ____
ROOT
ATOM      1  N   UNL     1       4.827   2.800  19.077  0.00  0.00    +0.000 N 
ATOM      2  C   UNL     1       5.060   4.119  18.760  0.00  0.00    +0.000 C 
ATOM      3  O   UNL     1       4.844   5.050  19.534  0.00  0.00    +0.000 OA
ATOM      4  H   UNL     1       5.198   2.070  18.482  0.00  0.00    +0.000 HD
ENDROOT
BRANCH   2   5
ATOM      5  C   UNL     1       5.640   4.388  17.422  0.00  0.00    +0.000 A 
ATOM      6  C   UNL     1       4.845   4.408  16.268  0.00  0.00    +0.000 A 
ATOM      7  C   UNL     1       5.423   4.690  15.027  0.00  0.00    +0.000 A 
ATOM      8  C   UNL     1       6.789   4.947  14.949  0.00  0.00    +0.000 A 
ATOM      9  C   UNL     1       7.584   4.940  16.089  0.00  0.00    +0.000 A 
ATOM     10  C   UNL     1       7.009   4.667  17.330  0.00  0.00    +0.000 A 
BRANCH   8  11
ATOM     11  O   UNL     1       7.393   5.223  13.759  0.00  0.00    +0.000 OA
ATOM     12  H   UNL     1       7.774   4.405  13.401  0.00  0.00    +0.000 HD
ENDBRANCH   8  11
ENDBRANCH   2   5
BRANCH   1  13
ATOM     13  C   UNL     1       4.283   2.434  20.368  0.00  0.00    +0.000 C 
BRANCH  13  14
ATOM     14  C   UNL     1       2.758   2.541  20.415  0.00  0.00    +0.000 C 
BRANCH  14  15
ATOM     15  C   UNL     1       2.120   2.038  19.116  0.00  0.00    +0.000 C 
BRANCH  15  17
ATOM     16  C   UNL     1       1.503   4.103  17.813  0.00  0.00    +0.000 C 
ATOM     17  C   UNL     1       0.983   2.947  18.652  0.00  0.00    +0.000 C 
ENDBRANCH  15  17
ENDBRANCH  14  15
ENDBRANCH  13  14
ENDBRANCH   1  13
TORSDOF 6
ENDMDL
MODEL 8
REMARK VINA RESULT:      -6.1      3.082      6.532
REMARK  Name = 
REMARK  7 active torsions:
REMARK  status: ('A' for Active; 'I' for Inactive)
REMARK    1  A    between atoms: C_1  and  C_2
REMARK    2  A    between atoms: C_2  and  C_3
REMARK    3  A    between atoms: C_3  and  C_4
REMARK    4  A    between atoms: C_4  and  C_5
REMARK    5  A    between atoms: C_5  and  N_6
REMARK    6  A    between atoms: C_7  and  C_9
REMARK    7  A    between atoms: C_12  and  O_13
REMARK                            x       y       z     vdW  Elec       q    Type
REMARK                         _______ _______ _______ _____ _____    ______ ____
ROOT
ATOM      1  N   UNL     1       3.367   2.759  17.990  0.00  0.00    +0.000 N 
ATOM      2  C   UNL     1       4.517   3.395  18.402  0.00  0.00    +0.000 C 
ATOM      3  O   UNL     1       4.871   3.460  19.577  0.00  0.00    +0.000 OA
ATOM      4  H   UNL     1       3.225   2.571  17.005  0.00  0.00    +0.000 HD
ENDROOT
BRANCH   2   5
ATOM      5  C   UNL     1       5.366   3.984  17.339  0.00  0.00    +0.000 A 
ATOM      6  C   UNL     1       6.650   4.475  17.613  0.00  0.00    +0.000 A 
ATOM      7  C   UNL     1       7.432   5.000  16.580  0.00  0.00    +0.000 A 
ATOM      8  C   UNL     1       6.923   5.033  15.284  0.00  0.00    +0.000 A 
ATOM      9  C   UNL     1       5.655   4.540  15.000  0.00  0.00    +0.000 A 
ATOM     10  C   UNL     1       4.876   4.008  16.027  0.00  0.00    +0.000 A 
BRANCH   8  11
ATOM     11  O   UNL     1       7.651   5.541  14.248  0.00  0.00    +0.000 OA
ATOM     12  H   UNL     1       8.575   5.638  14.529  0.00  0.00    +0.000 HD
ENDBRANCH   8  11
ENDBRANCH   2   5
BRANCH   1  13
ATOM     13  C   UNL     1       2.483   2.133  18.951  0.00  0.00    +0.000 C 
BRANCH  13  14
ATOM     14  C   UNL     1       1.092   2.767  18.968  0.00  0.00    +0.000 C 
BRANCH  14  15
ATOM     15  C   UNL     1       0.710   3.245  20.373  0.00  0.00    +0.000 C 
BRANCH  15  17
ATOM     16  C   UNL     1       1.872   5.473  20.522  0.00  0.00    +0.000 C 
ATOM     17  C   UNL     1       1.836   4.041  21.029  0.00  0.00    +0.000 C 
ENDBRANCH  15  17
ENDBRANCH  14  15
ENDBRANCH  13  14
ENDBRANCH   1  13
TORSDOF 6
ENDMDL
MODEL 9
REMARK VINA RESULT:      -6.1      4.912      6.612
REMARK  Name = 
REMARK  7 active torsions:
REMARK  status: ('A' for Active; 'I' for Inactive)
REMARK    1  A    between atoms: C_1  and  C_2
REMARK    2  A    between atoms: C_2  and  C_3
REMARK    3  A    between atoms: C_3  and  C_4
REMARK    4  A    between atoms: C_4  and  C_5
REMARK    5  A    between atoms: C_5  and  N_6
REMARK    6  A    between atoms: C_7  and  C_9
REMARK    7  A    between atoms: C_12  and  O_13
REMARK                            x       y       z     vdW  Elec       q    Type
REMARK                         _______ _______ _______ _____ _____    ______ ____
ROOT
ATOM      1  N   UNL     1       4.972   6.183  17.629  0.00  0.00    +0.000 N 
ATOM      2  C   UNL     1       3.687   6.608  17.885  0.00  0.00    +0.000 C 
ATOM      3  O   UNL     1       3.270   7.725  17.584  0.00  0.00    +0.000 OA
ATOM      4  H   UNL     1       5.201   5.202  17.722  0.00  0.00    +0.000 HD
ENDROOT
BRANCH   2   5
ATOM      5  C   UNL     1       2.777   5.625  18.521  0.00  0.00    +0.000 A 
ATOM      6  C   UNL     1       2.177   4.596  17.783  0.00  0.00    +0.000 A 
ATOM      7  C   UNL     1       1.344   3.672  18.422  0.00  0.00    +0.000 A 
ATOM      8  C   UNL     1       1.118   3.786  19.790  0.00  0.00    +0.000 A 
ATOM      9  C   UNL     1       1.717   4.796  20.533  0.00  0.00    +0.000 A 
ATOM     10  C   UNL     1       2.554   5.714  19.901  0.00  0.00    +0.000 A 
BRANCH   8  11
ATOM     11  O   UNL     1       0.310   2.909  20.452  0.00  0.00    +0.000 OA
ATOM     12  H   UNL     1       0.010   3.318  21.280  0.00  0.00    +0.000 HD
ENDBRANCH   8  11
ENDBRANCH   2   5
BRANCH   1  13
ATOM     13  C   UNL     1       5.929   7.063  16.991  0.00  0.00    +0.000 C 
BRANCH  13  14
ATOM     14  C   UNL     1       7.375   6.630  17.230  0.00  0.00    +0.000 C 
BRANCH  14  15
ATOM     15  C   UNL     1       8.062   7.518  18.273  0.00  0.00    +0.000 C 
BRANCH  15  17
ATOM     16  C   UNL     1       8.952   9.820  18.773  0.00  0.00    +0.000 C 
ATOM     17  C   UNL     1       8.091   8.982  17.841  0.00  0.00    +0.000 C 
ENDBRANCH  15  17
ENDBRANCH  14  15
ENDBRANCH  13  14
ENDBRANCH   1  13
TORSDOF 6
ENDMDL
