MODEL 1
REMARK VINA RESULT:      -8.5      0.000      0.000
REMARK  Name = 
REMARK  10 active torsions:
REMARK  status: ('A' for Active; 'I' for Inactive)
REMARK    1  A    between atoms: C_1  and  C_2
REMARK    2  A    between atoms: C_4  and  C_5
REMARK    3  A    between atoms: C_6  and  S_7
REMARK    4  A    between atoms: S_7  and  N_10
REMARK    5  A    between atoms: N_10  and  C_11
REMARK    6  A    between atoms: C_11  and  C_12
REMARK    7  A    between atoms: C_11  and  C_24
REMARK    8  A    between atoms: C_12  and  C_13
REMARK    9  A    between atoms: C_17  and  C_18
REMARK   10  A    between atoms: C_28  and  C_29
REMARK                            x       y       z     vdW  Elec       q    Type
REMARK                         _______ _______ _______ _____ _____    ______ ____
ROOT
ATOM      1  C   UNL     1       2.712   4.986  20.213  0.00  0.00    +0.000 C 
ENDROOT
BRANCH   1   2
ATOM      2  C   UNL     1       1.587   4.191  19.500  0.00  0.00    +0.000 C 
ATOM      3  F   UNL     1       0.427   4.222  20.180  0.00  0.00    +0.000 F 
ATOM      4  F   UNL     1       1.373   4.670  18.255  0.00  0.00    +0.000 F 
ATOM      5  F   UNL     1       1.868   2.873  19.354  0.00  0.00    +0.000 F 
ENDBRANCH   1   2
BRANCH   1   6
ATOM      6  N   UNL     1       3.756   5.567  19.249  0.00  0.00    +0.000 NA
ATOM      7  H   UNL     1       3.999   6.539  19.429  0.00  0.00    +0.000 HD
BRANCH   6   8
ATOM      8  S   UNL     1       5.270   4.742  19.076  0.00  0.00    +0.000 S 
ATOM      9  O   UNL     1       5.039   3.387  19.530  0.00  0.00    +0.000 OA
ATOM     10  O   UNL     1       6.230   5.572  19.774  0.00  0.00    +0.000 OA
BRANCH   8  16
ATOM     11  C   UNL     1       6.903   4.428  13.150  0.00  0.00    +0.000 C 
ATOM     12  C   UNL     1       6.415   4.590  14.559  0.00  0.00    +0.000 A 
ATOM     13  C   UNL     1       5.352   3.841  15.055  0.00  0.00    +0.000 A 
ATOM     14  C   UNL     1       4.964   3.912  16.413  0.00  0.00    +0.000 A 
ATOM     15  C   UNL     1       3.783   3.062  16.805  0.00  0.00    +0.000 C 
ATOM     16  C   UNL     1       5.668   4.775  17.302  0.00  0.00    +0.000 A 
ATOM     17  C   UNL     1       6.680   5.625  16.773  0.00  0.00    +0.000 A 
ATOM     18  C   UNL     1       7.490   6.657  17.511  0.00  0.00    +0.000 C 
ATOM     19  C   UNL     1       7.033   5.503  15.409  0.00  0.00    +0.000 A 
ENDBRANCH   8  16
ENDBRANCH   6   8
ENDBRANCH   1   6
BRANCH   1  20
ATOM     20  C   UNL     1       1.971   6.067  21.037  0.00  0.00    +0.000 C 
BRANCH  20  21
ATOM     21  C   UNL     1       1.667   7.395  20.421  0.00  0.00    +0.000 A 
ATOM     22  C   UNL     1       2.068   7.791  19.153  0.00  0.00    +0.000 A 
ATOM     23  N   UNL     1       1.667   9.081  18.947  0.00  0.00    +0.000 N 
ATOM     24  C   UNL     1       0.965   9.528  20.042  0.00  0.00    +0.000 A 
ATOM     25  C   UNL     1       0.285  10.734  20.270  0.00  0.00    +0.000 A 
ATOM     26  C   UNL     1      -0.314  10.935  21.517  0.00  0.00    +0.000 A 
ATOM     27  C   UNL     1      -0.161   9.997  22.533  0.00  0.00    +0.000 A 
ATOM     28  C   UNL     1       0.540   8.807  22.304  0.00  0.00    +0.000 A 
ATOM     29  C   UNL     1       1.047   8.529  21.019  0.00  0.00    +0.000 A 
ATOM     30  H   UNL     1       1.859   9.627  18.115  0.00  0.00    +0.000 HD
BRANCH  25  31
ATOM     31  C   UNL     1       0.199  11.696  19.215  0.00  0.00    +0.000 C 
ATOM     32  N   UNL     1       0.153  12.497  18.380  0.00  0.00    +0.000 NA
ENDBRANCH  25  31
ENDBRANCH  20  21
ENDBRANCH   1  20
TORSDOF 7
ENDMDL
MODEL 2
REMARK VINA RESULT:      -8.3      2.168      3.494
REMARK  Name = 
REMARK  10 active torsions:
REMARK  status: ('A' for Active; 'I' for Inactive)
REMARK    1  A    between atoms: C_1  and  C_2
REMARK    2  A    between atoms: C_4  and  C_5
REMARK    3  A    between atoms: C_6  and  S_7
REMARK    4  A    between atoms: S_7  and  N_10
REMARK    5  A    between atoms: N_10  and  C_11
REMARK    6  A    between atoms: C_11  and  C_12
REMARK    7  A    between atoms: C_11  and  C_24
REMARK    8  A    between atoms: C_12  and  C_13
REMARK    9  A    between atoms: C_17  and  C_18
REMARK   10  A    between atoms: C_28  and  C_29
REMARK                            x       y       z     vdW  Elec       q    Type
REMARK                         _______ _______ _______ _____ _____    ______ ____
ROOT
ATOM      1  C   UNL     1       3.392   4.940  17.921  0.00  0.00    +0.000 C 
ENDROOT
BRANCH   1   2
ATOM      2  C   UNL     1       2.144   4.034  17.740  0.00  0.00    +0.000 C 
ATOM      3  F   UNL     1       2.364   3.024  16.881  0.00  0.00    +0.000 F 
ATOM      4  F   UNL     1       1.748   3.519  18.924  0.00  0.00    +0.000 F 
ATOM      5  F   UNL     1       1.071   4.691  17.235  0.00  0.00    +0.000 F 
ENDBRANCH   1   2
BRANCH   1   6
ATOM      6  N   UNL     1       4.489   4.684  16.879  0.00  0.00    +0.000 NA
ATOM      7  H   UNL     1       4.567   5.407  16.165  0.00  0.00    +0.000 HD
BRANCH   6   8
ATOM      8  S   UNL     1       6.108   4.412  17.433  0.00  0.00    +0.000 S 
ATOM      9  O   UNL     1       6.798   3.760  16.341  0.00  0.00    +0.000 OA
ATOM     10  O   UNL     1       5.959   3.719  18.696  0.00  0.00    +0.000 OA
BRANCH   8  16
ATOM     11  C   UNL     1       8.835   9.882  18.157  0.00  0.00    +0.000 C 
ATOM     12  C   UNL     1       8.075   8.593  18.057  0.00  0.00    +0.000 A 
ATOM     13  C   UNL     1       7.073   8.406  17.110  0.00  0.00    +0.000 A 
ATOM     14  C   UNL     1       6.434   7.155  16.942  0.00  0.00    +0.000 A 
ATOM     15  C   UNL     1       5.353   7.105  15.894  0.00  0.00    +0.000 C 
ATOM     16  C   UNL     1       6.816   6.055  17.762  0.00  0.00    +0.000 A 
ATOM     17  C   UNL     1       7.759   6.273  18.806  0.00  0.00    +0.000 A 
ATOM     18  C   UNL     1       8.244   5.280  19.828  0.00  0.00    +0.000 C 
ATOM     19  C   UNL     1       8.372   7.542  18.921  0.00  0.00    +0.000 A 
ENDBRANCH   8  16
ENDBRANCH   6   8
ENDBRANCH   1   6
BRANCH   1  20
ATOM     20  C   UNL     1       2.839   6.385  17.886  0.00  0.00    +0.000 C 
BRANCH  20  21
ATOM     21  C   UNL     1       2.280   6.998  19.131  0.00  0.00    +0.000 A 
ATOM     22  C   UNL     1       2.161   6.348  20.350  0.00  0.00    +0.000 A 
ATOM     23  N   UNL     1       1.555   7.189  21.241  0.00  0.00    +0.000 N 
ATOM     24  C   UNL     1       1.315   8.403  20.642  0.00  0.00    +0.000 A 
ATOM     25  C   UNL     1       0.802   9.601  21.161  0.00  0.00    +0.000 A 
ATOM     26  C   UNL     1       0.623  10.681  20.293  0.00  0.00    +0.000 A 
ATOM     27  C   UNL     1       0.868  10.539  18.930  0.00  0.00    +0.000 A 
ATOM     28  C   UNL     1       1.358   9.333  18.416  0.00  0.00    +0.000 A 
ATOM     29  C   UNL     1       1.660   8.270  19.292  0.00  0.00    +0.000 A 
ATOM     30  H   UNL     1       1.317   6.954  22.198  0.00  0.00    +0.000 HD
BRANCH  25  31
ATOM     31  C   UNL     1       0.512   9.686  22.559  0.00  0.00    +0.000 C 
ATOM     32  N   UNL     1       0.281   9.718  23.694  0.00  0.00    +0.000 NA
ENDBRANCH  25  31
ENDBRANCH  20  21
ENDBRANCH   1  20
TORSDOF 7
ENDMDL
MODEL 3
REMARK VINA RESULT:      -8.1      4.317      9.376
REMARK  Name = 
REMARK  10 active torsions:
REMARK  status: ('A' for Active; 'I' for Inactive)
REMARK    1  A    between atoms: C_1  and  C_2
REMARK    2  A    between atoms: C_4  and  C_5
REMARK    3  A    between atoms: C_6  and  S_7
REMARK    4  A    between atoms: S_7  and  N_10
REMARK    5  A    between atoms: N_10  and  C_11
REMARK    6  A    between atoms: C_11  and  C_12
REMARK    7  A    between atoms: C_11  and  C_24
REMARK    8  A    between atoms: C_12  and  C_13
REMARK    9  A    between atoms: C_17  and  C_18
REMARK   10  A    between atoms: C_28  and  C_29
REMARK                            x       y       z     vdW  Elec       q    Type
REMARK                         _______ _______ _______ _____ _____    ______ ____
ROOT
ATOM      1  C   UNL     1       0.885  10.815  18.725  0.00  0.00    +0.000 C 
ENDROOT
BRANCH   1   2
ATOM      2  C   UNL     1      -0.562  10.376  18.376  0.00  0.00    +0.000 C 
ATOM      3  F   UNL     1      -1.186   9.796  19.416  0.00  0.00    +0.000 F 
ATOM      4  F   UNL     1      -1.297  11.430  17.961  0.00  0.00    +0.000 F 
ATOM      5  F   UNL     1      -0.621   9.459  17.381  0.00  0.00    +0.000 F 
ENDBRANCH   1   2
BRANCH   1   6
ATOM      6  N   UNL     1       1.072  11.188  20.202  0.00  0.00    +0.000 NA
ATOM      7  H   UNL     1       2.008  11.015  20.564  0.00  0.00    +0.000 HD
BRANCH   6   8
ATOM      8  S   UNL     1       0.679  12.799  20.703  0.00  0.00    +0.000 S 
ATOM      9  O   UNL     1       0.461  13.553  19.486  0.00  0.00    +0.000 OA
ATOM     10  O   UNL     1       1.751  13.185  21.596  0.00  0.00    +0.000 OA
BRANCH   8  16
ATOM     11  C   UNL     1      -4.296  12.687  24.326  0.00  0.00    +0.000 C 
ATOM     12  C   UNL     1      -3.157  12.660  23.351  0.00  0.00    +0.000 A 
ATOM     13  C   UNL     1      -2.957  13.684  22.430  0.00  0.00    +0.000 A 
ATOM     14  C   UNL     1      -1.822  13.715  21.587  0.00  0.00    +0.000 A 
ATOM     15  C   UNL     1      -1.749  14.872  20.625  0.00  0.00    +0.000 C 
ATOM     16  C   UNL     1      -0.855  12.672  21.672  0.00  0.00    +0.000 A 
ATOM     17  C   UNL     1      -1.113  11.566  22.531  0.00  0.00    +0.000 A 
ATOM     18  C   UNL     1      -0.272  10.332  22.716  0.00  0.00    +0.000 C 
ATOM     19  C   UNL     1      -2.260  11.594  23.358  0.00  0.00    +0.000 A 
ENDBRANCH   8  16
ENDBRANCH   6   8
ENDBRANCH   1   6
BRANCH   1  20
ATOM     20  C   UNL     1       1.777   9.633  18.274  0.00  0.00    +0.000 C 
BRANCH  20  21
ATOM     21  C   UNL     1       1.859   8.399  19.116  0.00  0.00    +0.000 A 
ATOM     22  C   UNL     1       1.447   8.313  20.437  0.00  0.00    +0.000 A 
ATOM     23  N   UNL     1       1.727   7.060  20.906  0.00  0.00    +0.000 N 
ATOM     24  C   UNL     1       2.275   6.301  19.898  0.00  0.00    +0.000 A 
ATOM     25  C   UNL     1       2.641   4.948  19.860  0.00  0.00    +0.000 A 
ATOM     26  C   UNL     1       3.226   4.448  18.693  0.00  0.00    +0.000 A 
ATOM     27  C   UNL     1       3.514   5.298  17.629  0.00  0.00    +0.000 A 
ATOM     28  C   UNL     1       3.167   6.653  17.684  0.00  0.00    +0.000 A 
ATOM     29  C   UNL     1       2.468   7.150  18.802  0.00  0.00    +0.000 A 
ATOM     30  H   UNL     1       1.559   6.738  21.852  0.00  0.00    +0.000 HD
BRANCH  25  31
ATOM     31  C   UNL     1       2.376   4.122  20.997  0.00  0.00    +0.000 C 
ATOM     32  N   UNL     1       2.165   3.483  21.940  0.00  0.00    +0.000 NA
ENDBRANCH  25  31
ENDBRANCH  20  21
ENDBRANCH   1  20
TORSDOF 7
ENDMDL
MODEL 4
REMARK VINA RESULT:      -8.1      2.055      3.347
REMARK  Name = 
REMARK  10 active torsions:
REMARK  status: ('A' for Active; 'I' for Inactive)
REMARK    1  A    between atoms: C_1  and  C_2
REMARK    2  A    between atoms: C_4  and  C_5
REMARK    3  A    between atoms: C_6  and  S_7
REMARK    4  A    between atoms: S_7  and  N_10
REMARK    5  A    between atoms: N_10  and  C_11
REMARK    6  A    between atoms: C_11  and  C_12
REMARK    7  A    between atoms: C_11  and  C_24
REMARK    8  A    between atoms: C_12  and  C_13
REMARK    9  A    between atoms: C_17  and  C_18
REMARK   10  A    between atoms: C_28  and  C_29
REMARK                            x       y       z     vdW  Elec       q    Type
REMARK                         _______ _______ _______ _____ _____    ______ ____
ROOT
ATOM      1  C   UNL     1       3.152   5.190  18.175  0.00  0.00    +0.000 C 
ENDROOT
BRANCH   1   2
ATOM      2  C   UNL     1       1.790   4.472  17.984  0.00  0.00    +0.000 C 
ATOM      3  F   UNL     1       1.191   4.190  19.154  0.00  0.00    +0.000 F 
ATOM      4  F   UNL     1       0.951   5.221  17.237  0.00  0.00    +0.000 F 
ATOM      5  F   UNL     1       1.895   3.277  17.353  0.00  0.00    +0.000 F 
ENDBRANCH   1   2
BRANCH   1   6
ATOM      6  N   UNL     1       4.225   4.742  17.173  0.00  0.00    +0.000 NA
ATOM      7  H   UNL     1       4.365   5.382  16.393  0.00  0.00    +0.000 HD
BRANCH   6   8
ATOM      8  S   UNL     1       5.815   4.391  17.766  0.00  0.00    +0.000 S 
ATOM      9  O   UNL     1       6.399   3.469  16.814  0.00  0.00    +0.000 OA
ATOM     10  O   UNL     1       5.618   3.969  19.137  0.00  0.00    +0.000 OA
BRANCH   8  16
ATOM     11  C   UNL     1       8.559   9.883  18.198  0.00  0.00    +0.000 C 
ATOM     12  C   UNL     1       7.988   8.508  18.016  0.00  0.00    +0.000 A 
ATOM     13  C   UNL     1       8.371   7.444  18.828  0.00  0.00    +0.000 A 
ATOM     14  C   UNL     1       7.752   6.176  18.731  0.00  0.00    +0.000 A 
ATOM     15  C   UNL     1       8.284   5.113  19.657  0.00  0.00    +0.000 C 
ATOM     16  C   UNL     1       6.715   5.972  17.777  0.00  0.00    +0.000 A 
ATOM     17  C   UNL     1       6.400   7.023  16.870  0.00  0.00    +0.000 A 
ATOM     18  C   UNL     1       5.401   6.997  15.744  0.00  0.00    +0.000 C 
ATOM     19  C   UNL     1       7.044   8.273  17.020  0.00  0.00    +0.000 A 
ENDBRANCH   8  16
ENDBRANCH   6   8
ENDBRANCH   1   6
BRANCH   1  20
ATOM     20  C   UNL     1       2.820   6.699  18.083  0.00  0.00    +0.000 C 
BRANCH  20  21
ATOM     21  C   UNL     1       2.164   7.388  19.237  0.00  0.00    +0.000 A 
ATOM     22  C   UNL     1       2.073   6.871  20.522  0.00  0.00    +0.000 A 
ATOM     23  N   UNL     1       1.358   7.740  21.297  0.00  0.00    +0.000 N 
ATOM     24  C   UNL     1       1.015   8.847  20.557  0.00  0.00    +0.000 A 
ATOM     25  C   UNL     1       0.367  10.036  20.923  0.00  0.00    +0.000 A 
ATOM     26  C   UNL     1       0.107  10.986  19.932  0.00  0.00    +0.000 A 
ATOM     27  C   UNL     1       0.408  10.716  18.600  0.00  0.00    +0.000 A 
ATOM     28  C   UNL     1       1.032   9.517  18.239  0.00  0.00    +0.000 A 
ATOM     29  C   UNL     1       1.413   8.598  19.238  0.00  0.00    +0.000 A 
ATOM     30  H   UNL     1       1.116   7.592  22.270  0.00  0.00    +0.000 HD
BRANCH  25  31
ATOM     31  C   UNL     1       0.027  10.249  22.296  0.00  0.00    +0.000 C 
ATOM     32  N   UNL     1      -0.220  10.399  23.418  0.00  0.00    +0.000 NA
ENDBRANCH  25  31
ENDBRANCH  20  21
ENDBRANCH   1  20
TORSDOF 7
ENDMDL
MODEL 5
REMARK VINA RESULT:      -8.0      1.019      2.147
REMARK  Name = 
REMARK  10 active torsions:
REMARK  status: ('A' for Active; 'I' for Inactive)
REMARK    1  A    between atoms: C_1  and  C_2
REMARK    2  A    between atoms: C_4  and  C_5
REMARK    3  A    between atoms: C_6  and  S_7
REMARK    4  A    between atoms: S_7  and  N_10
REMARK    5  A    between atoms: N_10  and  C_11
REMARK    6  A    between atoms: C_11  and  C_12
REMARK    7  A    between atoms: C_11  and  C_24
REMARK    8  A    between atoms: C_12  and  C_13
REMARK    9  A    between atoms: C_17  and  C_18
REMARK   10  A    between atoms: C_28  and  C_29
REMARK                            x       y       z     vdW  Elec       q    Type
REMARK                         _______ _______ _______ _____ _____    ______ ____
ROOT
ATOM      1  C   UNL     1       2.921   5.169  19.979  0.00  0.00    +0.000 C 
ENDROOT
BRANCH   1   2
ATOM      2  C   UNL     1       1.837   4.258  20.616  0.00  0.00    +0.000 C 
ATOM      3  F   UNL     1       1.674   3.107  19.940  0.00  0.00    +0.000 F 
ATOM      4  F   UNL     1       2.146   3.969  21.898  0.00  0.00    +0.000 F 
ATOM      5  F   UNL     1       0.606   4.823  20.641  0.00  0.00    +0.000 F 
ENDBRANCH   1   2
BRANCH   1   6
ATOM      6  N   UNL     1       4.224   4.430  19.648  0.00  0.00    +0.000 NA
ATOM      7  H   UNL     1       4.113   3.653  18.998  0.00  0.00    +0.000 HD
BRANCH   6   8
ATOM      8  S   UNL     1       5.562   5.347  19.039  0.00  0.00    +0.000 S 
ATOM      9  O   UNL     1       6.692   5.005  19.877  0.00  0.00    +0.000 OA
ATOM     10  O   UNL     1       5.092   6.716  19.001  0.00  0.00    +0.000 OA
BRANCH   8  16
ATOM     11  C   UNL     1       6.148   3.830  13.103  0.00  0.00    +0.000 C 
ATOM     12  C   UNL     1       6.106   4.122  14.573  0.00  0.00    +0.000 A 
ATOM     13  C   UNL     1       6.884   5.126  15.141  0.00  0.00    +0.000 A 
ATOM     14  C   UNL     1       6.763   5.477  16.506  0.00  0.00    +0.000 A 
ATOM     15  C   UNL     1       7.685   6.567  16.989  0.00  0.00    +0.000 C 
ATOM     16  C   UNL     1       5.828   4.786  17.329  0.00  0.00    +0.000 A 
ATOM     17  C   UNL     1       5.114   3.684  16.779  0.00  0.00    +0.000 A 
ATOM     18  C   UNL     1       4.142   2.776  17.484  0.00  0.00    +0.000 C 
ATOM     19  C   UNL     1       5.268   3.385  15.405  0.00  0.00    +0.000 A 
ENDBRANCH   8  16
ENDBRANCH   6   8
ENDBRANCH   1   6
BRANCH   1  20
ATOM     20  C   UNL     1       2.235   5.789  18.737  0.00  0.00    +0.000 C 
BRANCH  20  21
ATOM     21  C   UNL     1       1.981   7.262  18.684  0.00  0.00    +0.000 A 
ATOM     22  C   UNL     1       2.245   8.073  17.590  0.00  0.00    +0.000 A 
ATOM     23  N   UNL     1       1.948   9.367  17.918  0.00  0.00    +0.000 N 
ATOM     24  C   UNL     1       1.445   9.416  19.198  0.00  0.00    +0.000 A 
ATOM     25  C   UNL     1       0.923  10.484  19.941  0.00  0.00    +0.000 A 
ATOM     26  C   UNL     1       0.519  10.246  21.258  0.00  0.00    +0.000 A 
ATOM     27  C   UNL     1       0.715   8.997  21.840  0.00  0.00    +0.000 A 
ATOM     28  C   UNL     1       1.260   7.942  21.098  0.00  0.00    +0.000 A 
ATOM     29  C   UNL     1       1.561   8.128  19.734  0.00  0.00    +0.000 A 
ATOM     30  H   UNL     1       2.079  10.168  17.312  0.00  0.00    +0.000 HD
BRANCH  25  31
ATOM     31  C   UNL     1       0.790  11.766  19.320  0.00  0.00    +0.000 C 
ATOM     32  N   UNL     1       0.667  12.817  18.850  0.00  0.00    +0.000 NA
ENDBRANCH  25  31
ENDBRANCH  20  21
ENDBRANCH   1  20
TORSDOF 7
ENDMDL
MODEL 6
REMARK VINA RESULT:      -8.0      4.234      9.286
REMARK  Name = 
REMARK  10 active torsions:
REMARK  status: ('A' for Active; 'I' for Inactive)
REMARK    1  A    between atoms: C_1  and  C_2
REMARK    2  A    between atoms: C_4  and  C_5
REMARK    3  A    between atoms: C_6  and  S_7
REMARK    4  A    between atoms: S_7  and  N_10
REMARK    5  A    between atoms: N_10  and  C_11
REMARK    6  A    between atoms: C_11  and  C_12
REMARK    7  A    between atoms: C_11  and  C_24
REMARK    8  A    between atoms: C_12  and  C_13
REMARK    9  A    between atoms: C_17  and  C_18
REMARK   10  A    between atoms: C_28  and  C_29
REMARK                            x       y       z     vdW  Elec       q    Type
REMARK                         _______ _______ _______ _____ _____    ______ ____
ROOT
ATOM      1  C   UNL     1       0.919  10.672  18.697  0.00  0.00    +0.000 C 
ENDROOT
BRANCH   1   2
ATOM      2  C   UNL     1      -0.520  10.261  18.285  0.00  0.00    +0.000 C 
ATOM      3  F   UNL     1      -0.530   9.355  17.293  0.00  0.00    +0.000 F 
ATOM      4  F   UNL     1      -1.196   9.757  19.340  0.00  0.00    +0.000 F 
ATOM      5  F   UNL     1      -1.262  11.294  17.818  0.00  0.00    +0.000 F 
ENDBRANCH   1   2
BRANCH   1   6
ATOM      6  N   UNL     1       1.053  11.019  20.186  0.00  0.00    +0.000 NA
ATOM      7  H   UNL     1       1.920  10.700  20.615  0.00  0.00    +0.000 HD
BRANCH   6   8
ATOM      8  S   UNL     1       0.888  12.676  20.666  0.00  0.00    +0.000 S 
ATOM      9  O   UNL     1       0.616  13.416  19.452  0.00  0.00    +0.000 OA
ATOM     10  O   UNL     1       2.087  12.967  21.424  0.00  0.00    +0.000 OA
BRANCH   8  16
ATOM     11  C   UNL     1      -4.204  12.666  24.123  0.00  0.00    +0.000 C 
ATOM     12  C   UNL     1      -2.897  12.696  23.389  0.00  0.00    +0.000 A 
ATOM     13  C   UNL     1      -2.078  11.574  23.306  0.00  0.00    +0.000 A 
ATOM     14  C   UNL     1      -0.902  11.569  22.522  0.00  0.00    +0.000 A 
ATOM     15  C   UNL     1      -0.102  10.291  22.544  0.00  0.00    +0.000 C 
ATOM     16  C   UNL     1      -0.534  12.739  21.798  0.00  0.00    +0.000 A 
ATOM     17  C   UNL     1      -1.307  13.922  21.970  0.00  0.00    +0.000 A 
ATOM     18  C   UNL     1      -1.056  15.279  21.367  0.00  0.00    +0.000 C 
ATOM     19  C   UNL     1      -2.479  13.866  22.760  0.00  0.00    +0.000 A 
ENDBRANCH   8  16
ENDBRANCH   6   8
ENDBRANCH   1   6
BRANCH   1  20
ATOM     20  C   UNL     1       1.809   9.483  18.263  0.00  0.00    +0.000 C 
BRANCH  20  21
ATOM     21  C   UNL     1       1.892   8.261  19.122  0.00  0.00    +0.000 A 
ATOM     22  C   UNL     1       1.501   8.200  20.452  0.00  0.00    +0.000 A 
ATOM     23  N   UNL     1       1.774   6.950  20.934  0.00  0.00    +0.000 N 
ATOM     24  C   UNL     1       2.295   6.170  19.929  0.00  0.00    +0.000 A 
ATOM     25  C   UNL     1       2.645   4.812  19.906  0.00  0.00    +0.000 A 
ATOM     26  C   UNL     1       3.203   4.287  18.737  0.00  0.00    +0.000 A 
ATOM     27  C   UNL     1       3.484   5.117  17.655  0.00  0.00    +0.000 A 
ATOM     28  C   UNL     1       3.154   6.477  17.696  0.00  0.00    +0.000 A 
ATOM     29  C   UNL     1       2.480   7.000  18.817  0.00  0.00    +0.000 A 
ATOM     30  H   UNL     1       1.618   6.645  21.888  0.00  0.00    +0.000 HD
BRANCH  25  31
ATOM     31  C   UNL     1       2.390   4.006  21.060  0.00  0.00    +0.000 C 
ATOM     32  N   UNL     1       2.146   3.355  21.986  0.00  0.00    +0.000 NA
ENDBRANCH  25  31
ENDBRANCH  20  21
ENDBRANCH   1  20
TORSDOF 7
ENDMDL
MODEL 7
REMARK VINA RESULT:      -8.0      1.650      2.764
REMARK  Name = 
REMARK  10 active torsions:
REMARK  status: ('A' for Active; 'I' for Inactive)
REMARK    1  A    between atoms: C_1  and  C_2
REMARK    2  A    between atoms: C_4  and  C_5
REMARK    3  A    between atoms: C_6  and  S_7
REMARK    4  A    between atoms: S_7  and  N_10
REMARK    5  A    between atoms: N_10  and  C_11
REMARK    6  A    between atoms: C_11  and  C_12
REMARK    7  A    between atoms: C_11  and  C_24
REMARK    8  A    between atoms: C_12  and  C_13
REMARK    9  A    between atoms: C_17  and  C_18
REMARK   10  A    between atoms: C_28  and  C_29
REMARK                            x       y       z     vdW  Elec       q    Type
REMARK                         _______ _______ _______ _____ _____    ______ ____
ROOT
ATOM      1  C   UNL     1       2.940   4.436  19.179  0.00  0.00    +0.000 C 
ENDROOT
BRANCH   1   2
ATOM      2  C   UNL     1       1.524   3.963  18.754  0.00  0.00    +0.000 C 
ATOM      3  F   UNL     1       1.490   2.654  18.449  0.00  0.00    +0.000 F 
ATOM      4  F   UNL     1       0.623   4.205  19.730  0.00  0.00    +0.000 F 
ATOM      5  F   UNL     1       1.058   4.589  17.646  0.00  0.00    +0.000 F 
ENDBRANCH   1   2
BRANCH   1   6
ATOM      6  N   UNL     1       3.818   4.873  17.999  0.00  0.00    +0.000 NA
ATOM      7  H   UNL     1       3.834   5.879  17.838  0.00  0.00    +0.000 HD
BRANCH   6   8
ATOM      8  S   UNL     1       5.479   4.381  17.979  0.00  0.00    +0.000 S 
ATOM      9  O   UNL     1       5.640   3.571  16.790  0.00  0.00    +0.000 OA
ATOM     10  O   UNL     1       5.710   3.790  19.280  0.00  0.00    +0.000 OA
BRANCH   8  16
ATOM     11  C   UNL     1       8.535   9.725  17.989  0.00  0.00    +0.000 C 
ATOM     12  C   UNL     1       7.881   8.377  17.906  0.00  0.00    +0.000 A 
ATOM     13  C   UNL     1       8.258   7.329  18.740  0.00  0.00    +0.000 A 
ATOM     14  C   UNL     1       7.568   6.094  18.739  0.00  0.00    +0.000 A 
ATOM     15  C   UNL     1       8.101   5.043  19.678  0.00  0.00    +0.000 C 
ATOM     16  C   UNL     1       6.461   5.908  17.862  0.00  0.00    +0.000 A 
ATOM     17  C   UNL     1       6.145   6.936  16.930  0.00  0.00    +0.000 A 
ATOM     18  C   UNL     1       5.075   6.919  15.871  0.00  0.00    +0.000 C 
ATOM     19  C   UNL     1       6.864   8.154  16.983  0.00  0.00    +0.000 A 
ENDBRANCH   8  16
ENDBRANCH   6   8
ENDBRANCH   1   6
BRANCH   1  20
ATOM     20  C   UNL     1       2.687   5.565  20.207  0.00  0.00    +0.000 C 
BRANCH  20  21
ATOM     21  C   UNL     1       2.246   6.915  19.737  0.00  0.00    +0.000 A 
ATOM     22  C   UNL     1       2.625   7.499  18.537  0.00  0.00    +0.000 A 
ATOM     23  N   UNL     1       2.085   8.753  18.467  0.00  0.00    +0.000 N 
ATOM     24  C   UNL     1       1.315   8.988  19.583  0.00  0.00    +0.000 A 
ATOM     25  C   UNL     1       0.499  10.076  19.925  0.00  0.00    +0.000 A 
ATOM     26  C   UNL     1      -0.142  10.063  21.167  0.00  0.00    +0.000 A 
ATOM     27  C   UNL     1       0.096   9.034  22.073  0.00  0.00    +0.000 A 
ATOM     28  C   UNL     1       0.931   7.963  21.733  0.00  0.00    +0.000 A 
ATOM     29  C   UNL     1       1.491   7.896  20.441  0.00  0.00    +0.000 A 
ATOM     30  H   UNL     1       2.230   9.410  17.710  0.00  0.00    +0.000 HD
BRANCH  25  31
ATOM     31  C   UNL     1       0.326  11.140  18.986  0.00  0.00    +0.000 C 
ATOM     32  N   UNL     1       0.153  11.985  18.213  0.00  0.00    +0.000 NA
ENDBRANCH  25  31
ENDBRANCH  20  21
ENDBRANCH   1  20
TORSDOF 7
ENDMDL
MODEL 8
REMARK VINA RESULT:      -8.0      0.363      1.765
REMARK  Name = 
REMARK  10 active torsions:
REMARK  status: ('A' for Active; 'I' for Inactive)
REMARK    1  A    between atoms: C_1  and  C_2
REMARK    2  A    between atoms: C_4  and  C_5
REMARK    3  A    between atoms: C_6  and  S_7
REMARK    4  A    between atoms: S_7  and  N_10
REMARK    5  A    between atoms: N_10  and  C_11
REMARK    6  A    between atoms: C_11  and  C_12
REMARK    7  A    between atoms: C_11  and  C_24
REMARK    8  A    between atoms: C_12  and  C_13
REMARK    9  A    between atoms: C_17  and  C_18
REMARK   10  A    between atoms: C_28  and  C_29
REMARK                            x       y       z     vdW  Elec       q    Type
REMARK                         _______ _______ _______ _____ _____    ______ ____
ROOT
ATOM      1  C   UNL     1       2.543   4.766  20.131  0.00  0.00    +0.000 C 
ENDROOT
BRANCH   1   2
ATOM      2  C   UNL     1       1.410   4.005  19.392  0.00  0.00    +0.000 C 
ATOM      3  F   UNL     1       1.703   2.707  19.204  0.00  0.00    +0.000 F 
ATOM      4  F   UNL     1       0.247   4.094  20.073  0.00  0.00    +0.000 F 
ATOM      5  F   UNL     1       1.159   4.488  18.151  0.00  0.00    +0.000 F 
ENDBRANCH   1   2
BRANCH   1   6
ATOM      6  N   UNL     1       3.627   5.312  19.192  0.00  0.00    +0.000 NA
ATOM      7  H   UNL     1       3.806   6.309  19.293  0.00  0.00    +0.000 HD
BRANCH   6   8
ATOM      8  S   UNL     1       5.189   4.562  19.210  0.00  0.00    +0.000 S 
ATOM      9  O   UNL     1       4.983   3.228  19.733  0.00  0.00    +0.000 OA
ATOM     10  O   UNL     1       6.039   5.486  19.932  0.00  0.00    +0.000 OA
BRANCH   8  16
ATOM     11  C   UNL     1       6.887   4.844  13.301  0.00  0.00    +0.000 C 
ATOM     12  C   UNL     1       6.548   4.670  14.751  0.00  0.00    +0.000 A 
ATOM     13  C   UNL     1       7.346   5.207  15.758  0.00  0.00    +0.000 A 
ATOM     14  C   UNL     1       6.969   5.140  17.119  0.00  0.00    +0.000 A 
ATOM     15  C   UNL     1       7.941   5.742  18.101  0.00  0.00    +0.000 C 
ATOM     16  C   UNL     1       5.746   4.504  17.480  0.00  0.00    +0.000 A 
ATOM     17  C   UNL     1       4.985   3.856  16.466  0.00  0.00    +0.000 A 
ATOM     18  C   UNL     1       3.714   3.068  16.633  0.00  0.00    +0.000 C 
ATOM     19  C   UNL     1       5.406   3.964  15.120  0.00  0.00    +0.000 A 
ENDBRANCH   8  16
ENDBRANCH   6   8
ENDBRANCH   1   6
BRANCH   1  20
ATOM     20  C   UNL     1       1.816   5.871  20.936  0.00  0.00    +0.000 C 
BRANCH  20  21
ATOM     21  C   UNL     1       1.639   7.231  20.340  0.00  0.00    +0.000 A 
ATOM     22  C   UNL     1       2.108   7.618  19.094  0.00  0.00    +0.000 A 
ATOM     23  N   UNL     1       1.819   8.941  18.904  0.00  0.00    +0.000 N 
ATOM     24  C   UNL     1       1.123   9.422  19.988  0.00  0.00    +0.000 A 
ATOM     25  C   UNL     1       0.536  10.674  20.223  0.00  0.00    +0.000 A 
ATOM     26  C   UNL     1      -0.081  10.900  21.457  0.00  0.00    +0.000 A 
ATOM     27  C   UNL     1      -0.035   9.932  22.456  0.00  0.00    +0.000 A 
ATOM     28  C   UNL     1       0.574   8.694  22.221  0.00  0.00    +0.000 A 
ATOM     29  C   UNL     1       1.095   8.401  20.945  0.00  0.00    +0.000 A 
ATOM     30  H   UNL     1       2.079   9.485  18.090  0.00  0.00    +0.000 HD
BRANCH  25  31
ATOM     31  C   UNL     1       0.560  11.660  19.188  0.00  0.00    +0.000 C 
ATOM     32  N   UNL     1       0.542  12.466  18.356  0.00  0.00    +0.000 NA
ENDBRANCH  25  31
ENDBRANCH  20  21
ENDBRANCH   1  20
TORSDOF 7
ENDMDL
MODEL 9
REMARK VINA RESULT:      -7.9      1.374      2.604
REMARK  Name = 
REMARK  10 active torsions:
REMARK  status: ('A' for Active; 'I' for Inactive)
REMARK    1  A    between atoms: C_1  and  C_2
REMARK    2  A    between atoms: C_4  and  C_5
REMARK    3  A    between atoms: C_6  and  S_7
REMARK    4  A    between atoms: S_7  and  N_10
REMARK    5  A    between atoms: N_10  and  C_11
REMARK    6  A    between atoms: C_11  and  C_12
REMARK    7  A    between atoms: C_11  and  C_24
REMARK    8  A    between atoms: C_12  and  C_13
REMARK    9  A    between atoms: C_17  and  C_18
REMARK   10  A    between atoms: C_28  and  C_29
REMARK                            x       y       z     vdW  Elec       q    Type
REMARK                         _______ _______ _______ _____ _____    ______ ____
ROOT
ATOM      1  C   UNL     1       2.949   4.773  20.354  0.00  0.00    +0.000 C 
ENDROOT
BRANCH   1   2
ATOM      2  C   UNL     1       1.951   3.686  20.837  0.00  0.00    +0.000 C 
ATOM      3  F   UNL     1       0.680   3.977  20.511  0.00  0.00    +0.000 F 
ATOM      4  F   UNL     1       2.267   2.479  20.321  0.00  0.00    +0.000 F 
ATOM      5  F   UNL     1       1.937   3.530  22.183  0.00  0.00    +0.000 F 
ENDBRANCH   1   2
BRANCH   1   6
ATOM      6  N   UNL     1       4.167   4.199  19.617  0.00  0.00    +0.000 NA
ATOM      7  H   UNL     1       3.936   3.597  18.828  0.00  0.00    +0.000 HD
BRANCH   6   8
ATOM      8  S   UNL     1       5.362   5.301  19.015  0.00  0.00    +0.000 S 
ATOM      9  O   UNL     1       6.517   5.143  19.875  0.00  0.00    +0.000 OA
ATOM     10  O   UNL     1       4.692   6.583  18.952  0.00  0.00    +0.000 OA
BRANCH   8  16
ATOM     11  C   UNL     1       6.334   3.882  13.105  0.00  0.00    +0.000 C 
ATOM     12  C   UNL     1       6.196   4.148  14.575  0.00  0.00    +0.000 A 
ATOM     13  C   UNL     1       6.942   5.135  15.212  0.00  0.00    +0.000 A 
ATOM     14  C   UNL     1       6.732   5.462  16.572  0.00  0.00    +0.000 A 
ATOM     15  C   UNL     1       7.629   6.535  17.136  0.00  0.00    +0.000 C 
ATOM     16  C   UNL     1       5.738   4.767  17.317  0.00  0.00    +0.000 A 
ATOM     17  C   UNL     1       5.052   3.682  16.701  0.00  0.00    +0.000 A 
ATOM     18  C   UNL     1       4.027   2.771  17.322  0.00  0.00    +0.000 C 
ATOM     19  C   UNL     1       5.296   3.406  15.335  0.00  0.00    +0.000 A 
ENDBRANCH   8  16
ENDBRANCH   6   8
ENDBRANCH   1   6
BRANCH   1  20
ATOM     20  C   UNL     1       2.100   5.729  19.482  0.00  0.00    +0.000 C 
BRANCH  20  21
ATOM     21  C   UNL     1       1.649   7.042  20.039  0.00  0.00    +0.000 A 
ATOM     22  C   UNL     1       1.120   7.225  21.308  0.00  0.00    +0.000 A 
ATOM     23  N   UNL     1       0.764   8.537  21.453  0.00  0.00    +0.000 N 
ATOM     24  C   UNL     1       1.095   9.234  20.315  0.00  0.00    +0.000 A 
ATOM     25  C   UNL     1       1.012  10.602  20.017  0.00  0.00    +0.000 A 
ATOM     26  C   UNL     1       1.385  11.030  18.740  0.00  0.00    +0.000 A 
ATOM     27  C   UNL     1       1.745  10.105  17.763  0.00  0.00    +0.000 A 
ATOM     28  C   UNL     1       1.802   8.739  18.062  0.00  0.00    +0.000 A 
ATOM     29  C   UNL     1       1.548   8.299  19.377  0.00  0.00    +0.000 A 
ATOM     30  H   UNL     1       0.323   8.935  22.274  0.00  0.00    +0.000 HD
BRANCH  25  31
ATOM     31  C   UNL     1       0.583  11.512  21.034  0.00  0.00    +0.000 C 
ATOM     32  N   UNL     1       0.260  12.274  21.844  0.00  0.00    +0.000 NA
ENDBRANCH  25  31
ENDBRANCH  20  21
ENDBRANCH   1  20
TORSDOF 7
ENDMDL
