MODEL 1
REMARK VINA RESULT:      -8.3      0.000      0.000
REMARK  Name = 
REMARK  3 active torsions:
REMARK  status: ('A' for Active; 'I' for Inactive)
REMARK    1  A    between atoms: C_1  and  C_2
REMARK    2  A    between atoms: C_5  and  S_6
REMARK    3  A    between atoms: S_6  and  N_9
REMARK                            x       y       z     vdW  Elec       q    Type
REMARK                         _______ _______ _______ _____ _____    ______ ____
ROOT
ATOM      1  N   UNL     1       6.240   4.567  17.742  0.00  0.00    +0.000 N 
ATOM      2  C   UNL     1       6.330   4.461  16.362  0.00  0.00    +0.000 A 
ATOM      3  C   UNL     1       7.381   4.681  15.453  0.00  0.00    +0.000 A 
ATOM      4  C   UNL     1       7.149   4.433  14.095  0.00  0.00    +0.000 A 
ATOM      5  C   UNL     1       5.907   3.990  13.654  0.00  0.00    +0.000 A 
ATOM      6 BR   UNL     1       5.633   3.649  11.813  0.00  0.00    +0.000 Br
ATOM      7  C   UNL     1       4.856   3.790  14.550  0.00  0.00    +0.000 A 
ATOM      8  C   UNL     1       5.066   4.034  15.924  0.00  0.00    +0.000 A 
ATOM      9  C   UNL     1       4.226   3.951  17.068  0.00  0.00    +0.000 A 
ATOM     10  N   UNL     1       2.925   3.583  17.172  0.00  0.00    +0.000 NA
ATOM     11  C   UNL     1       2.433   3.609  18.424  0.00  0.00    +0.000 A 
ATOM     12  C   UNL     1       1.119   3.214  18.635  0.00  0.00    +0.000 A 
ATOM     13  C   UNL     1       0.556   3.199  19.912  0.00  0.00    +0.000 A 
ATOM     14  C   UNL     1       1.320   3.590  21.003  0.00  0.00    +0.000 A 
ATOM     15  C   UNL     1       2.640   3.996  20.806  0.00  0.00    +0.000 A 
ATOM     16  C   UNL     1       3.210   4.014  19.542  0.00  0.00    +0.000 A 
ATOM     17  N   UNL     1       4.488   4.400  19.433  0.00  0.00    +0.000 NA
ATOM     18  C   UNL     1       4.966   4.336  18.176  0.00  0.00    +0.000 A 
ENDROOT
BRANCH   1  19
ATOM     19  S   UNL     1       7.473   5.147  18.745  0.00  0.00    +0.000 S 
ATOM     20  O   UNL     1       8.651   4.403  18.340  0.00  0.00    +0.000 OA
ATOM     21  O   UNL     1       6.951   5.062  20.098  0.00  0.00    +0.000 OA
BRANCH  19  26
ATOM     22  C   UNL     1       8.166  11.077  17.652  0.00  0.00    +0.000 C 
ATOM     23  C   UNL     1       8.016   9.603  17.888  0.00  0.00    +0.000 A 
ATOM     24  C   UNL     1       7.057   8.860  17.189  0.00  0.00    +0.000 A 
ATOM     25  C   UNL     1       6.902   7.494  17.435  0.00  0.00    +0.000 A 
ATOM     26  C   UNL     1       7.706   6.868  18.393  0.00  0.00    +0.000 A 
ATOM     27  C   UNL     1       8.690   7.590  19.075  0.00  0.00    +0.000 A 
ATOM     28  C   UNL     1       8.836   8.957  18.826  0.00  0.00    +0.000 A 
ENDBRANCH  19  26
ENDBRANCH   1  19
TORSDOF 2
ENDMDL
MODEL 2
REMARK VINA RESULT:      -7.9     10.300     12.267
REMARK  Name = 
REMARK  3 active torsions:
REMARK  status: ('A' for Active; 'I' for Inactive)
REMARK    1  A    between atoms: C_1  and  C_2
REMARK    2  A    between atoms: C_5  and  S_6
REMARK    3  A    between atoms: S_6  and  N_9
REMARK                            x       y       z     vdW  Elec       q    Type
REMARK                         _______ _______ _______ _____ _____    ______ ____
ROOT
ATOM      1  N   UNL     1      -2.250  12.783  21.416  0.00  0.00    +0.000 N 
ATOM      2  C   UNL     1      -3.315  13.114  22.241  0.00  0.00    +0.000 A 
ATOM      3  C   UNL     1      -3.388  13.563  23.572  0.00  0.00    +0.000 A 
ATOM      4  C   UNL     1      -4.649  13.856  24.106  0.00  0.00    +0.000 A 
ATOM      5  C   UNL     1      -5.800  13.698  23.343  0.00  0.00    +0.000 A 
ATOM      6 BR   UNL     1      -7.486  14.118  24.092  0.00  0.00    +0.000 Br
ATOM      7  C   UNL     1      -5.733  13.232  22.029  0.00  0.00    +0.000 A 
ATOM      8  C   UNL     1      -4.474  12.930  21.469  0.00  0.00    +0.000 A 
ATOM      9  C   UNL     1      -4.065  12.432  20.202  0.00  0.00    +0.000 A 
ATOM     10  N   UNL     1      -4.803  12.103  19.113  0.00  0.00    +0.000 NA
ATOM     11  C   UNL     1      -4.087  11.665  18.062  0.00  0.00    +0.000 A 
ATOM     12  C   UNL     1      -4.753  11.339  16.888  0.00  0.00    +0.000 A 
ATOM     13  C   UNL     1      -4.065  10.898  15.756  0.00  0.00    +0.000 A 
ATOM     14  C   UNL     1      -2.683  10.777  15.796  0.00  0.00    +0.000 A 
ATOM     15  C   UNL     1      -2.001  11.096  16.970  0.00  0.00    +0.000 A 
ATOM     16  C   UNL     1      -2.673  11.535  18.100  0.00  0.00    +0.000 A 
ATOM     17  N   UNL     1      -1.949  11.838  19.186  0.00  0.00    +0.000 NA
ATOM     18  C   UNL     1      -2.684  12.303  20.213  0.00  0.00    +0.000 A 
ENDROOT
BRANCH   1  19
ATOM     19  S   UNL     1      -0.631  12.739  21.905  0.00  0.00    +0.000 S 
ATOM     20  O   UNL     1      -0.674  13.016  23.329  0.00  0.00    +0.000 OA
ATOM     21  O   UNL     1       0.081  13.610  20.985  0.00  0.00    +0.000 OA
BRANCH  19  26
ATOM     22  C   UNL     1       1.338   7.087  20.896  0.00  0.00    +0.000 C 
ATOM     23  C   UNL     1       0.881   8.489  21.174  0.00  0.00    +0.000 A 
ATOM     24  C   UNL     1       0.088   8.776  22.292  0.00  0.00    +0.000 A 
ATOM     25  C   UNL     1      -0.359  10.078  22.529  0.00  0.00    +0.000 A 
ATOM     26  C   UNL     1      -0.019  11.098  21.636  0.00  0.00    +0.000 A 
ATOM     27  C   UNL     1       0.799  10.834  20.533  0.00  0.00    +0.000 A 
ATOM     28  C   UNL     1       1.239   9.529  20.302  0.00  0.00    +0.000 A 
ENDBRANCH  19  26
ENDBRANCH   1  19
TORSDOF 2
ENDMDL
MODEL 3
REMARK VINA RESULT:      -7.7     10.036     11.755
REMARK  Name = 
REMARK  3 active torsions:
REMARK  status: ('A' for Active; 'I' for Inactive)
REMARK    1  A    between atoms: C_1  and  C_2
REMARK    2  A    between atoms: C_5  and  S_6
REMARK    3  A    between atoms: S_6  and  N_9
REMARK                            x       y       z     vdW  Elec       q    Type
REMARK                         _______ _______ _______ _____ _____    ______ ____
ROOT
ATOM      1  N   UNL     1      -1.876  12.398  21.333  0.00  0.00    +0.000 N 
ATOM      2  C   UNL     1      -2.848  13.009  22.111  0.00  0.00    +0.000 A 
ATOM      3  C   UNL     1      -2.835  13.535  23.416  0.00  0.00    +0.000 A 
ATOM      4  C   UNL     1      -4.002  14.139  23.901  0.00  0.00    +0.000 A 
ATOM      5  C   UNL     1      -5.147  14.209  23.116  0.00  0.00    +0.000 A 
ATOM      6 BR   UNL     1      -6.701  15.046  23.797  0.00  0.00    +0.000 Br
ATOM      7  C   UNL     1      -5.170  13.669  21.829  0.00  0.00    +0.000 A 
ATOM      8  C   UNL     1      -4.007  13.055  21.319  0.00  0.00    +0.000 A 
ATOM      9  C   UNL     1      -3.705  12.408  20.090  0.00  0.00    +0.000 A 
ATOM     10  N   UNL     1      -4.483  12.198  18.999  0.00  0.00    +0.000 NA
ATOM     11  C   UNL     1      -3.873  11.551  17.990  0.00  0.00    +0.000 A 
ATOM     12  C   UNL     1      -4.579  11.322  16.817  0.00  0.00    +0.000 A 
ATOM     13  C   UNL     1      -3.995  10.674  15.727  0.00  0.00    +0.000 A 
ATOM     14  C   UNL     1      -2.679  10.241  15.811  0.00  0.00    +0.000 A 
ATOM     15  C   UNL     1      -1.959  10.458  16.985  0.00  0.00    +0.000 A 
ATOM     16  C   UNL     1      -2.528  11.102  18.074  0.00  0.00    +0.000 A 
ATOM     17  N   UNL     1      -1.769  11.289  19.161  0.00  0.00    +0.000 NA
ATOM     18  C   UNL     1      -2.392  11.966  20.145  0.00  0.00    +0.000 A 
ENDROOT
BRANCH   1  19
ATOM     19  S   UNL     1      -0.319  12.010  21.867  0.00  0.00    +0.000 S 
ATOM     20  O   UNL     1      -0.532  11.236  23.076  0.00  0.00    +0.000 OA
ATOM     21  O   UNL     1       0.413  13.265  21.890  0.00  0.00    +0.000 OA
BRANCH  19  26
ATOM     22  C   UNL     1       2.443   8.530  17.731  0.00  0.00    +0.000 C 
ATOM     23  C   UNL     1       1.728   9.394  18.728  0.00  0.00    +0.000 A 
ATOM     24  C   UNL     1       1.703  10.786  18.582  0.00  0.00    +0.000 A 
ATOM     25  C   UNL     1       1.061  11.587  19.529  0.00  0.00    +0.000 A 
ATOM     26  C   UNL     1       0.448  10.992  20.635  0.00  0.00    +0.000 A 
ATOM     27  C   UNL     1       0.436   9.601  20.778  0.00  0.00    +0.000 A 
ATOM     28  C   UNL     1       1.083   8.808  19.828  0.00  0.00    +0.000 A 
ENDBRANCH  19  26
ENDBRANCH   1  19
TORSDOF 2
ENDMDL
MODEL 4
REMARK VINA RESULT:      -7.6     10.287     12.045
REMARK  Name = 
REMARK  3 active torsions:
REMARK  status: ('A' for Active; 'I' for Inactive)
REMARK    1  A    between atoms: C_1  and  C_2
REMARK    2  A    between atoms: C_5  and  S_6
REMARK    3  A    between atoms: S_6  and  N_9
REMARK                            x       y       z     vdW  Elec       q    Type
REMARK                         _______ _______ _______ _____ _____    ______ ____
ROOT
ATOM      1  N   UNL     1      -2.228  12.629  21.343  0.00  0.00    +0.000 N 
ATOM      2  C   UNL     1      -3.279  12.971  22.180  0.00  0.00    +0.000 A 
ATOM      3  C   UNL     1      -3.335  13.387  23.523  0.00  0.00    +0.000 A 
ATOM      4  C   UNL     1      -4.584  13.706  24.070  0.00  0.00    +0.000 A 
ATOM      5  C   UNL     1      -5.742  13.604  23.307  0.00  0.00    +0.000 A 
ATOM      6 BR   UNL     1      -7.411  14.058  24.073  0.00  0.00    +0.000 Br
ATOM      7  C   UNL     1      -5.693  13.172  21.981  0.00  0.00    +0.000 A 
ATOM      8  C   UNL     1      -4.446  12.844  21.409  0.00  0.00    +0.000 A 
ATOM      9  C   UNL     1      -4.057  12.367  20.127  0.00  0.00    +0.000 A 
ATOM     10  N   UNL     1      -4.808  12.090  19.032  0.00  0.00    +0.000 NA
ATOM     11  C   UNL     1      -4.110  11.658  17.968  0.00  0.00    +0.000 A 
ATOM     12  C   UNL     1      -4.789  11.383  16.789  0.00  0.00    +0.000 A 
ATOM     13  C   UNL     1      -4.120  10.950  15.642  0.00  0.00    +0.000 A 
ATOM     14  C   UNL     1      -2.742  10.785  15.674  0.00  0.00    +0.000 A 
ATOM     15  C   UNL     1      -2.047  11.051  16.854  0.00  0.00    +0.000 A 
ATOM     16  C   UNL     1      -2.701  11.482  17.998  0.00  0.00    +0.000 A 
ATOM     17  N   UNL     1      -1.964  11.733  19.087  0.00  0.00    +0.000 NA
ATOM     18  C   UNL     1      -2.681  12.194  20.130  0.00  0.00    +0.000 A 
ENDROOT
BRANCH   1  19
ATOM     19  S   UNL     1      -0.610  12.521  21.824  0.00  0.00    +0.000 S 
ATOM     20  O   UNL     1      -0.662  11.897  23.134  0.00  0.00    +0.000 OA
ATOM     21  O   UNL     1      -0.056  13.851  21.640  0.00  0.00    +0.000 OA
BRANCH  19  26
ATOM     22  C   UNL     1       2.145   8.859  17.844  0.00  0.00    +0.000 C 
ATOM     23  C   UNL     1       1.495   9.759  18.854  0.00  0.00    +0.000 A 
ATOM     24  C   UNL     1       0.794   9.225  19.942  0.00  0.00    +0.000 A 
ATOM     25  C   UNL     1       0.166  10.067  20.863  0.00  0.00    +0.000 A 
ATOM     26  C   UNL     1       0.232  11.453  20.689  0.00  0.00    +0.000 A 
ATOM     27  C   UNL     1       0.956  12.001  19.626  0.00  0.00    +0.000 A 
ATOM     28  C   UNL     1       1.578  11.152  18.708  0.00  0.00    +0.000 A 
ENDBRANCH  19  26
ENDBRANCH   1  19
TORSDOF 2
ENDMDL
MODEL 5
REMARK VINA RESULT:      -7.6      9.905     12.001
REMARK  Name = 
REMARK  3 active torsions:
REMARK  status: ('A' for Active; 'I' for Inactive)
REMARK    1  A    between atoms: C_1  and  C_2
REMARK    2  A    between atoms: C_5  and  S_6
REMARK    3  A    between atoms: S_6  and  N_9
REMARK                            x       y       z     vdW  Elec       q    Type
REMARK                         _______ _______ _______ _____ _____    ______ ____
ROOT
ATOM      1  N   UNL     1      -0.624  12.998  21.492  0.00  0.00    +0.000 N 
ATOM      2  C   UNL     1      -0.742  14.188  20.790  0.00  0.00    +0.000 A 
ATOM      3  C   UNL     1      -1.313  15.434  21.110  0.00  0.00    +0.000 A 
ATOM      4  C   UNL     1      -1.222  16.468  20.170  0.00  0.00    +0.000 A 
ATOM      5  C   UNL     1      -0.592  16.267  18.947  0.00  0.00    +0.000 A 
ATOM      6 BR   UNL     1      -0.474  17.691  17.708  0.00  0.00    +0.000 Br
ATOM      7  C   UNL     1      -0.044  15.026  18.618  0.00  0.00    +0.000 A 
ATOM      8  C   UNL     1      -0.123  13.969  19.548  0.00  0.00    +0.000 A 
ATOM      9  C   UNL     1       0.304  12.613  19.521  0.00  0.00    +0.000 A 
ATOM     10  N   UNL     1       0.953  11.920  18.553  0.00  0.00    +0.000 NA
ATOM     11  C   UNL     1       1.217  10.638  18.861  0.00  0.00    +0.000 A 
ATOM     12  C   UNL     1       1.911   9.859  17.946  0.00  0.00    +0.000 A 
ATOM     13  C   UNL     1       2.233   8.527  18.215  0.00  0.00    +0.000 A 
ATOM     14  C   UNL     1       1.850   7.959  19.422  0.00  0.00    +0.000 A 
ATOM     15  C   UNL     1       1.147   8.728  20.349  0.00  0.00    +0.000 A 
ATOM     16  C   UNL     1       0.823  10.052  20.093  0.00  0.00    +0.000 A 
ATOM     17  N   UNL     1       0.161  10.731  21.039  0.00  0.00    +0.000 NA
ATOM     18  C   UNL     1      -0.064  12.020  20.720  0.00  0.00    +0.000 A 
ENDROOT
BRANCH   1  19
ATOM     19  S   UNL     1      -1.302  12.707  23.014  0.00  0.00    +0.000 S 
ATOM     20  O   UNL     1      -0.836  13.810  23.835  0.00  0.00    +0.000 OA
ATOM     21  O   UNL     1      -0.969  11.330  23.335  0.00  0.00    +0.000 OA
BRANCH  19  26
ATOM     22  C   UNL     1      -7.348  12.820  22.494  0.00  0.00    +0.000 C 
ATOM     23  C   UNL     1      -5.852  12.831  22.610  0.00  0.00    +0.000 A 
ATOM     24  C   UNL     1      -5.044  12.691  21.475  0.00  0.00    +0.000 A 
ATOM     25  C   UNL     1      -3.653  12.673  21.593  0.00  0.00    +0.000 A 
ATOM     26  C   UNL     1      -3.065  12.786  22.856  0.00  0.00    +0.000 A 
ATOM     27  C   UNL     1      -3.857  12.959  23.995  0.00  0.00    +0.000 A 
ATOM     28  C   UNL     1      -5.248  12.973  23.869  0.00  0.00    +0.000 A 
ENDBRANCH  19  26
ENDBRANCH   1  19
TORSDOF 2
ENDMDL
MODEL 6
REMARK VINA RESULT:      -7.5     10.399     12.080
REMARK  Name = 
REMARK  3 active torsions:
REMARK  status: ('A' for Active; 'I' for Inactive)
REMARK    1  A    between atoms: C_1  and  C_2
REMARK    2  A    between atoms: C_5  and  S_6
REMARK    3  A    between atoms: S_6  and  N_9
REMARK                            x       y       z     vdW  Elec       q    Type
REMARK                         _______ _______ _______ _____ _____    ______ ____
ROOT
ATOM      1  N   UNL     1      -2.072  12.637  21.368  0.00  0.00    +0.000 N 
ATOM      2  C   UNL     1      -3.117  13.055  22.178  0.00  0.00    +0.000 A 
ATOM      3  C   UNL     1      -3.168  13.530  23.501  0.00  0.00    +0.000 A 
ATOM      4  C   UNL     1      -4.409  13.920  24.020  0.00  0.00    +0.000 A 
ATOM      5  C   UNL     1      -5.563  13.831  23.249  0.00  0.00    +0.000 A 
ATOM      6 BR   UNL     1      -7.221  14.382  23.977  0.00  0.00    +0.000 Br
ATOM      7  C   UNL     1      -5.519  13.341  21.943  0.00  0.00    +0.000 A 
ATOM      8  C   UNL     1      -4.280  12.941  21.399  0.00  0.00    +0.000 A 
ATOM      9  C   UNL     1      -3.898  12.395  20.144  0.00  0.00    +0.000 A 
ATOM     10  N   UNL     1      -4.649  12.101  19.053  0.00  0.00    +0.000 NA
ATOM     11  C   UNL     1      -3.958  11.596  18.016  0.00  0.00    +0.000 A 
ATOM     12  C   UNL     1      -4.637  11.298  16.842  0.00  0.00    +0.000 A 
ATOM     13  C   UNL     1      -3.974  10.791  15.722  0.00  0.00    +0.000 A 
ATOM     14  C   UNL     1      -2.604  10.574  15.777  0.00  0.00    +0.000 A 
ATOM     15  C   UNL     1      -1.910  10.863  16.951  0.00  0.00    +0.000 A 
ATOM     16  C   UNL     1      -2.558  11.368  18.069  0.00  0.00    +0.000 A 
ATOM     17  N   UNL     1      -1.822  11.636  19.155  0.00  0.00    +0.000 NA
ATOM     18  C   UNL     1      -2.530  12.169  20.169  0.00  0.00    +0.000 A 
ENDROOT
BRANCH   1  19
ATOM     19  S   UNL     1      -0.464  12.487  21.871  0.00  0.00    +0.000 S 
ATOM     20  O   UNL     1      -0.216  11.056  21.874  0.00  0.00    +0.000 OA
ATOM     21  O   UNL     1      -0.357  13.276  23.086  0.00  0.00    +0.000 OA
BRANCH  19  26
ATOM     22  C   UNL     1       3.173  15.196  17.837  0.00  0.00    +0.000 C 
ATOM     23  C   UNL     1       2.244  14.523  18.806  0.00  0.00    +0.000 A 
ATOM     24  C   UNL     1       1.228  15.246  19.443  0.00  0.00    +0.000 A 
ATOM     25  C   UNL     1       0.386  14.621  20.365  0.00  0.00    +0.000 A 
ATOM     26  C   UNL     1       0.568  13.267  20.660  0.00  0.00    +0.000 A 
ATOM     27  C   UNL     1       1.557  12.524  20.007  0.00  0.00    +0.000 A 
ATOM     28  C   UNL     1       2.397  13.157  19.089  0.00  0.00    +0.000 A 
ENDBRANCH  19  26
ENDBRANCH   1  19
TORSDOF 2
ENDMDL
MODEL 7
REMARK VINA RESULT:      -7.4      7.416      9.733
REMARK  Name = 
REMARK  3 active torsions:
REMARK  status: ('A' for Active; 'I' for Inactive)
REMARK    1  A    between atoms: C_1  and  C_2
REMARK    2  A    between atoms: C_5  and  S_6
REMARK    3  A    between atoms: S_6  and  N_9
REMARK                            x       y       z     vdW  Elec       q    Type
REMARK                         _______ _______ _______ _____ _____    ______ ____
ROOT
ATOM      1  N   UNL     1       0.147  10.664  20.185  0.00  0.00    +0.000 N 
ATOM      2  C   UNL     1      -0.824  10.537  19.203  0.00  0.00    +0.000 A 
ATOM      3  C   UNL     1      -1.666   9.475  18.824  0.00  0.00    +0.000 A 
ATOM      4  C   UNL     1      -2.589   9.694  17.794  0.00  0.00    +0.000 A 
ATOM      5  C   UNL     1      -2.665  10.926  17.155  0.00  0.00    +0.000 A 
ATOM      6 BR   UNL     1      -3.935  11.191  15.778  0.00  0.00    +0.000 Br
ATOM      7  C   UNL     1      -1.817  11.975  17.514  0.00  0.00    +0.000 A 
ATOM      8  C   UNL     1      -0.879  11.778  18.549  0.00  0.00    +0.000 A 
ATOM      9  C   UNL     1       0.118  12.608  19.131  0.00  0.00    +0.000 A 
ATOM     10  N   UNL     1       0.458  13.892  18.854  0.00  0.00    +0.000 NA
ATOM     11  C   UNL     1       1.455  14.384  19.611  0.00  0.00    +0.000 A 
ATOM     12  C   UNL     1       1.848  15.702  19.424  0.00  0.00    +0.000 A 
ATOM     13  C   UNL     1       2.863  16.278  20.192  0.00  0.00    +0.000 A 
ATOM     14  C   UNL     1       3.501  15.521  21.164  0.00  0.00    +0.000 A 
ATOM     15  C   UNL     1       3.121  14.193  21.358  0.00  0.00    +0.000 A 
ATOM     16  C   UNL     1       2.114  13.611  20.603  0.00  0.00    +0.000 A 
ATOM     17  N   UNL     1       1.794  12.336  20.858  0.00  0.00    +0.000 NA
ATOM     18  C   UNL     1       0.773  11.876  20.110  0.00  0.00    +0.000 A 
ENDROOT
BRANCH   1  19
ATOM     19  S   UNL     1       0.669   9.409  21.191  0.00  0.00    +0.000 S 
ATOM     20  O   UNL     1      -0.555   8.828  21.713  0.00  0.00    +0.000 OA
ATOM     21  O   UNL     1       1.663   9.998  22.071  0.00  0.00    +0.000 OA
BRANCH  19  26
ATOM     22  C   UNL     1       3.424   5.282  17.695  0.00  0.00    +0.000 C 
ATOM     23  C   UNL     1       2.778   6.307  18.581  0.00  0.00    +0.000 A 
ATOM     24  C   UNL     1       2.323   5.964  19.859  0.00  0.00    +0.000 A 
ATOM     25  C   UNL     1       1.696   6.915  20.667  0.00  0.00    +0.000 A 
ATOM     26  C   UNL     1       1.514   8.216  20.189  0.00  0.00    +0.000 A 
ATOM     27  C   UNL     1       1.993   8.582  18.928  0.00  0.00    +0.000 A 
ATOM     28  C   UNL     1       2.616   7.624  18.125  0.00  0.00    +0.000 A 
ENDBRANCH  19  26
ENDBRANCH   1  19
TORSDOF 2
ENDMDL
MODEL 8
REMARK VINA RESULT:      -7.3      9.907     11.501
REMARK  Name = 
REMARK  3 active torsions:
REMARK  status: ('A' for Active; 'I' for Inactive)
REMARK    1  A    between atoms: C_1  and  C_2
REMARK    2  A    between atoms: C_5  and  S_6
REMARK    3  A    between atoms: S_6  and  N_9
REMARK                            x       y       z     vdW  Elec       q    Type
REMARK                         _______ _______ _______ _____ _____    ______ ____
ROOT
ATOM      1  N   UNL     1      -1.689  12.086  20.917  0.00  0.00    +0.000 N 
ATOM      2  C   UNL     1      -2.592  12.769  21.718  0.00  0.00    +0.000 A 
ATOM      3  C   UNL     1      -2.510  13.287  23.023  0.00  0.00    +0.000 A 
ATOM      4  C   UNL     1      -3.614  13.980  23.534  0.00  0.00    +0.000 A 
ATOM      5  C   UNL     1      -4.766  14.144  22.775  0.00  0.00    +0.000 A 
ATOM      6 BR   UNL     1      -6.234  15.099  23.491  0.00  0.00    +0.000 Br
ATOM      7  C   UNL     1      -4.859  13.613  21.487  0.00  0.00    +0.000 A 
ATOM      8  C   UNL     1      -3.760  12.911  20.951  0.00  0.00    +0.000 A 
ATOM      9  C   UNL     1      -3.538  12.247  19.714  0.00  0.00    +0.000 A 
ATOM     10  N   UNL     1      -4.353  12.104  18.639  0.00  0.00    +0.000 NA
ATOM     11  C   UNL     1      -3.818  11.414  17.616  0.00  0.00    +0.000 A 
ATOM     12  C   UNL     1      -4.565  11.247  16.458  0.00  0.00    +0.000 A 
ATOM     13  C   UNL     1      -4.058  10.559  15.354  0.00  0.00    +0.000 A 
ATOM     14  C   UNL     1      -2.779  10.022  15.408  0.00  0.00    +0.000 A 
ATOM     15  C   UNL     1      -2.020  10.176  16.567  0.00  0.00    +0.000 A 
ATOM     16  C   UNL     1      -2.512  10.859  17.669  0.00  0.00    +0.000 A 
ATOM     17  N   UNL     1      -1.717  10.980  18.741  0.00  0.00    +0.000 NA
ATOM     18  C   UNL     1      -2.263  11.701  19.739  0.00  0.00    +0.000 A 
ENDROOT
BRANCH   1  19
ATOM     19  S   UNL     1      -0.157  11.572  21.416  0.00  0.00    +0.000 S 
ATOM     20  O   UNL     1      -0.114  10.164  21.065  0.00  0.00    +0.000 OA
ATOM     21  O   UNL     1      -0.023  12.015  22.793  0.00  0.00    +0.000 OA
BRANCH  19  26
ATOM     22  C   UNL     1       3.876  14.685  18.116  0.00  0.00    +0.000 C 
ATOM     23  C   UNL     1       2.909  13.890  18.944  0.00  0.00    +0.000 A 
ATOM     24  C   UNL     1       2.395  12.675  18.475  0.00  0.00    +0.000 A 
ATOM     25  C   UNL     1       1.473  11.955  19.237  0.00  0.00    +0.000 A 
ATOM     26  C   UNL     1       1.055  12.457  20.473  0.00  0.00    +0.000 A 
ATOM     27  C   UNL     1       1.584  13.652  20.969  0.00  0.00    +0.000 A 
ATOM     28  C   UNL     1       2.503  14.368  20.199  0.00  0.00    +0.000 A 
ENDBRANCH  19  26
ENDBRANCH   1  19
TORSDOF 2
ENDMDL
MODEL 9
REMARK VINA RESULT:      -7.3     12.965     14.776
REMARK  Name = 
REMARK  3 active torsions:
REMARK  status: ('A' for Active; 'I' for Inactive)
REMARK    1  A    between atoms: C_1  and  C_2
REMARK    2  A    between atoms: C_5  and  S_6
REMARK    3  A    between atoms: S_6  and  N_9
REMARK                            x       y       z     vdW  Elec       q    Type
REMARK                         _______ _______ _______ _____ _____    ______ ____
ROOT
ATOM      1  N   UNL     1      -5.475  13.149  20.680  0.00  0.00    +0.000 N 
ATOM      2  C   UNL     1      -4.974  13.772  21.813  0.00  0.00    +0.000 A 
ATOM      3  C   UNL     1      -5.569  14.570  22.807  0.00  0.00    +0.000 A 
ATOM      4  C   UNL     1      -4.772  15.017  23.868  0.00  0.00    +0.000 A 
ATOM      5  C   UNL     1      -3.423  14.687  23.932  0.00  0.00    +0.000 A 
ATOM      6 BR   UNL     1      -2.378  15.294  25.389  0.00  0.00    +0.000 Br
ATOM      7  C   UNL     1      -2.824  13.912  22.938  0.00  0.00    +0.000 A 
ATOM      8  C   UNL     1      -3.607  13.452  21.859  0.00  0.00    +0.000 A 
ATOM      9  C   UNL     1      -3.314  12.680  20.702  0.00  0.00    +0.000 A 
ATOM     10  N   UNL     1      -2.144  12.129  20.292  0.00  0.00    +0.000 NA
ATOM     11  C   UNL     1      -2.221  11.444  19.136  0.00  0.00    +0.000 A 
ATOM     12  C   UNL     1      -1.081  10.814  18.655  0.00  0.00    +0.000 A 
ATOM     13  C   UNL     1      -1.100  10.072  17.473  0.00  0.00    +0.000 A 
ATOM     14  C   UNL     1      -2.282   9.959  16.753  0.00  0.00    +0.000 A 
ATOM     15  C   UNL     1      -3.433  10.592  17.220  0.00  0.00    +0.000 A 
ATOM     16  C   UNL     1      -3.426  11.331  18.394  0.00  0.00    +0.000 A 
ATOM     17  N   UNL     1      -4.574  11.897  18.788  0.00  0.00    +0.000 NA
ATOM     18  C   UNL     1      -4.479  12.549  19.962  0.00  0.00    +0.000 A 
ENDROOT
BRANCH   1  19
ATOM     19  S   UNL     1      -7.062  13.308  20.116  0.00  0.00    +0.000 S 
ATOM     20  O   UNL     1      -7.793  13.863  21.241  0.00  0.00    +0.000 OA
ATOM     21  O   UNL     1      -7.409  12.015  19.551  0.00  0.00    +0.000 OA
BRANCH  19  26
ATOM     22  C   UNL     1      -7.201  17.307  15.553  0.00  0.00    +0.000 C 
ATOM     23  C   UNL     1      -7.128  16.308  16.670  0.00  0.00    +0.000 A 
ATOM     24  C   UNL     1      -7.313  14.942  16.423  0.00  0.00    +0.000 A 
ATOM     25  C   UNL     1      -7.274  14.021  17.472  0.00  0.00    +0.000 A 
ATOM     26  C   UNL     1      -7.057  14.469  18.778  0.00  0.00    +0.000 A 
ATOM     27  C   UNL     1      -6.837  15.826  19.036  0.00  0.00    +0.000 A 
ATOM     28  C   UNL     1      -6.882  16.741  17.982  0.00  0.00    +0.000 A 
ENDBRANCH  19  26
ENDBRANCH   1  19
TORSDOF 2
ENDMDL
