MODEL 1
REMARK VINA RESULT:      -6.9      0.000      0.000
REMARK  Name = 
REMARK  8 active torsions:
REMARK  status: ('A' for Active; 'I' for Inactive)
REMARK    1  A    between atoms: C_1  and  O_2
REMARK    2  A    between atoms: O_2  and  C_3
REMARK    3  A    between atoms: C_5  and  O_6
REMARK    4  A    between atoms: O_6  and  C_7
REMARK    5  A    between atoms: C_13  and  N_14
REMARK    6  A    between atoms: C_15  and  C_16
REMARK    7  A    between atoms: C_16  and  C_17
REMARK    8  A    between atoms: C_16  and  C_18
REMARK                            x       y       z     vdW  Elec       q    Type
REMARK                         _______ _______ _______ _____ _____    ______ ____
ROOT
ATOM      1  O   UNL     1       5.283   6.204  18.176  0.00  0.00    +0.000 OA
ENDROOT
BRANCH   1   2
ATOM      2  C   UNL     1       5.809   5.744  16.982  0.00  0.00    +0.000 A 
ATOM      3  C   UNL     1       5.219   5.967  15.752  0.00  0.00    +0.000 A 
ATOM      4  N   UNL     1       5.854   5.797  14.574  0.00  0.00    +0.000 NA
ATOM      5  C   UNL     1       7.098   5.322  14.645  0.00  0.00    +0.000 A 
ATOM      6  N   UNL     1       7.833   5.307  13.480  0.00  0.00    +0.000 N 
ATOM      7  N   UNL     1       7.690   4.899  15.765  0.00  0.00    +0.000 NA
ATOM      8  C   UNL     1       7.040   5.114  16.925  0.00  0.00    +0.000 A 
ATOM      9  H   UNL     1       7.233   5.324  12.669  0.00  0.00    +0.000 HD
ATOM     10  H   UNL     1       8.566   4.614  13.518  0.00  0.00    +0.000 HD
BRANCH   8  11
ATOM     11  N   UNL     1       7.675   4.625  18.067  0.00  0.00    +0.000 N 
ATOM     12  H   UNL     1       8.228   5.379  18.466  0.00  0.00    +0.000 HD
ATOM     13  H   UNL     1       7.022   4.220  18.723  0.00  0.00    +0.000 HD
ENDBRANCH   8  11
ENDBRANCH   1   2
BRANCH   1  16
ATOM     14  C   UNL     1       3.721   3.203  19.664  0.00  0.00    +0.000 A 
ATOM     15  C   UNL     1       4.461   4.004  18.800  0.00  0.00    +0.000 A 
ATOM     16  C   UNL     1       4.308   5.407  18.772  0.00  0.00    +0.000 A 
ATOM     17  C   UNL     1       3.192   5.983  19.399  0.00  0.00    +0.000 A 
ATOM     18  C   UNL     1       2.389   5.142  20.208  0.00  0.00    +0.000 A 
ATOM     19  C   UNL     1       2.668   3.779  20.367  0.00  0.00    +0.000 A 
ATOM     20  I   UNL     1       1.493   2.683  21.707  0.00  0.00    +0.000 I 
BRANCH  17  21
ATOM     21  C   UNL     1       2.741   7.433  19.292  0.00  0.00    +0.000 C 
ATOM     22  C   UNL     1       2.298   7.792  17.875  0.00  0.00    +0.000 C 
ATOM     23  C   UNL     1       1.709   7.883  20.328  0.00  0.00    +0.000 C 
ENDBRANCH  17  21
BRANCH  14  25
ATOM     24  C   UNL     1       3.795   1.069  18.664  0.00  0.00    +0.000 C 
ATOM     25  O   UNL     1       4.000   1.869  19.833  0.00  0.00    +0.000 OA
ENDBRANCH  14  25
ENDBRANCH   1  16
TORSDOF 5
ENDMDL
MODEL 2
REMARK VINA RESULT:      -6.9      2.097      3.872
REMARK  Name = 
REMARK  8 active torsions:
REMARK  status: ('A' for Active; 'I' for Inactive)
REMARK    1  A    between atoms: C_1  and  O_2
REMARK    2  A    between atoms: O_2  and  C_3
REMARK    3  A    between atoms: C_5  and  O_6
REMARK    4  A    between atoms: O_6  and  C_7
REMARK    5  A    between atoms: C_13  and  N_14
REMARK    6  A    between atoms: C_15  and  C_16
REMARK    7  A    between atoms: C_16  and  C_17
REMARK    8  A    between atoms: C_16  and  C_18
REMARK                            x       y       z     vdW  Elec       q    Type
REMARK                         _______ _______ _______ _____ _____    ______ ____
ROOT
ATOM      1  O   UNL     1       3.275   3.998  17.503  0.00  0.00    +0.000 OA
ENDROOT
BRANCH   1   2
ATOM      2  C   UNL     1       4.453   4.151  16.794  0.00  0.00    +0.000 A 
ATOM      3  C   UNL     1       4.501   4.371  15.431  0.00  0.00    +0.000 A 
ATOM      4  N   UNL     1       5.595   4.818  14.781  0.00  0.00    +0.000 NA
ATOM      5  C   UNL     1       6.690   4.979  15.525  0.00  0.00    +0.000 A 
ATOM      6  N   UNL     1       7.768   5.601  14.932  0.00  0.00    +0.000 N 
ATOM      7  N   UNL     1       6.802   4.618  16.806  0.00  0.00    +0.000 NA
ATOM      8  C   UNL     1       5.682   4.207  17.430  0.00  0.00    +0.000 A 
ATOM      9  H   UNL     1       7.718   5.537  13.926  0.00  0.00    +0.000 HD
ATOM     10  H   UNL     1       8.633   5.347  15.386  0.00  0.00    +0.000 HD
BRANCH   8  11
ATOM     11  N   UNL     1       5.848   3.805  18.756  0.00  0.00    +0.000 N 
ATOM     12  H   UNL     1       6.684   4.257  19.118  0.00  0.00    +0.000 HD
ATOM     13  H   UNL     1       5.025   3.982  19.314  0.00  0.00    +0.000 HD
ENDBRANCH   8  11
ENDBRANCH   1   2
BRANCH   1  16
ATOM     14  C   UNL     1       2.570   7.374  18.828  0.00  0.00    +0.000 A 
ATOM     15  C   UNL     1       3.165   6.351  18.097  0.00  0.00    +0.000 A 
ATOM     16  C   UNL     1       2.976   4.993  18.431  0.00  0.00    +0.000 A 
ATOM     17  C   UNL     1       2.434   4.668  19.684  0.00  0.00    +0.000 A 
ATOM     18  C   UNL     1       1.908   5.726  20.464  0.00  0.00    +0.000 A 
ATOM     19  C   UNL     1       1.944   7.058  20.030  0.00  0.00    +0.000 A 
ATOM     20  I   UNL     1       1.000   8.505  21.209  0.00  0.00    +0.000 I 
BRANCH  17  21
ATOM     21  C   UNL     1       2.358   3.280  20.306  0.00  0.00    +0.000 C 
ATOM     22  C   UNL     1       2.149   3.342  21.818  0.00  0.00    +0.000 C 
ATOM     23  C   UNL     1       1.372   2.313  19.648  0.00  0.00    +0.000 C 
ENDBRANCH  17  21
BRANCH  14  25
ATOM     24  C   UNL     1       1.451   9.065  17.624  0.00  0.00    +0.000 C 
ATOM     25  O   UNL     1       2.591   8.678  18.399  0.00  0.00    +0.000 OA
ENDBRANCH  14  25
ENDBRANCH   1  16
TORSDOF 5
ENDMDL
MODEL 3
REMARK VINA RESULT:      -6.7      4.439      6.307
REMARK  Name = 
REMARK  8 active torsions:
REMARK  status: ('A' for Active; 'I' for Inactive)
REMARK    1  A    between atoms: C_1  and  O_2
REMARK    2  A    between atoms: O_2  and  C_3
REMARK    3  A    between atoms: C_5  and  O_6
REMARK    4  A    between atoms: O_6  and  C_7
REMARK    5  A    between atoms: C_13  and  N_14
REMARK    6  A    between atoms: C_15  and  C_16
REMARK    7  A    between atoms: C_16  and  C_17
REMARK    8  A    between atoms: C_16  and  C_18
REMARK                            x       y       z     vdW  Elec       q    Type
REMARK                         _______ _______ _______ _____ _____    ______ ____
ROOT
ATOM      1  O   UNL     1       2.634   6.832  19.566  0.00  0.00    +0.000 OA
ENDROOT
BRANCH   1   2
ATOM      2  C   UNL     1       1.968   8.030  19.381  0.00  0.00    +0.000 A 
ATOM      3  C   UNL     1       1.751   8.600  18.141  0.00  0.00    +0.000 A 
ATOM      4  N   UNL     1       0.861   9.588  17.915  0.00  0.00    +0.000 NA
ATOM      5  C   UNL     1       0.223  10.056  18.989  0.00  0.00    +0.000 A 
ATOM      6  N   UNL     1      -0.815  10.934  18.770  0.00  0.00    +0.000 N 
ATOM      7  N   UNL     1       0.495   9.706  20.249  0.00  0.00    +0.000 NA
ATOM      8  C   UNL     1       1.365   8.696  20.435  0.00  0.00    +0.000 A 
ATOM      9  H   UNL     1      -0.735  11.378  17.868  0.00  0.00    +0.000 HD
ATOM     10  H   UNL     1      -0.978  11.518  19.578  0.00  0.00    +0.000 HD
BRANCH   8  11
ATOM     11  N   UNL     1       1.648   8.386  21.765  0.00  0.00    +0.000 N 
ATOM     12  H   UNL     1       2.285   7.595  21.775  0.00  0.00    +0.000 HD
ATOM     13  H   UNL     1       1.996   9.185  22.277  0.00  0.00    +0.000 HD
ENDBRANCH   8  11
ENDBRANCH   1   2
BRANCH   1  16
ATOM     14  C   UNL     1       5.187   6.437  16.923  0.00  0.00    +0.000 A 
ATOM     15  C   UNL     1       4.290   7.039  17.800  0.00  0.00    +0.000 A 
ATOM     16  C   UNL     1       3.277   6.302  18.449  0.00  0.00    +0.000 A 
ATOM     17  C   UNL     1       2.969   5.013  17.986  0.00  0.00    +0.000 A 
ATOM     18  C   UNL     1       3.837   4.438  17.026  0.00  0.00    +0.000 A 
ATOM     19  C   UNL     1       4.950   5.125  16.525  0.00  0.00    +0.000 A 
ATOM     20  I   UNL     1       6.233   4.107  15.224  0.00  0.00    +0.000 I 
BRANCH  17  21
ATOM     21  C   UNL     1       1.780   4.160  18.405  0.00  0.00    +0.000 C 
ATOM     22  C   UNL     1       1.915   2.716  17.927  0.00  0.00    +0.000 C 
ATOM     23  C   UNL     1       1.411   4.222  19.889  0.00  0.00    +0.000 C 
ENDBRANCH  17  21
BRANCH  14  25
ATOM     24  C   UNL     1       7.309   7.339  17.414  0.00  0.00    +0.000 C 
ATOM     25  O   UNL     1       6.287   7.103  16.441  0.00  0.00    +0.000 OA
ENDBRANCH  14  25
ENDBRANCH   1  16
TORSDOF 5
ENDMDL
MODEL 4
REMARK VINA RESULT:      -6.6      2.302      4.145
REMARK  Name = 
REMARK  8 active torsions:
REMARK  status: ('A' for Active; 'I' for Inactive)
REMARK    1  A    between atoms: C_1  and  O_2
REMARK    2  A    between atoms: O_2  and  C_3
REMARK    3  A    between atoms: C_5  and  O_6
REMARK    4  A    between atoms: O_6  and  C_7
REMARK    5  A    between atoms: C_13  and  N_14
REMARK    6  A    between atoms: C_15  and  C_16
REMARK    7  A    between atoms: C_16  and  C_17
REMARK    8  A    between atoms: C_16  and  C_18
REMARK                            x       y       z     vdW  Elec       q    Type
REMARK                         _______ _______ _______ _____ _____    ______ ____
ROOT
ATOM      1  O   UNL     1       3.134   4.952  17.770  0.00  0.00    +0.000 OA
ENDROOT
BRANCH   1   2
ATOM      2  C   UNL     1       4.400   5.257  17.302  0.00  0.00    +0.000 A 
ATOM      3  C   UNL     1       4.639   6.131  16.258  0.00  0.00    +0.000 A 
ATOM      4  N   UNL     1       5.847   6.666  15.990  0.00  0.00    +0.000 NA
ATOM      5  C   UNL     1       6.854   6.249  16.759  0.00  0.00    +0.000 A 
ATOM      6  N   UNL     1       8.058   6.906  16.629  0.00  0.00    +0.000 N 
ATOM      7  N   UNL     1       6.766   5.273  17.666  0.00  0.00    +0.000 NA
ATOM      8  C   UNL     1       5.540   4.785  17.929  0.00  0.00    +0.000 A 
ATOM      9  H   UNL     1       8.125   7.373  15.737  0.00  0.00    +0.000 HD
ATOM     10  H   UNL     1       8.827   6.322  16.923  0.00  0.00    +0.000 HD
BRANCH   8  11
ATOM     11  N   UNL     1       5.497   3.742  18.856  0.00  0.00    +0.000 N 
ATOM     12  H   UNL     1       6.387   3.720  19.345  0.00  0.00    +0.000 HD
ATOM     13  H   UNL     1       4.702   3.816  19.476  0.00  0.00    +0.000 HD
ENDBRANCH   8  11
ENDBRANCH   1   2
BRANCH   1  16
ATOM     14  C   UNL     1       1.934   7.990  19.499  0.00  0.00    +0.000 A 
ATOM     15  C   UNL     1       2.703   7.159  18.690  0.00  0.00    +0.000 A 
ATOM     16  C   UNL     1       2.644   5.753  18.799  0.00  0.00    +0.000 A 
ATOM     17  C   UNL     1       2.039   5.182  19.929  0.00  0.00    +0.000 A 
ATOM     18  C   UNL     1       1.331   6.046  20.799  0.00  0.00    +0.000 A 
ATOM     19  C   UNL     1       1.249   7.426  20.571  0.00  0.00    +0.000 A 
ATOM     20  I   UNL     1       0.049   8.567  21.850  0.00  0.00    +0.000 I 
BRANCH  17  21
ATOM     21  C   UNL     1       2.072   3.714  20.329  0.00  0.00    +0.000 C 
ATOM     22  C   UNL     1       2.199   3.535  21.841  0.00  0.00    +0.000 C 
ATOM     23  C   UNL     1       0.946   2.848  19.760  0.00  0.00    +0.000 C 
ENDBRANCH  17  21
BRANCH  14  25
ATOM     24  C   UNL     1       1.128   9.692  18.081  0.00  0.00    +0.000 C 
ATOM     25  O   UNL     1       1.841   9.340  19.271  0.00  0.00    +0.000 OA
ENDBRANCH  14  25
ENDBRANCH   1  16
TORSDOF 5
ENDMDL
MODEL 5
REMARK VINA RESULT:      -6.5      2.352      4.555
REMARK  Name = 
REMARK  8 active torsions:
REMARK  status: ('A' for Active; 'I' for Inactive)
REMARK    1  A    between atoms: C_1  and  O_2
REMARK    2  A    between atoms: O_2  and  C_3
REMARK    3  A    between atoms: C_5  and  O_6
REMARK    4  A    between atoms: O_6  and  C_7
REMARK    5  A    between atoms: C_13  and  N_14
REMARK    6  A    between atoms: C_15  and  C_16
REMARK    7  A    between atoms: C_16  and  C_17
REMARK    8  A    between atoms: C_16  and  C_18
REMARK                            x       y       z     vdW  Elec       q    Type
REMARK                         _______ _______ _______ _____ _____    ______ ____
ROOT
ATOM      1  O   UNL     1       3.234   5.702  17.800  0.00  0.00    +0.000 OA
ENDROOT
BRANCH   1   2
ATOM      2  C   UNL     1       4.605   5.526  17.872  0.00  0.00    +0.000 A 
ATOM      3  C   UNL     1       5.239   4.894  18.924  0.00  0.00    +0.000 A 
ATOM      4  N   UNL     1       6.511   4.450  18.875  0.00  0.00    +0.000 NA
ATOM      5  C   UNL     1       7.179   4.716  17.752  0.00  0.00    +0.000 A 
ATOM      6  N   UNL     1       8.414   4.123  17.598  0.00  0.00    +0.000 N 
ATOM      7  N   UNL     1       6.722   5.479  16.756  0.00  0.00    +0.000 NA
ATOM      8  C   UNL     1       5.439   5.878  16.824  0.00  0.00    +0.000 A 
ATOM      9  H   UNL     1       8.803   3.854  18.490  0.00  0.00    +0.000 HD
ATOM     10  H   UNL     1       8.995   4.647  16.961  0.00  0.00    +0.000 HD
BRANCH   8  11
ATOM     11  N   UNL     1       5.012   6.704  15.783  0.00  0.00    +0.000 N 
ATOM     12  H   UNL     1       5.695   7.449  15.673  0.00  0.00    +0.000 HD
ATOM     13  H   UNL     1       4.844   6.187  14.931  0.00  0.00    +0.000 HD
ENDBRANCH   8  11
ENDBRANCH   1   2
BRANCH   1  16
ATOM     14  C   UNL     1       1.734   8.530  19.646  0.00  0.00    +0.000 A 
ATOM     15  C   UNL     1       2.596   7.811  18.826  0.00  0.00    +0.000 A 
ATOM     16  C   UNL     1       2.643   6.400  18.851  0.00  0.00    +0.000 A 
ATOM     17  C   UNL     1       2.039   5.718  19.918  0.00  0.00    +0.000 A 
ATOM     18  C   UNL     1       1.232   6.471  20.804  0.00  0.00    +0.000 A 
ATOM     19  C   UNL     1       1.052   7.852  20.653  0.00  0.00    +0.000 A 
ATOM     20  I   UNL     1      -0.283   8.820  21.940  0.00  0.00    +0.000 I 
BRANCH  17  21
ATOM     21  C   UNL     1       2.170   4.234  20.234  0.00  0.00    +0.000 C 
ATOM     22  C   UNL     1       2.287   3.977  21.735  0.00  0.00    +0.000 C 
ATOM     23  C   UNL     1       1.116   3.326  19.595  0.00  0.00    +0.000 C 
ENDBRANCH  17  21
BRANCH  14  25
ATOM     24  C   UNL     1       0.693  10.239  18.399  0.00  0.00    +0.000 C 
ATOM     25  O   UNL     1       1.545   9.881  19.493  0.00  0.00    +0.000 OA
ENDBRANCH  14  25
ENDBRANCH   1  16
TORSDOF 5
ENDMDL
MODEL 6
REMARK VINA RESULT:      -6.3      0.761      1.085
REMARK  Name = 
REMARK  8 active torsions:
REMARK  status: ('A' for Active; 'I' for Inactive)
REMARK    1  A    between atoms: C_1  and  O_2
REMARK    2  A    between atoms: O_2  and  C_3
REMARK    3  A    between atoms: C_5  and  O_6
REMARK    4  A    between atoms: O_6  and  C_7
REMARK    5  A    between atoms: C_13  and  N_14
REMARK    6  A    between atoms: C_15  and  C_16
REMARK    7  A    between atoms: C_16  and  C_17
REMARK    8  A    between atoms: C_16  and  C_18
REMARK                            x       y       z     vdW  Elec       q    Type
REMARK                         _______ _______ _______ _____ _____    ______ ____
ROOT
ATOM      1  O   UNL     1       4.537   6.644  17.583  0.00  0.00    +0.000 OA
ENDROOT
BRANCH   1   2
ATOM      2  C   UNL     1       5.428   6.098  16.677  0.00  0.00    +0.000 A 
ATOM      3  C   UNL     1       5.045   5.534  15.475  0.00  0.00    +0.000 A 
ATOM      4  N   UNL     1       5.898   5.276  14.462  0.00  0.00    +0.000 NA
ATOM      5  C   UNL     1       7.184   5.534  14.702  0.00  0.00    +0.000 A 
ATOM      6  N   UNL     1       8.052   5.452  13.635  0.00  0.00    +0.000 N 
ATOM      7  N   UNL     1       7.680   5.901  15.887  0.00  0.00    +0.000 NA
ATOM      8  C   UNL     1       6.797   6.179  16.865  0.00  0.00    +0.000 A 
ATOM      9  H   UNL     1       7.673   4.874  12.900  0.00  0.00    +0.000 HD
ATOM     10  H   UNL     1       8.997   5.276  13.944  0.00  0.00    +0.000 HD
BRANCH   8  11
ATOM     11  N   UNL     1       7.356   6.523  18.096  0.00  0.00    +0.000 N 
ATOM     12  H   UNL     1       8.300   6.147  18.129  0.00  0.00    +0.000 HD
ATOM     13  H   UNL     1       7.318   7.518  18.267  0.00  0.00    +0.000 HD
ENDBRANCH   8  11
ENDBRANCH   1   2
BRANCH   1  16
ATOM     14  C   UNL     1       3.597   3.529  19.334  0.00  0.00    +0.000 A 
ATOM     15  C   UNL     1       4.123   4.383  18.371  0.00  0.00    +0.000 A 
ATOM     16  C   UNL     1       3.754   5.744  18.303  0.00  0.00    +0.000 A 
ATOM     17  C   UNL     1       2.625   6.180  19.013  0.00  0.00    +0.000 A 
ATOM     18  C   UNL     1       2.038   5.274  19.929  0.00  0.00    +0.000 A 
ATOM     19  C   UNL     1       2.536   3.977  20.114  0.00  0.00    +0.000 A 
ATOM     20  I   UNL     1       1.671   2.792  21.605  0.00  0.00    +0.000 I 
BRANCH  17  21
ATOM     21  C   UNL     1       1.949   7.539  18.894  0.00  0.00    +0.000 C 
ATOM     22  C   UNL     1       1.773   8.211  20.254  0.00  0.00    +0.000 C 
ATOM     23  C   UNL     1       2.567   8.499  17.875  0.00  0.00    +0.000 C 
ENDBRANCH  17  21
BRANCH  14  25
ATOM     24  C   UNL     1       3.724   1.322  18.512  0.00  0.00    +0.000 C 
ATOM     25  O   UNL     1       4.091   2.262  19.527  0.00  0.00    +0.000 OA
ENDBRANCH  14  25
ENDBRANCH   1  16
TORSDOF 5
ENDMDL
MODEL 7
REMARK VINA RESULT:      -6.3      2.723      4.713
REMARK  Name = 
REMARK  8 active torsions:
REMARK  status: ('A' for Active; 'I' for Inactive)
REMARK    1  A    between atoms: C_1  and  O_2
REMARK    2  A    between atoms: O_2  and  C_3
REMARK    3  A    between atoms: C_5  and  O_6
REMARK    4  A    between atoms: O_6  and  C_7
REMARK    5  A    between atoms: C_13  and  N_14
REMARK    6  A    between atoms: C_15  and  C_16
REMARK    7  A    between atoms: C_16  and  C_17
REMARK    8  A    between atoms: C_16  and  C_18
REMARK                            x       y       z     vdW  Elec       q    Type
REMARK                         _______ _______ _______ _____ _____    ______ ____
ROOT
ATOM      1  O   UNL     1       2.578   5.975  17.572  0.00  0.00    +0.000 OA
ENDROOT
BRANCH   1   2
ATOM      2  C   UNL     1       3.903   5.602  17.432  0.00  0.00    +0.000 A 
ATOM      3  C   UNL     1       4.958   6.492  17.500  0.00  0.00    +0.000 A 
ATOM      4  N   UNL     1       6.244   6.120  17.667  0.00  0.00    +0.000 NA
ATOM      5  C   UNL     1       6.472   4.807  17.699  0.00  0.00    +0.000 A 
ATOM      6  N   UNL     1       7.740   4.397  18.047  0.00  0.00    +0.000 N 
ATOM      7  N   UNL     1       5.554   3.868  17.456  0.00  0.00    +0.000 NA
ATOM      8  C   UNL     1       4.277   4.274  17.325  0.00  0.00    +0.000 A 
ATOM      9  H   UNL     1       8.417   5.129  17.891  0.00  0.00    +0.000 HD
ATOM     10  H   UNL     1       7.940   3.476  17.685  0.00  0.00    +0.000 HD
BRANCH   8  11
ATOM     11  N   UNL     1       3.355   3.266  17.036  0.00  0.00    +0.000 N 
ATOM     12  H   UNL     1       2.557   3.694  16.574  0.00  0.00    +0.000 HD
ATOM     13  H   UNL     1       3.767   2.513  16.504  0.00  0.00    +0.000 HD
ENDBRANCH   8  11
ENDBRANCH   1   2
BRANCH   1  16
ATOM     14  C   UNL     1       1.579   8.857  19.659  0.00  0.00    +0.000 A 
ATOM     15  C   UNL     1       2.218   8.111  18.674  0.00  0.00    +0.000 A 
ATOM     16  C   UNL     1       2.256   6.700  18.718  0.00  0.00    +0.000 A 
ATOM     17  C   UNL     1       1.912   6.046  19.910  0.00  0.00    +0.000 A 
ATOM     18  C   UNL     1       1.342   6.827  20.945  0.00  0.00    +0.000 A 
ATOM     19  C   UNL     1       1.145   8.207  20.811  0.00  0.00    +0.000 A 
ATOM     20  I   UNL     1       0.157   9.217  22.353  0.00  0.00    +0.000 I 
BRANCH  17  21
ATOM     21  C   UNL     1       2.099   4.566  20.218  0.00  0.00    +0.000 C 
ATOM     22  C   UNL     1       2.423   4.324  21.691  0.00  0.00    +0.000 C 
ATOM     23  C   UNL     1       0.976   3.644  19.738  0.00  0.00    +0.000 C 
ENDBRANCH  17  21
BRANCH  14  25
ATOM     24  C   UNL     1       0.325  10.559  18.616  0.00  0.00    +0.000 C 
ATOM     25  O   UNL     1       1.372  10.208  19.525  0.00  0.00    +0.000 OA
ENDBRANCH  14  25
ENDBRANCH   1  16
TORSDOF 5
ENDMDL
MODEL 8
REMARK VINA RESULT:      -6.2      0.659      1.515
REMARK  Name = 
REMARK  8 active torsions:
REMARK  status: ('A' for Active; 'I' for Inactive)
REMARK    1  A    between atoms: C_1  and  O_2
REMARK    2  A    between atoms: O_2  and  C_3
REMARK    3  A    between atoms: C_5  and  O_6
REMARK    4  A    between atoms: O_6  and  C_7
REMARK    5  A    between atoms: C_13  and  N_14
REMARK    6  A    between atoms: C_15  and  C_16
REMARK    7  A    between atoms: C_16  and  C_17
REMARK    8  A    between atoms: C_16  and  C_18
REMARK                            x       y       z     vdW  Elec       q    Type
REMARK                         _______ _______ _______ _____ _____    ______ ____
ROOT
ATOM      1  O   UNL     1       5.430   6.344  18.204  0.00  0.00    +0.000 OA
ENDROOT
BRANCH   1   2
ATOM      2  C   UNL     1       6.038   5.897  17.045  0.00  0.00    +0.000 A 
ATOM      3  C   UNL     1       7.091   5.002  17.031  0.00  0.00    +0.000 A 
ATOM      4  N   UNL     1       7.493   4.333  15.932  0.00  0.00    +0.000 NA
ATOM      5  C   UNL     1       6.852   4.632  14.801  0.00  0.00    +0.000 A 
ATOM      6  N   UNL     1       7.113   3.842  13.702  0.00  0.00    +0.000 N 
ATOM      7  N   UNL     1       5.954   5.611  14.669  0.00  0.00    +0.000 NA
ATOM      8  C   UNL     1       5.555   6.236  15.793  0.00  0.00    +0.000 A 
ATOM      9  H   UNL     1       8.001   3.371  13.794  0.00  0.00    +0.000 HD
ATOM     10  H   UNL     1       6.919   4.334  12.842  0.00  0.00    +0.000 HD
BRANCH   8  11
ATOM     11  N   UNL     1       4.644   7.277  15.608  0.00  0.00    +0.000 N 
ATOM     12  H   UNL     1       4.195   7.464  16.501  0.00  0.00    +0.000 HD
ATOM     13  H   UNL     1       5.076   8.094  15.200  0.00  0.00    +0.000 HD
ENDBRANCH   8  11
ENDBRANCH   1   2
BRANCH   1  16
ATOM     14  C   UNL     1       3.882   3.295  19.606  0.00  0.00    +0.000 A 
ATOM     15  C   UNL     1       4.643   4.119  18.783  0.00  0.00    +0.000 A 
ATOM     16  C   UNL     1       4.448   5.517  18.747  0.00  0.00    +0.000 A 
ATOM     17  C   UNL     1       3.284   6.058  19.313  0.00  0.00    +0.000 A 
ATOM     18  C   UNL     1       2.465   5.193  20.079  0.00  0.00    +0.000 A 
ATOM     19  C   UNL     1       2.776   3.838  20.253  0.00  0.00    +0.000 A 
ATOM     20  I   UNL     1       1.565   2.705  21.528  0.00  0.00    +0.000 I 
BRANCH  17  21
ATOM     21  C   UNL     1       2.796   7.495  19.183  0.00  0.00    +0.000 C 
ATOM     22  C   UNL     1       2.240   7.786  17.790  0.00  0.00    +0.000 C 
ATOM     23  C   UNL     1       1.836   7.970  20.275  0.00  0.00    +0.000 C 
ENDBRANCH  17  21
BRANCH  14  25
ATOM     24  C   UNL     1       3.882   1.130  18.673  0.00  0.00    +0.000 C 
ATOM     25  O   UNL     1       4.191   1.970  19.790  0.00  0.00    +0.000 OA
ENDBRANCH  14  25
ENDBRANCH   1  16
TORSDOF 5
ENDMDL
MODEL 9
REMARK VINA RESULT:      -6.0      2.418      4.478
REMARK  Name = 
REMARK  8 active torsions:
REMARK  status: ('A' for Active; 'I' for Inactive)
REMARK    1  A    between atoms: C_1  and  O_2
REMARK    2  A    between atoms: O_2  and  C_3
REMARK    3  A    between atoms: C_5  and  O_6
REMARK    4  A    between atoms: O_6  and  C_7
REMARK    5  A    between atoms: C_13  and  N_14
REMARK    6  A    between atoms: C_15  and  C_16
REMARK    7  A    between atoms: C_16  and  C_17
REMARK    8  A    between atoms: C_16  and  C_18
REMARK                            x       y       z     vdW  Elec       q    Type
REMARK                         _______ _______ _______ _____ _____    ______ ____
ROOT
ATOM      1  O   UNL     1       3.141   4.830  18.391  0.00  0.00    +0.000 OA
ENDROOT
BRANCH   1   2
ATOM      2  C   UNL     1       4.506   4.911  18.183  0.00  0.00    +0.000 A 
ATOM      3  C   UNL     1       5.411   5.243  19.173  0.00  0.00    +0.000 A 
ATOM      4  N   UNL     1       6.740   5.036  19.075  0.00  0.00    +0.000 NA
ATOM      5  C   UNL     1       7.170   4.541  17.914  0.00  0.00    +0.000 A 
ATOM      6  N   UNL     1       8.489   4.152  17.845  0.00  0.00    +0.000 N 
ATOM      7  N   UNL     1       6.406   4.363  16.833  0.00  0.00    +0.000 NA
ATOM      8  C   UNL     1       5.081   4.549  16.976  0.00  0.00    +0.000 A 
ATOM      9  H   UNL     1       9.042   4.609  18.555  0.00  0.00    +0.000 HD
ATOM     10  H   UNL     1       8.826   4.164  16.894  0.00  0.00    +0.000 HD
BRANCH   8  11
ATOM     11  N   UNL     1       4.324   4.388  15.815  0.00  0.00    +0.000 N 
ATOM     12  H   UNL     1       3.817   5.253  15.648  0.00  0.00    +0.000 HD
ATOM     13  H   UNL     1       4.889   4.098  15.029  0.00  0.00    +0.000 HD
ENDBRANCH   8  11
ENDBRANCH   1   2
BRANCH   1  16
ATOM     14  C   UNL     1       1.951   8.097  19.641  0.00  0.00    +0.000 A 
ATOM     15  C   UNL     1       2.751   7.144  19.019  0.00  0.00    +0.000 A 
ATOM     16  C   UNL     1       2.591   5.764  19.266  0.00  0.00    +0.000 A 
ATOM     17  C   UNL     1       1.828   5.353  20.370  0.00  0.00    +0.000 A 
ATOM     18  C   UNL     1       1.083   6.343  21.055  0.00  0.00    +0.000 A 
ATOM     19  C   UNL     1       1.115   7.692  20.677  0.00  0.00    +0.000 A 
ATOM     20  I   UNL     1      -0.146   9.027  21.679  0.00  0.00    +0.000 I 
BRANCH  17  21
ATOM     21  C   UNL     1       1.721   3.938  20.921  0.00  0.00    +0.000 C 
ATOM     22  C   UNL     1       0.786   3.067  20.085  0.00  0.00    +0.000 C 
ATOM     23  C   UNL     1       3.050   3.229  21.187  0.00  0.00    +0.000 C 
ENDBRANCH  17  21
BRANCH  14  25
ATOM     24  C   UNL     1       1.596   9.650  17.903  0.00  0.00    +0.000 C 
ATOM     25  O   UNL     1       1.970   9.418  19.265  0.00  0.00    +0.000 OA
ENDBRANCH  14  25
ENDBRANCH   1  16
TORSDOF 5
ENDMDL
