MODEL 1
REMARK VINA RESULT:      -7.5      0.000      0.000
REMARK  Name = 
REMARK  8 active torsions:
REMARK  status: ('A' for Active; 'I' for Inactive)
REMARK    1  A    between atoms: C_1  and  C_2
REMARK    2  A    between atoms: C_2  and  C_3
REMARK    3  A    between atoms: C_5  and  C_6
REMARK    4  A    between atoms: C_8  and  S_9
REMARK    5  A    between atoms: S_9  and  N_12
REMARK    6  A    between atoms: N_12  and  C_13
REMARK    7  A    between atoms: C_19  and  C_20
REMARK    8  A    between atoms: C_21  and  C_22
REMARK                            x       y       z     vdW  Elec       q    Type
REMARK                         _______ _______ _______ _____ _____    ______ ____
ROOT
ATOM      1  C   UNL     1       3.903   3.845  17.352  0.00  0.00    +0.000 A 
ATOM      2  C   UNL     1       3.685   4.553  18.506  0.00  0.00    +0.000 A 
ATOM      3  C   UNL     1       2.476   4.150  19.170  0.00  0.00    +0.000 A 
ATOM      4  C   UNL     1       1.906   3.030  18.587  0.00  0.00    +0.000 A 
ATOM      5  C   UNL     1       0.743   2.153  18.925  0.00  0.00    +0.000 C 
ATOM      6  S   UNL     1       2.738   2.627  17.136  0.00  0.00    +0.000 S 
ENDROOT
BRANCH   1   9
ATOM      7  C   UNL     1       6.078   4.052  14.456  0.00  0.00    +0.000 A 
ATOM      8  N   UNL     1       5.034   3.587  15.114  0.00  0.00    +0.000 NA
ATOM      9  C   UNL     1       5.014   4.122  16.390  0.00  0.00    +0.000 A 
ATOM     10  C   UNL     1       6.101   4.908  16.712  0.00  0.00    +0.000 A 
ATOM     11  S   UNL     1       7.134   5.064  15.361  0.00  0.00    +0.000 S 
BRANCH   7  13
ATOM     12  C   UNL     1       5.105   3.499  12.230  0.00  0.00    +0.000 C 
ATOM     13  C   UNL     1       6.378   3.760  13.018  0.00  0.00    +0.000 C 
ENDBRANCH   7  13
ENDBRANCH   1   9
BRANCH   3  14
ATOM     14  S   UNL     1       1.912   5.070  20.528  0.00  0.00    +0.000 S 
ATOM     15  O   UNL     1       0.505   5.261  20.306  0.00  0.00    +0.000 OA
ATOM     16  O   UNL     1       2.393   4.299  21.667  0.00  0.00    +0.000 OA
BRANCH  14  17
ATOM     17  N   UNL     1       2.641   6.618  20.592  0.00  0.00    +0.000 N 
ATOM     18  H   UNL     1       3.619   6.488  20.318  0.00  0.00    +0.000 HD
BRANCH  17  19
ATOM     19  C   UNL     1       2.034   7.700  19.851  0.00  0.00    +0.000 A 
ATOM     20  C   UNL     1       2.334   7.766  18.483  0.00  0.00    +0.000 A 
ATOM     21  C   UNL     1       1.842   8.800  17.689  0.00  0.00    +0.000 A 
ATOM     22  C   UNL     1       1.013   9.762  18.252  0.00  0.00    +0.000 A 
ATOM     23  C   UNL     1       0.698   9.703  19.611  0.00  0.00    +0.000 A 
ATOM     24 CL   UNL     1      -0.356  10.944  20.206  0.00  0.00    +0.000 Cl
ATOM     25  C   UNL     1       1.230   8.694  20.444  0.00  0.00    +0.000 A 
ATOM     26  C   UNL     1       0.928   8.700  21.919  0.00  0.00    +0.000 C 
ENDBRANCH  17  19
ENDBRANCH  14  17
ENDBRANCH   3  14
TORSDOF 5
ENDMDL
MODEL 2
REMARK VINA RESULT:      -7.3      1.875      2.710
REMARK  Name = 
REMARK  8 active torsions:
REMARK  status: ('A' for Active; 'I' for Inactive)
REMARK    1  A    between atoms: C_1  and  C_2
REMARK    2  A    between atoms: C_2  and  C_3
REMARK    3  A    between atoms: C_5  and  C_6
REMARK    4  A    between atoms: C_8  and  S_9
REMARK    5  A    between atoms: S_9  and  N_12
REMARK    6  A    between atoms: N_12  and  C_13
REMARK    7  A    between atoms: C_19  and  C_20
REMARK    8  A    between atoms: C_21  and  C_22
REMARK                            x       y       z     vdW  Elec       q    Type
REMARK                         _______ _______ _______ _____ _____    ______ ____
ROOT
ATOM      1  C   UNL     1       5.844   4.567  15.799  0.00  0.00    +0.000 A 
ATOM      2  C   UNL     1       4.619   4.647  16.409  0.00  0.00    +0.000 A 
ATOM      3  C   UNL     1       4.731   4.852  17.828  0.00  0.00    +0.000 A 
ATOM      4  C   UNL     1       6.038   5.094  18.220  0.00  0.00    +0.000 A 
ATOM      5  C   UNL     1       6.688   5.466  19.514  0.00  0.00    +0.000 C 
ATOM      6  S   UNL     1       7.109   4.861  16.894  0.00  0.00    +0.000 S 
ENDROOT
BRANCH   1   9
ATOM      7  C   UNL     1       5.513   3.417  12.374  0.00  0.00    +0.000 A 
ATOM      8  N   UNL     1       5.132   3.487  13.634  0.00  0.00    +0.000 NA
ATOM      9  C   UNL     1       6.045   4.240  14.353  0.00  0.00    +0.000 A 
ATOM     10  C   UNL     1       7.158   4.644  13.644  0.00  0.00    +0.000 A 
ATOM     11  S   UNL     1       7.025   4.156  12.013  0.00  0.00    +0.000 S 
BRANCH   7  13
ATOM     12  C   UNL     1       3.624   3.666  10.770  0.00  0.00    +0.000 C 
ATOM     13  C   UNL     1       4.728   2.757  11.283  0.00  0.00    +0.000 C 
ENDBRANCH   7  13
ENDBRANCH   1   9
BRANCH   3  14
ATOM     14  S   UNL     1       3.303   4.765  18.809  0.00  0.00    +0.000 S 
ATOM     15  O   UNL     1       2.202   4.785  17.886  0.00  0.00    +0.000 OA
ATOM     16  O   UNL     1       3.556   3.601  19.649  0.00  0.00    +0.000 OA
BRANCH  14  17
ATOM     17  N   UNL     1       3.150   6.130  19.829  0.00  0.00    +0.000 N 
ATOM     18  H   UNL     1       4.091   6.337  20.178  0.00  0.00    +0.000 HD
BRANCH  17  19
ATOM     19  C   UNL     1       2.519   7.320  19.304  0.00  0.00    +0.000 A 
ATOM     20  C   UNL     1       2.930   7.735  18.029  0.00  0.00    +0.000 A 
ATOM     21  C   UNL     1       2.421   8.897  17.454  0.00  0.00    +0.000 A 
ATOM     22  C   UNL     1       1.467   9.639  18.137  0.00  0.00    +0.000 A 
ATOM     23  C   UNL     1       1.040   9.233  19.403  0.00  0.00    +0.000 A 
ATOM     24 CL   UNL     1      -0.165  10.223  20.158  0.00  0.00    +0.000 Cl
ATOM     25  C   UNL     1       1.583   8.087  20.026  0.00  0.00    +0.000 A 
ATOM     26  C   UNL     1       1.154   7.716  21.421  0.00  0.00    +0.000 C 
ENDBRANCH  17  19
ENDBRANCH  14  17
ENDBRANCH   3  14
TORSDOF 5
ENDMDL
MODEL 3
REMARK VINA RESULT:      -7.3      3.281      4.904
REMARK  Name = 
REMARK  8 active torsions:
REMARK  status: ('A' for Active; 'I' for Inactive)
REMARK    1  A    between atoms: C_1  and  C_2
REMARK    2  A    between atoms: C_2  and  C_3
REMARK    3  A    between atoms: C_5  and  C_6
REMARK    4  A    between atoms: C_8  and  S_9
REMARK    5  A    between atoms: S_9  and  N_12
REMARK    6  A    between atoms: N_12  and  C_13
REMARK    7  A    between atoms: C_19  and  C_20
REMARK    8  A    between atoms: C_21  and  C_22
REMARK                            x       y       z     vdW  Elec       q    Type
REMARK                         _______ _______ _______ _____ _____    ______ ____
ROOT
ATOM      1  C   UNL     1       6.013   4.774  15.109  0.00  0.00    +0.000 A 
ATOM      2  C   UNL     1       4.968   5.420  15.716  0.00  0.00    +0.000 A 
ATOM      3  C   UNL     1       5.285   5.821  17.060  0.00  0.00    +0.000 A 
ATOM      4  C   UNL     1       6.620   5.618  17.366  0.00  0.00    +0.000 A 
ATOM      5  C   UNL     1       7.484   5.945  18.542  0.00  0.00    +0.000 C 
ATOM      6  S   UNL     1       7.399   4.762  16.093  0.00  0.00    +0.000 S 
ENDROOT
BRANCH   1   9
ATOM      7  C   UNL     1       4.951   3.288  11.974  0.00  0.00    +0.000 A 
ATOM      8  N   UNL     1       4.739   3.740  13.195  0.00  0.00    +0.000 NA
ATOM      9  C   UNL     1       5.940   4.140  13.756  0.00  0.00    +0.000 A 
ATOM     10  C   UNL     1       7.058   3.891  12.987  0.00  0.00    +0.000 A 
ATOM     11  S   UNL     1       6.599   3.224  11.482  0.00  0.00    +0.000 S 
BRANCH   7  13
ATOM     12  C   UNL     1       3.377   4.006  10.183  0.00  0.00    +0.000 C 
ATOM     13  C   UNL     1       3.875   2.848  11.030  0.00  0.00    +0.000 C 
ENDBRANCH   7  13
ENDBRANCH   1   9
BRANCH   3  14
ATOM     14  S   UNL     1       4.026   6.458  18.070  0.00  0.00    +0.000 S 
ATOM     15  O   UNL     1       4.431   6.167  19.418  0.00  0.00    +0.000 OA
ATOM     16  O   UNL     1       3.900   7.833  17.605  0.00  0.00    +0.000 OA
BRANCH  14  17
ATOM     17  N   UNL     1       2.532   5.668  17.795  0.00  0.00    +0.000 N 
ATOM     18  H   UNL     1       2.409   5.629  16.779  0.00  0.00    +0.000 HD
BRANCH  17  19
ATOM     19  C   UNL     1       2.315   4.371  18.395  0.00  0.00    +0.000 A 
ATOM     20  C   UNL     1       2.523   3.257  17.568  0.00  0.00    +0.000 A 
ATOM     21  C   UNL     1       2.291   1.965  18.034  0.00  0.00    +0.000 A 
ATOM     22  C   UNL     1       1.880   1.772  19.346  0.00  0.00    +0.000 A 
ATOM     23  C   UNL     1       1.678   2.871  20.184  0.00  0.00    +0.000 A 
ATOM     24 CL   UNL     1       1.181   2.515  21.805  0.00  0.00    +0.000 Cl
ATOM     25  C   UNL     1       1.856   4.191  19.716  0.00  0.00    +0.000 A 
ATOM     26  C   UNL     1       1.562   5.357  20.622  0.00  0.00    +0.000 C 
ENDBRANCH  17  19
ENDBRANCH  14  17
ENDBRANCH   3  14
TORSDOF 5
ENDMDL
MODEL 4
REMARK VINA RESULT:      -7.2      3.314      4.688
REMARK  Name = 
REMARK  8 active torsions:
REMARK  status: ('A' for Active; 'I' for Inactive)
REMARK    1  A    between atoms: C_1  and  C_2
REMARK    2  A    between atoms: C_2  and  C_3
REMARK    3  A    between atoms: C_5  and  C_6
REMARK    4  A    between atoms: C_8  and  S_9
REMARK    5  A    between atoms: S_9  and  N_12
REMARK    6  A    between atoms: N_12  and  C_13
REMARK    7  A    between atoms: C_19  and  C_20
REMARK    8  A    between atoms: C_21  and  C_22
REMARK                            x       y       z     vdW  Elec       q    Type
REMARK                         _______ _______ _______ _____ _____    ______ ____
ROOT
ATOM      1  C   UNL     1       6.087   4.981  15.572  0.00  0.00    +0.000 A 
ATOM      2  C   UNL     1       5.027   5.784  15.905  0.00  0.00    +0.000 A 
ATOM      3  C   UNL     1       4.929   5.993  17.324  0.00  0.00    +0.000 A 
ATOM      4  C   UNL     1       6.021   5.481  18.006  0.00  0.00    +0.000 A 
ATOM      5  C   UNL     1       6.473   5.515  19.431  0.00  0.00    +0.000 C 
ATOM      6  S   UNL     1       7.025   4.587  16.933  0.00  0.00    +0.000 S 
ENDROOT
BRANCH   1   9
ATOM      7  C   UNL     1       6.058   3.282  12.367  0.00  0.00    +0.000 A 
ATOM      8  N   UNL     1       5.658   3.455  13.611  0.00  0.00    +0.000 NA
ATOM      9  C   UNL     1       6.372   4.492  14.187  0.00  0.00    +0.000 A 
ATOM     10  C   UNL     1       7.373   5.022  13.400  0.00  0.00    +0.000 A 
ATOM     11  S   UNL     1       7.370   4.275  11.864  0.00  0.00    +0.000 S 
BRANCH   7  13
ATOM     12  C   UNL     1       6.420   1.182  11.076  0.00  0.00    +0.000 C 
ATOM     13  C   UNL     1       5.452   2.306  11.405  0.00  0.00    +0.000 C 
ENDBRANCH   7  13
ENDBRANCH   1   9
BRANCH   3  14
ATOM     14  S   UNL     1       3.533   6.801  17.964  0.00  0.00    +0.000 S 
ATOM     15  O   UNL     1       3.792   6.961  19.368  0.00  0.00    +0.000 OA
ATOM     16  O   UNL     1       3.398   7.959  17.090  0.00  0.00    +0.000 OA
BRANCH  14  17
ATOM     17  N   UNL     1       2.120   5.849  17.802  0.00  0.00    +0.000 N 
ATOM     18  H   UNL     1       1.894   5.835  16.803  0.00  0.00    +0.000 HD
BRANCH  17  19
ATOM     19  C   UNL     1       2.119   4.512  18.352  0.00  0.00    +0.000 A 
ATOM     20  C   UNL     1       2.426   3.470  17.466  0.00  0.00    +0.000 A 
ATOM     21  C   UNL     1       2.402   2.142  17.883  0.00  0.00    +0.000 A 
ATOM     22  C   UNL     1       2.103   1.844  19.206  0.00  0.00    +0.000 A 
ATOM     23  C   UNL     1       1.805   2.872  20.103  0.00  0.00    +0.000 A 
ATOM     24 CL   UNL     1       1.463   2.389  21.732  0.00  0.00    +0.000 Cl
ATOM     25  C   UNL     1       1.772   4.221  19.687  0.00  0.00    +0.000 A 
ATOM     26  C   UNL     1       1.378   5.299  20.661  0.00  0.00    +0.000 C 
ENDBRANCH  17  19
ENDBRANCH  14  17
ENDBRANCH   3  14
TORSDOF 5
ENDMDL
MODEL 5
REMARK VINA RESULT:      -7.2      2.872      6.681
REMARK  Name = 
REMARK  8 active torsions:
REMARK  status: ('A' for Active; 'I' for Inactive)
REMARK    1  A    between atoms: C_1  and  C_2
REMARK    2  A    between atoms: C_2  and  C_3
REMARK    3  A    between atoms: C_5  and  C_6
REMARK    4  A    between atoms: C_8  and  S_9
REMARK    5  A    between atoms: S_9  and  N_12
REMARK    6  A    between atoms: N_12  and  C_13
REMARK    7  A    between atoms: C_19  and  C_20
REMARK    8  A    between atoms: C_21  and  C_22
REMARK                            x       y       z     vdW  Elec       q    Type
REMARK                         _______ _______ _______ _____ _____    ______ ____
ROOT
ATOM      1  C   UNL     1       2.018   6.510  19.394  0.00  0.00    +0.000 A 
ATOM      2  C   UNL     1       2.235   5.556  18.433  0.00  0.00    +0.000 A 
ATOM      3  C   UNL     1       2.485   4.260  19.003  0.00  0.00    +0.000 A 
ATOM      4  C   UNL     1       2.279   4.241  20.372  0.00  0.00    +0.000 A 
ATOM      5  C   UNL     1       2.289   3.169  21.415  0.00  0.00    +0.000 C 
ATOM      6  S   UNL     1       1.990   5.834  20.952  0.00  0.00    +0.000 S 
ENDROOT
BRANCH   1   9
ATOM      7  C   UNL     1       1.268  10.057  19.534  0.00  0.00    +0.000 A 
ATOM      8  N   UNL     1       1.209   8.822  19.992  0.00  0.00    +0.000 NA
ATOM      9  C   UNL     1       1.849   7.969  19.109  0.00  0.00    +0.000 A 
ATOM     10  C   UNL     1       2.296   8.559  17.945  0.00  0.00    +0.000 A 
ATOM     11  S   UNL     1       1.996  10.240  17.986  0.00  0.00    +0.000 S 
BRANCH   7  13
ATOM     12  C   UNL     1      -0.569  10.973  20.945  0.00  0.00    +0.000 C 
ATOM     13  C   UNL     1       0.758  11.261  20.264  0.00  0.00    +0.000 C 
ENDBRANCH   7  13
ENDBRANCH   1   9
BRANCH   3  14
ATOM     14  S   UNL     1       2.995   2.967  17.965  0.00  0.00    +0.000 S 
ATOM     15  O   UNL     1       2.521   1.763  18.590  0.00  0.00    +0.000 OA
ATOM     16  O   UNL     1       2.497   3.380  16.660  0.00  0.00    +0.000 OA
BRANCH  14  17
ATOM     17  N   UNL     1       4.702   2.865  17.870  0.00  0.00    +0.000 N 
ATOM     18  H   UNL     1       4.916   1.929  17.513  0.00  0.00    +0.000 HD
BRANCH  17  19
ATOM     19  C   UNL     1       5.416   3.880  17.129  0.00  0.00    +0.000 A 
ATOM     20  C   UNL     1       5.532   3.678  15.746  0.00  0.00    +0.000 A 
ATOM     21  C   UNL     1       6.245   4.570  14.949  0.00  0.00    +0.000 A 
ATOM     22  C   UNL     1       6.821   5.695  15.524  0.00  0.00    +0.000 A 
ATOM     23  C   UNL     1       6.705   5.914  16.898  0.00  0.00    +0.000 A 
ATOM     24 CL   UNL     1       7.449   7.356  17.508  0.00  0.00    +0.000 Cl
ATOM     25  C   UNL     1       6.033   4.994  17.732  0.00  0.00    +0.000 A 
ATOM     26  C   UNL     1       5.986   5.223  19.219  0.00  0.00    +0.000 C 
ENDBRANCH  17  19
ENDBRANCH  14  17
ENDBRANCH   3  14
TORSDOF 5
ENDMDL
MODEL 6
REMARK VINA RESULT:      -7.0      0.628      1.597
REMARK  Name = 
REMARK  8 active torsions:
REMARK  status: ('A' for Active; 'I' for Inactive)
REMARK    1  A    between atoms: C_1  and  C_2
REMARK    2  A    between atoms: C_2  and  C_3
REMARK    3  A    between atoms: C_5  and  C_6
REMARK    4  A    between atoms: C_8  and  S_9
REMARK    5  A    between atoms: S_9  and  N_12
REMARK    6  A    between atoms: N_12  and  C_13
REMARK    7  A    between atoms: C_19  and  C_20
REMARK    8  A    between atoms: C_21  and  C_22
REMARK                            x       y       z     vdW  Elec       q    Type
REMARK                         _______ _______ _______ _____ _____    ______ ____
ROOT
ATOM      1  C   UNL     1       4.082   3.832  17.365  0.00  0.00    +0.000 A 
ATOM      2  C   UNL     1       3.798   4.652  18.426  0.00  0.00    +0.000 A 
ATOM      3  C   UNL     1       2.631   4.222  19.148  0.00  0.00    +0.000 A 
ATOM      4  C   UNL     1       2.170   2.991  18.712  0.00  0.00    +0.000 A 
ATOM      5  C   UNL     1       1.094   2.057  19.167  0.00  0.00    +0.000 C 
ATOM      6  S   UNL     1       3.037   2.493  17.312  0.00  0.00    +0.000 S 
ENDROOT
BRANCH   1   9
ATOM      7  C   UNL     1       6.137   4.045  14.383  0.00  0.00    +0.000 A 
ATOM      8  N   UNL     1       5.100   3.606  15.070  0.00  0.00    +0.000 NA
ATOM      9  C   UNL     1       5.163   4.093  16.365  0.00  0.00    +0.000 A 
ATOM     10  C   UNL     1       6.300   4.813  16.666  0.00  0.00    +0.000 A 
ATOM     11  S   UNL     1       7.280   4.971  15.276  0.00  0.00    +0.000 S 
BRANCH   7  13
ATOM     12  C   UNL     1       5.074   3.368  12.235  0.00  0.00    +0.000 C 
ATOM     13  C   UNL     1       6.359   3.794  12.924  0.00  0.00    +0.000 C 
ENDBRANCH   7  13
ENDBRANCH   1   9
BRANCH   3  14
ATOM     14  S   UNL     1       1.982   5.245  20.390  0.00  0.00    +0.000 S 
ATOM     15  O   UNL     1       0.569   5.310  20.135  0.00  0.00    +0.000 OA
ATOM     16  O   UNL     1       2.496   4.641  21.612  0.00  0.00    +0.000 OA
BRANCH  14  17
ATOM     17  N   UNL     1       2.601   6.838  20.287  0.00  0.00    +0.000 N 
ATOM     18  H   UNL     1       3.111   6.893  19.401  0.00  0.00    +0.000 HD
BRANCH  17  19
ATOM     19  C   UNL     1       1.684   7.947  20.429  0.00  0.00    +0.000 A 
ATOM     20  C   UNL     1       1.104   8.121  21.693  0.00  0.00    +0.000 A 
ATOM     21  C   UNL     1       0.169   9.128  21.920  0.00  0.00    +0.000 A 
ATOM     22  C   UNL     1      -0.170   9.995  20.890  0.00  0.00    +0.000 A 
ATOM     23  C   UNL     1       0.408   9.840  19.628  0.00  0.00    +0.000 A 
ATOM     24 CL   UNL     1      -0.074  10.986  18.421  0.00  0.00    +0.000 Cl
ATOM     25  C   UNL     1       1.317   8.793  19.362  0.00  0.00    +0.000 A 
ATOM     26  C   UNL     1       1.868   8.610  17.973  0.00  0.00    +0.000 C 
ENDBRANCH  17  19
ENDBRANCH  14  17
ENDBRANCH   3  14
TORSDOF 5
ENDMDL
MODEL 7
REMARK VINA RESULT:      -6.8      3.074      6.413
REMARK  Name = 
REMARK  8 active torsions:
REMARK  status: ('A' for Active; 'I' for Inactive)
REMARK    1  A    between atoms: C_1  and  C_2
REMARK    2  A    between atoms: C_2  and  C_3
REMARK    3  A    between atoms: C_5  and  C_6
REMARK    4  A    between atoms: C_8  and  S_9
REMARK    5  A    between atoms: S_9  and  N_12
REMARK    6  A    between atoms: N_12  and  C_13
REMARK    7  A    between atoms: C_19  and  C_20
REMARK    8  A    between atoms: C_21  and  C_22
REMARK                            x       y       z     vdW  Elec       q    Type
REMARK                         _______ _______ _______ _____ _____    ______ ____
ROOT
ATOM      1  C   UNL     1       2.221   6.288  19.604  0.00  0.00    +0.000 A 
ATOM      2  C   UNL     1       2.950   5.387  18.872  0.00  0.00    +0.000 A 
ATOM      3  C   UNL     1       3.111   4.133  19.559  0.00  0.00    +0.000 A 
ATOM      4  C   UNL     1       2.351   4.069  20.715  0.00  0.00    +0.000 A 
ATOM      5  C   UNL     1       2.066   2.998  21.719  0.00  0.00    +0.000 C 
ATOM      6  S   UNL     1       1.630   5.596  21.039  0.00  0.00    +0.000 S 
ENDROOT
BRANCH   1   9
ATOM      7  C   UNL     1       1.331   9.802  19.459  0.00  0.00    +0.000 A 
ATOM      8  N   UNL     1       1.327   8.608  20.019  0.00  0.00    +0.000 NA
ATOM      9  C   UNL     1       1.991   7.710  19.201  0.00  0.00    +0.000 A 
ATOM     10  C   UNL     1       2.401   8.217  17.986  0.00  0.00    +0.000 A 
ATOM     11  S   UNL     1       2.035   9.883  17.891  0.00  0.00    +0.000 S 
BRANCH   7  13
ATOM     12  C   UNL     1       1.417  12.291  19.504  0.00  0.00    +0.000 C 
ATOM     13  C   UNL     1       0.782  11.042  20.092  0.00  0.00    +0.000 C 
ENDBRANCH   7  13
ENDBRANCH   1   9
BRANCH   3  14
ATOM     14  S   UNL     1       4.182   2.940  18.897  0.00  0.00    +0.000 S 
ATOM     15  O   UNL     1       4.237   1.888  19.874  0.00  0.00    +0.000 OA
ATOM     16  O   UNL     1       3.627   2.703  17.571  0.00  0.00    +0.000 OA
BRANCH  14  17
ATOM     17  N   UNL     1       5.770   3.550  18.703  0.00  0.00    +0.000 N 
ATOM     18  H   UNL     1       6.346   2.764  18.389  0.00  0.00    +0.000 HD
BRANCH  17  19
ATOM     19  C   UNL     1       5.969   4.707  17.859  0.00  0.00    +0.000 A 
ATOM     20  C   UNL     1       5.309   4.700  16.622  0.00  0.00    +0.000 A 
ATOM     21  C   UNL     1       5.475   5.743  15.714  0.00  0.00    +0.000 A 
ATOM     22  C   UNL     1       6.279   6.824  16.051  0.00  0.00    +0.000 A 
ATOM     23  C   UNL     1       6.934   6.850  17.283  0.00  0.00    +0.000 A 
ATOM     24 CL   UNL     1       7.899   8.253  17.607  0.00  0.00    +0.000 Cl
ATOM     25  C   UNL     1       6.822   5.778  18.196  0.00  0.00    +0.000 A 
ATOM     26  C   UNL     1       7.597   5.804  19.486  0.00  0.00    +0.000 C 
ENDBRANCH  17  19
ENDBRANCH  14  17
ENDBRANCH   3  14
TORSDOF 5
ENDMDL
MODEL 8
REMARK VINA RESULT:      -6.7      2.835      6.578
REMARK  Name = 
REMARK  8 active torsions:
REMARK  status: ('A' for Active; 'I' for Inactive)
REMARK    1  A    between atoms: C_1  and  C_2
REMARK    2  A    between atoms: C_2  and  C_3
REMARK    3  A    between atoms: C_5  and  C_6
REMARK    4  A    between atoms: C_8  and  S_9
REMARK    5  A    between atoms: S_9  and  N_12
REMARK    6  A    between atoms: N_12  and  C_13
REMARK    7  A    between atoms: C_19  and  C_20
REMARK    8  A    between atoms: C_21  and  C_22
REMARK                            x       y       z     vdW  Elec       q    Type
REMARK                         _______ _______ _______ _____ _____    ______ ____
ROOT
ATOM      1  C   UNL     1       1.990   6.079  19.923  0.00  0.00    +0.000 A 
ATOM      2  C   UNL     1       2.119   5.342  18.774  0.00  0.00    +0.000 A 
ATOM      3  C   UNL     1       2.535   3.991  19.039  0.00  0.00    +0.000 A 
ATOM      4  C   UNL     1       2.541   3.701  20.394  0.00  0.00    +0.000 A 
ATOM      5  C   UNL     1       2.778   2.462  21.195  0.00  0.00    +0.000 C 
ATOM      6  S   UNL     1       2.243   5.127  21.308  0.00  0.00    +0.000 S 
ENDROOT
BRANCH   1   9
ATOM      7  C   UNL     1       1.486   9.584  19.135  0.00  0.00    +0.000 A 
ATOM      8  N   UNL     1       1.911   8.365  18.864  0.00  0.00    +0.000 NA
ATOM      9  C   UNL     1       1.687   7.543  19.955  0.00  0.00    +0.000 A 
ATOM     10  C   UNL     1       1.187   8.177  21.073  0.00  0.00    +0.000 A 
ATOM     11  S   UNL     1       0.897   9.826  20.734  0.00  0.00    +0.000 S 
BRANCH   7  13
ATOM     12  C   UNL     1       1.722  12.049  18.864  0.00  0.00    +0.000 C 
ATOM     13  C   UNL     1       1.486  10.722  18.162  0.00  0.00    +0.000 C 
ENDBRANCH   7  13
ENDBRANCH   1   9
BRANCH   3  14
ATOM     14  S   UNL     1       2.962   2.963  17.708  0.00  0.00    +0.000 S 
ATOM     15  O   UNL     1       2.412   1.675  18.026  0.00  0.00    +0.000 OA
ATOM     16  O   UNL     1       2.492   3.715  16.552  0.00  0.00    +0.000 OA
BRANCH  14  17
ATOM     17  N   UNL     1       4.658   2.782  17.566  0.00  0.00    +0.000 N 
ATOM     18  H   UNL     1       4.815   1.873  17.122  0.00  0.00    +0.000 HD
BRANCH  17  19
ATOM     19  C   UNL     1       5.412   3.821  16.902  0.00  0.00    +0.000 A 
ATOM     20  C   UNL     1       5.591   3.677  15.519  0.00  0.00    +0.000 A 
ATOM     21  C   UNL     1       6.346   4.596  14.793  0.00  0.00    +0.000 A 
ATOM     22  C   UNL     1       6.902   5.691  15.442  0.00  0.00    +0.000 A 
ATOM     23  C   UNL     1       6.724   5.853  16.817  0.00  0.00    +0.000 A 
ATOM     24 CL   UNL     1       7.448   7.261  17.521  0.00  0.00    +0.000 Cl
ATOM     25  C   UNL     1       6.008   4.904  17.580  0.00  0.00    +0.000 A 
ATOM     26  C   UNL     1       5.894   5.070  19.072  0.00  0.00    +0.000 C 
ENDBRANCH  17  19
ENDBRANCH  14  17
ENDBRANCH   3  14
TORSDOF 5
ENDMDL
MODEL 9
REMARK VINA RESULT:      -6.7      3.144      6.624
REMARK  Name = 
REMARK  8 active torsions:
REMARK  status: ('A' for Active; 'I' for Inactive)
REMARK    1  A    between atoms: C_1  and  C_2
REMARK    2  A    between atoms: C_2  and  C_3
REMARK    3  A    between atoms: C_5  and  C_6
REMARK    4  A    between atoms: C_8  and  S_9
REMARK    5  A    between atoms: S_9  and  N_12
REMARK    6  A    between atoms: N_12  and  C_13
REMARK    7  A    between atoms: C_19  and  C_20
REMARK    8  A    between atoms: C_21  and  C_22
REMARK                            x       y       z     vdW  Elec       q    Type
REMARK                         _______ _______ _______ _____ _____    ______ ____
ROOT
ATOM      1  C   UNL     1       2.231   6.397  19.494  0.00  0.00    +0.000 A 
ATOM      2  C   UNL     1       2.981   5.573  18.697  0.00  0.00    +0.000 A 
ATOM      3  C   UNL     1       3.209   4.289  19.305  0.00  0.00    +0.000 A 
ATOM      4  C   UNL     1       2.477   4.124  20.470  0.00  0.00    +0.000 A 
ATOM      5  C   UNL     1       2.259   2.985  21.414  0.00  0.00    +0.000 C 
ATOM      6  S   UNL     1       1.700   5.598  20.897  0.00  0.00    +0.000 S 
ENDROOT
BRANCH   1   9
ATOM      7  C   UNL     1       1.227   9.882  19.587  0.00  0.00    +0.000 A 
ATOM      8  N   UNL     1       1.294   8.662  20.084  0.00  0.00    +0.000 NA
ATOM      9  C   UNL     1       1.932   7.829  19.181  0.00  0.00    +0.000 A 
ATOM     10  C   UNL     1       2.249   8.410  17.971  0.00  0.00    +0.000 A 
ATOM     11  S   UNL     1       1.827  10.065  17.985  0.00  0.00    +0.000 S 
BRANCH   7  13
ATOM     12  C   UNL     1      -0.202  11.915  19.414  0.00  0.00    +0.000 C 
ATOM     13  C   UNL     1       0.681  11.070  20.317  0.00  0.00    +0.000 C 
ENDBRANCH   7  13
ENDBRANCH   1   9
BRANCH   3  14
ATOM     14  S   UNL     1       4.315   3.184  18.554  0.00  0.00    +0.000 S 
ATOM     15  O   UNL     1       5.191   2.743  19.605  0.00  0.00    +0.000 OA
ATOM     16  O   UNL     1       3.429   2.248  17.874  0.00  0.00    +0.000 OA
BRANCH  14  17
ATOM     17  N   UNL     1       5.278   3.958  17.368  0.00  0.00    +0.000 N 
ATOM     18  H   UNL     1       4.628   4.352  16.681  0.00  0.00    +0.000 HD
BRANCH  17  19
ATOM     19  C   UNL     1       6.243   4.946  17.797  0.00  0.00    +0.000 A 
ATOM     20  C   UNL     1       7.149   4.545  18.789  0.00  0.00    +0.000 A 
ATOM     21  C   UNL     1       8.085   5.437  19.307  0.00  0.00    +0.000 A 
ATOM     22  C   UNL     1       8.146   6.733  18.812  0.00  0.00    +0.000 A 
ATOM     23  C   UNL     1       7.256   7.143  17.816  0.00  0.00    +0.000 A 
ATOM     24 CL   UNL     1       7.431   8.774  17.259  0.00  0.00    +0.000 Cl
ATOM     25  C   UNL     1       6.265   6.270  17.315  0.00  0.00    +0.000 A 
ATOM     26  C   UNL     1       5.276   6.764  16.294  0.00  0.00    +0.000 C 
ENDBRANCH  17  19
ENDBRANCH  14  17
ENDBRANCH   3  14
TORSDOF 5
ENDMDL
