MODEL 1
REMARK VINA RESULT:      -7.2      0.000      0.000
REMARK  Name = 
REMARK  13 active torsions:
REMARK  status: ('A' for Active; 'I' for Inactive)
REMARK    1  A    between atoms: C_1  and  C_2
REMARK    2  A    between atoms: C_2  and  C_3
REMARK    3  A    between atoms: C_2  and  N_4
REMARK    4  A    between atoms: N_4  and  C_5
REMARK    5  A    between atoms: N_4  and  C_6
REMARK    6  A    between atoms: C_10  and  C_11
REMARK    7  A    between atoms: C_11  and  O_13
REMARK    8  A    between atoms: C_18  and  C_19
REMARK    9  A    between atoms: C_24  and  O_26
REMARK   10  A    between atoms: O_26  and  C_27
REMARK   11  A    between atoms: C_27  and  C_28
REMARK   12  A    between atoms: C_27  and  C_29
REMARK   13  A    between atoms: C_27  and  C_30
REMARK                            x       y       z     vdW  Elec       q    Type
REMARK                         _______ _______ _______ _____ _____    ______ ____
ROOT
ATOM      1  C   UNL     1      -0.796  12.284  18.987  0.00  0.00    +0.000 A 
ATOM      2  N   UNL     1      -0.942  13.588  18.619  0.00  0.00    +0.000 NA
ATOM      3  C   UNL     1       0.101  14.436  18.766  0.00  0.00    +0.000 A 
ATOM      4  C   UNL     1       0.004  15.769  18.375  0.00  0.00    +0.000 A 
ATOM      5  C   UNL     1       1.079  16.662  18.519  0.00  0.00    +0.000 A 
ATOM      6  C   UNL     1       2.288  16.206  19.041  0.00  0.00    +0.000 A 
ATOM      7  C   UNL     1       2.390  14.875  19.443  0.00  0.00    +0.000 A 
ATOM      8  C   UNL     1       1.322  13.996  19.316  0.00  0.00    +0.000 A 
ATOM      9  N   UNL     1       1.497  12.730  19.693  0.00  0.00    +0.000 NA
ATOM     10  C   UNL     1       0.461  11.861  19.499  0.00  0.00    +0.000 A 
ENDROOT
BRANCH  10  11
ATOM     11  C   UNL     1       0.877  10.467  19.734  0.00  0.00    +0.000 A 
ATOM     12  C   UNL     1       0.686   9.804  20.961  0.00  0.00    +0.000 A 
ATOM     13  C   UNL     1       1.139   8.491  21.157  0.00  0.00    +0.000 A 
ATOM     14  C   UNL     1       1.770   7.846  20.107  0.00  0.00    +0.000 A 
ATOM     15  N   UNL     1       2.226   6.536  20.243  0.00  0.00    +0.000 N 
ATOM     16  C   UNL     1       2.818   5.862  19.197  0.00  0.00    +0.000 C 
ATOM     17  O   UNL     1       2.987   6.290  18.065  0.00  0.00    +0.000 OA
ATOM     18  N   UNL     1       1.975   8.473  18.937  0.00  0.00    +0.000 NA
ATOM     19  C   UNL     1       1.569   9.744  18.780  0.00  0.00    +0.000 A 
ATOM     20  H   UNL     1       2.136   6.043  21.114  0.00  0.00    +0.000 HD
BRANCH  16  21
ATOM     21  O   UNL     1       3.200   4.606  19.568  0.00  0.00    +0.000 OA
BRANCH  21  22
ATOM     22  C   UNL     1       2.212   3.550  19.372  0.00  0.00    +0.000 C 
ATOM     23  C   UNL     1       1.380   3.785  18.097  0.00  0.00    +0.000 C 
ATOM     24  C   UNL     1       2.995   2.241  19.182  0.00  0.00    +0.000 C 
ATOM     25  C   UNL     1       1.332   3.377  20.623  0.00  0.00    +0.000 C 
ENDBRANCH  21  22
ENDBRANCH  16  21
ENDBRANCH  10  11
BRANCH   1  26
ATOM     26  N   UNL     1      -1.890  11.427  18.804  0.00  0.00    +0.000 N 
ATOM     27  C   UNL     1      -2.844  11.291  19.909  0.00  0.00    +0.000 C 
BRANCH  26  29
ATOM     28  C   UNL     1      -1.942   9.745  17.020  0.00  0.00    +0.000 C 
ATOM     29  C   UNL     1      -2.351  11.167  17.424  0.00  0.00    +0.000 C 
ATOM     30  C   UNL     1      -3.858  11.361  17.237  0.00  0.00    +0.000 C 
ENDBRANCH  26  29
ENDBRANCH   1  26
BRANCH   5  31
ATOM     31  C   UNL     1       0.907  18.056  18.047  0.00  0.00    +0.000 C 
ATOM     32  O   UNL     1       1.746  18.628  17.375  0.00  0.00    +0.000 OA
BRANCH  31  33
ATOM     33  O   UNL     1      -0.267  18.627  18.398  0.00  0.00    +0.000 OA
ATOM     34  H   UNL     1      -0.907  18.054  18.853  0.00  0.00    +0.000 HD
ENDBRANCH  31  33
ENDBRANCH   5  31
TORSDOF 7
ENDMDL
MODEL 2
REMARK VINA RESULT:      -7.2      0.980      1.334
REMARK  Name = 
REMARK  13 active torsions:
REMARK  status: ('A' for Active; 'I' for Inactive)
REMARK    1  A    between atoms: C_1  and  C_2
REMARK    2  A    between atoms: C_2  and  C_3
REMARK    3  A    between atoms: C_2  and  N_4
REMARK    4  A    between atoms: N_4  and  C_5
REMARK    5  A    between atoms: N_4  and  C_6
REMARK    6  A    between atoms: C_10  and  C_11
REMARK    7  A    between atoms: C_11  and  O_13
REMARK    8  A    between atoms: C_18  and  C_19
REMARK    9  A    between atoms: C_24  and  O_26
REMARK   10  A    between atoms: O_26  and  C_27
REMARK   11  A    between atoms: C_27  and  C_28
REMARK   12  A    between atoms: C_27  and  C_29
REMARK   13  A    between atoms: C_27  and  C_30
REMARK                            x       y       z     vdW  Elec       q    Type
REMARK                         _______ _______ _______ _____ _____    ______ ____
ROOT
ATOM      1  C   UNL     1      -0.494  11.834  18.557  0.00  0.00    +0.000 A 
ATOM      2  N   UNL     1      -0.786  13.161  18.466  0.00  0.00    +0.000 NA
ATOM      3  C   UNL     1       0.174  14.070  18.754  0.00  0.00    +0.000 A 
ATOM      4  C   UNL     1      -0.073  15.436  18.645  0.00  0.00    +0.000 A 
ATOM      5  C   UNL     1       0.914  16.391  18.937  0.00  0.00    +0.000 A 
ATOM      6  C   UNL     1       2.187  15.972  19.321  0.00  0.00    +0.000 A 
ATOM      7  C   UNL     1       2.439  14.606  19.441  0.00  0.00    +0.000 A 
ATOM      8  C   UNL     1       1.458  13.662  19.167  0.00  0.00    +0.000 A 
ATOM      9  N   UNL     1       1.776  12.372  19.274  0.00  0.00    +0.000 NA
ATOM     10  C   UNL     1       0.823  11.453  18.937  0.00  0.00    +0.000 A 
ENDROOT
BRANCH  10  11
ATOM     11  C   UNL     1       1.386  10.093  18.871  0.00  0.00    +0.000 A 
ATOM     12  C   UNL     1       2.060   9.595  17.740  0.00  0.00    +0.000 A 
ATOM     13  C   UNL     1       2.541   8.277  17.701  0.00  0.00    +0.000 A 
ATOM     14  C   UNL     1       2.350   7.472  18.811  0.00  0.00    +0.000 A 
ATOM     15  N   UNL     1       2.820   6.159  18.831  0.00  0.00    +0.000 N 
ATOM     16  C   UNL     1       2.679   5.355  19.941  0.00  0.00    +0.000 C 
ATOM     17  O   UNL     1       2.176   5.678  21.007  0.00  0.00    +0.000 OA
ATOM     18  N   UNL     1       1.693   7.929  19.889  0.00  0.00    +0.000 NA
ATOM     19  C   UNL     1       1.206   9.181  19.894  0.00  0.00    +0.000 A 
ATOM     20  H   UNL     1       3.277   5.760  18.030  0.00  0.00    +0.000 HD
BRANCH  16  21
ATOM     21  O   UNL     1       3.195   4.112  19.723  0.00  0.00    +0.000 OA
BRANCH  21  22
ATOM     22  C   UNL     1       2.229   3.056  19.443  0.00  0.00    +0.000 C 
ATOM     23  C   UNL     1       1.189   3.505  18.399  0.00  0.00    +0.000 C 
ATOM     24  C   UNL     1       3.018   1.883  18.837  0.00  0.00    +0.000 C 
ATOM     25  C   UNL     1       1.575   2.545  20.739  0.00  0.00    +0.000 C 
ENDBRANCH  21  22
ENDBRANCH  16  21
ENDBRANCH  10  11
BRANCH   1  26
ATOM     26  N   UNL     1      -1.505  10.918  18.235  0.00  0.00    +0.000 N 
ATOM     27  C   UNL     1      -2.049  10.092  19.316  0.00  0.00    +0.000 C 
BRANCH  26  29
ATOM     28  C   UNL     1      -2.312   9.981  16.116  0.00  0.00    +0.000 C 
ATOM     29  C   UNL     1      -2.348  11.196  17.052  0.00  0.00    +0.000 C 
ATOM     30  C   UNL     1      -3.794  11.553  17.403  0.00  0.00    +0.000 C 
ENDBRANCH  26  29
ENDBRANCH   1  26
BRANCH   5  31
ATOM     31  C   UNL     1       0.582  17.825  18.764  0.00  0.00    +0.000 C 
ATOM     32  O   UNL     1       1.374  18.631  18.310  0.00  0.00    +0.000 OA
BRANCH  31  33
ATOM     33  O   UNL     1      -0.679  18.157  19.121  0.00  0.00    +0.000 OA
ATOM     34  H   UNL     1      -0.972  19.054  18.891  0.00  0.00    +0.000 HD
ENDBRANCH  31  33
ENDBRANCH   5  31
TORSDOF 7
ENDMDL
MODEL 3
REMARK VINA RESULT:      -7.1      3.574      5.261
REMARK  Name = 
REMARK  13 active torsions:
REMARK  status: ('A' for Active; 'I' for Inactive)
REMARK    1  A    between atoms: C_1  and  C_2
REMARK    2  A    between atoms: C_2  and  C_3
REMARK    3  A    between atoms: C_2  and  N_4
REMARK    4  A    between atoms: N_4  and  C_5
REMARK    5  A    between atoms: N_4  and  C_6
REMARK    6  A    between atoms: C_10  and  C_11
REMARK    7  A    between atoms: C_11  and  O_13
REMARK    8  A    between atoms: C_18  and  C_19
REMARK    9  A    between atoms: C_24  and  O_26
REMARK   10  A    between atoms: O_26  and  C_27
REMARK   11  A    between atoms: C_27  and  C_28
REMARK   12  A    between atoms: C_27  and  C_29
REMARK   13  A    between atoms: C_27  and  C_30
REMARK                            x       y       z     vdW  Elec       q    Type
REMARK                         _______ _______ _______ _____ _____    ______ ____
ROOT
ATOM      1  C   UNL     1      -0.888  10.943  19.838  0.00  0.00    +0.000 A 
ATOM      2  N   UNL     1      -2.051  11.630  19.661  0.00  0.00    +0.000 NA
ATOM      3  C   UNL     1      -2.765  11.438  18.528  0.00  0.00    +0.000 A 
ATOM      4  C   UNL     1      -3.974  12.096  18.319  0.00  0.00    +0.000 A 
ATOM      5  C   UNL     1      -4.728  11.905  17.150  0.00  0.00    +0.000 A 
ATOM      6  C   UNL     1      -4.278  11.015  16.177  0.00  0.00    +0.000 A 
ATOM      7  C   UNL     1      -3.064  10.358  16.375  0.00  0.00    +0.000 A 
ATOM      8  C   UNL     1      -2.310  10.559  17.524  0.00  0.00    +0.000 A 
ATOM      9  N   UNL     1      -1.173   9.878  17.661  0.00  0.00    +0.000 NA
ATOM     10  C   UNL     1      -0.476  10.033  18.825  0.00  0.00    +0.000 A 
ENDROOT
BRANCH  10  11
ATOM     11  C   UNL     1       0.614   9.047  18.936  0.00  0.00    +0.000 A 
ATOM     12  C   UNL     1       0.958   8.416  20.146  0.00  0.00    +0.000 A 
ATOM     13  C   UNL     1       2.034   7.517  20.218  0.00  0.00    +0.000 A 
ATOM     14  C   UNL     1       2.749   7.250  19.063  0.00  0.00    +0.000 A 
ATOM     15  N   UNL     1       3.817   6.355  19.075  0.00  0.00    +0.000 N 
ATOM     16  C   UNL     1       4.514   6.042  17.928  0.00  0.00    +0.000 C 
ATOM     17  O   UNL     1       4.283   6.464  16.805  0.00  0.00    +0.000 OA
ATOM     18  N   UNL     1       2.442   7.860  17.906  0.00  0.00    +0.000 NA
ATOM     19  C   UNL     1       1.433   8.746  17.865  0.00  0.00    +0.000 A 
ATOM     20  H   UNL     1       4.112   5.910  19.927  0.00  0.00    +0.000 HD
BRANCH  16  21
ATOM     21  O   UNL     1       5.525   5.163  18.185  0.00  0.00    +0.000 OA
BRANCH  21  22
ATOM     22  C   UNL     1       6.879   5.656  17.955  0.00  0.00    +0.000 C 
ATOM     23  C   UNL     1       6.868   7.069  17.342  0.00  0.00    +0.000 C 
ATOM     24  C   UNL     1       7.554   5.753  19.333  0.00  0.00    +0.000 C 
ATOM     25  C   UNL     1       7.697   4.658  17.116  0.00  0.00    +0.000 C 
ENDBRANCH  21  22
ENDBRANCH  16  21
ENDBRANCH  10  11
BRANCH   1  26
ATOM     26  N   UNL     1      -0.181  11.151  21.030  0.00  0.00    +0.000 N 
ATOM     27  C   UNL     1       0.975  12.052  20.992  0.00  0.00    +0.000 C 
BRANCH  26  29
ATOM     28  C   UNL     1      -0.128   9.946  23.167  0.00  0.00    +0.000 C 
ATOM     29  C   UNL     1      -0.897  10.960  22.310  0.00  0.00    +0.000 C 
ATOM     30  C   UNL     1      -1.114  12.259  23.088  0.00  0.00    +0.000 C 
ENDBRANCH  26  29
ENDBRANCH   1  26
BRANCH   5  31
ATOM     31  C   UNL     1      -6.021  12.618  17.020  0.00  0.00    +0.000 C 
ATOM     32  O   UNL     1      -6.105  13.748  16.576  0.00  0.00    +0.000 OA
BRANCH  31  33
ATOM     33  O   UNL     1      -7.100  11.899  17.406  0.00  0.00    +0.000 OA
ATOM     34  H   UNL     1      -7.468  11.287  16.748  0.00  0.00    +0.000 HD
ENDBRANCH  31  33
ENDBRANCH   5  31
TORSDOF 7
ENDMDL
MODEL 4
REMARK VINA RESULT:      -7.1      0.362      1.001
REMARK  Name = 
REMARK  13 active torsions:
REMARK  status: ('A' for Active; 'I' for Inactive)
REMARK    1  A    between atoms: C_1  and  C_2
REMARK    2  A    between atoms: C_2  and  C_3
REMARK    3  A    between atoms: C_2  and  N_4
REMARK    4  A    between atoms: N_4  and  C_5
REMARK    5  A    between atoms: N_4  and  C_6
REMARK    6  A    between atoms: C_10  and  C_11
REMARK    7  A    between atoms: C_11  and  O_13
REMARK    8  A    between atoms: C_18  and  C_19
REMARK    9  A    between atoms: C_24  and  O_26
REMARK   10  A    between atoms: O_26  and  C_27
REMARK   11  A    between atoms: C_27  and  C_28
REMARK   12  A    between atoms: C_27  and  C_29
REMARK   13  A    between atoms: C_27  and  C_30
REMARK                            x       y       z     vdW  Elec       q    Type
REMARK                         _______ _______ _______ _____ _____    ______ ____
ROOT
ATOM      1  C   UNL     1      -0.632  12.160  19.096  0.00  0.00    +0.000 A 
ATOM      2  N   UNL     1      -0.719  13.468  18.726  0.00  0.00    +0.000 NA
ATOM      3  C   UNL     1       0.369  14.263  18.853  0.00  0.00    +0.000 A 
ATOM      4  C   UNL     1       0.332  15.598  18.459  0.00  0.00    +0.000 A 
ATOM      5  C   UNL     1       1.453  16.436  18.581  0.00  0.00    +0.000 A 
ATOM      6  C   UNL     1       2.647  15.921  19.084  0.00  0.00    +0.000 A 
ATOM      7  C   UNL     1       2.688  14.587  19.489  0.00  0.00    +0.000 A 
ATOM      8  C   UNL     1       1.575  13.763  19.383  0.00  0.00    +0.000 A 
ATOM      9  N   UNL     1       1.692  12.492  19.762  0.00  0.00    +0.000 NA
ATOM     10  C   UNL     1       0.611  11.675  19.588  0.00  0.00    +0.000 A 
ENDROOT
BRANCH  10  11
ATOM     11  C   UNL     1       0.960  10.262  19.820  0.00  0.00    +0.000 A 
ATOM     12  C   UNL     1       0.665   9.585  21.019  0.00  0.00    +0.000 A 
ATOM     13  C   UNL     1       1.056   8.252  21.217  0.00  0.00    +0.000 A 
ATOM     14  C   UNL     1       1.731   7.603  20.196  0.00  0.00    +0.000 A 
ATOM     15  N   UNL     1       2.130   6.275  20.335  0.00  0.00    +0.000 N 
ATOM     16  C   UNL     1       2.765   5.598  19.316  0.00  0.00    +0.000 C 
ATOM     17  O   UNL     1       3.023   6.041  18.207  0.00  0.00    +0.000 OA
ATOM     18  N   UNL     1       2.035   8.243  19.055  0.00  0.00    +0.000 NA
ATOM     19  C   UNL     1       1.687   9.532  18.899  0.00  0.00    +0.000 A 
ATOM     20  H   UNL     1       1.965   5.770  21.188  0.00  0.00    +0.000 HD
BRANCH  16  21
ATOM     21  O   UNL     1       3.076   4.323  19.685  0.00  0.00    +0.000 OA
BRANCH  21  22
ATOM     22  C   UNL     1       2.134   3.287  19.272  0.00  0.00    +0.000 C 
ATOM     23  C   UNL     1       2.851   1.954  18.989  0.00  0.00    +0.000 C 
ATOM     24  C   UNL     1       1.179   3.060  20.455  0.00  0.00    +0.000 C 
ATOM     25  C   UNL     1       1.280   3.759  18.081  0.00  0.00    +0.000 C 
ENDBRANCH  21  22
ENDBRANCH  16  21
ENDBRANCH  10  11
BRANCH   1  26
ATOM     26  N   UNL     1      -1.771  11.358  18.935  0.00  0.00    +0.000 N 
ATOM     27  C   UNL     1      -2.746  11.330  20.028  0.00  0.00    +0.000 C 
BRANCH  26  29
ATOM     28  C   UNL     1      -1.638   9.712  17.121  0.00  0.00    +0.000 C 
ATOM     29  C   UNL     1      -2.226  11.059  17.561  0.00  0.00    +0.000 C 
ATOM     30  C   UNL     1      -3.749  11.048  17.411  0.00  0.00    +0.000 C 
ENDBRANCH  26  29
ENDBRANCH   1  26
BRANCH   5  31
ATOM     31  C   UNL     1       1.343  17.836  18.107  0.00  0.00    +0.000 C 
ATOM     32  O   UNL     1       0.555  18.630  18.587  0.00  0.00    +0.000 OA
BRANCH  31  33
ATOM     33  O   UNL     1       2.210  18.165  17.123  0.00  0.00    +0.000 OA
ATOM     34  H   UNL     1       1.865  18.736  16.416  0.00  0.00    +0.000 HD
ENDBRANCH  31  33
ENDBRANCH   5  31
TORSDOF 7
ENDMDL
MODEL 5
REMARK VINA RESULT:      -6.9      0.579      1.032
REMARK  Name = 
REMARK  13 active torsions:
REMARK  status: ('A' for Active; 'I' for Inactive)
REMARK    1  A    between atoms: C_1  and  C_2
REMARK    2  A    between atoms: C_2  and  C_3
REMARK    3  A    between atoms: C_2  and  N_4
REMARK    4  A    between atoms: N_4  and  C_5
REMARK    5  A    between atoms: N_4  and  C_6
REMARK    6  A    between atoms: C_10  and  C_11
REMARK    7  A    between atoms: C_11  and  O_13
REMARK    8  A    between atoms: C_18  and  C_19
REMARK    9  A    between atoms: C_24  and  O_26
REMARK   10  A    between atoms: O_26  and  C_27
REMARK   11  A    between atoms: C_27  and  C_28
REMARK   12  A    between atoms: C_27  and  C_29
REMARK   13  A    between atoms: C_27  and  C_30
REMARK                            x       y       z     vdW  Elec       q    Type
REMARK                         _______ _______ _______ _____ _____    ______ ____
ROOT
ATOM      1  C   UNL     1      -0.737  12.424  19.731  0.00  0.00    +0.000 A 
ATOM      2  N   UNL     1      -0.903  13.717  19.335  0.00  0.00    +0.000 NA
ATOM      3  C   UNL     1       0.189  14.476  19.084  0.00  0.00    +0.000 A 
ATOM      4  C   UNL     1       0.065  15.793  18.649  0.00  0.00    +0.000 A 
ATOM      5  C   UNL     1       1.188  16.592  18.381  0.00  0.00    +0.000 A 
ATOM      6  C   UNL     1       2.466  16.056  18.526  0.00  0.00    +0.000 A 
ATOM      7  C   UNL     1       2.599  14.741  18.970  0.00  0.00    +0.000 A 
ATOM      8  C   UNL     1       1.488  13.955  19.250  0.00  0.00    +0.000 A 
ATOM      9  N   UNL     1       1.687  12.698  19.643  0.00  0.00    +0.000 NA
ATOM     10  C   UNL     1       0.586  11.915  19.849  0.00  0.00    +0.000 A 
ENDROOT
BRANCH  10  11
ATOM     11  C   UNL     1       0.958  10.502  20.040  0.00  0.00    +0.000 A 
ATOM     12  C   UNL     1       0.846   9.839  21.276  0.00  0.00    +0.000 A 
ATOM     13  C   UNL     1       1.253   8.504  21.426  0.00  0.00    +0.000 A 
ATOM     14  C   UNL     1       1.760   7.841  20.321  0.00  0.00    +0.000 A 
ATOM     15  N   UNL     1       2.167   6.511  20.411  0.00  0.00    +0.000 N 
ATOM     16  C   UNL     1       2.634   5.820  19.314  0.00  0.00    +0.000 C 
ATOM     17  O   UNL     1       2.722   6.250  18.173  0.00  0.00    +0.000 OA
ATOM     18  N   UNL     1       1.890   8.468  19.140  0.00  0.00    +0.000 NA
ATOM     19  C   UNL     1       1.530   9.758  19.026  0.00  0.00    +0.000 A 
ATOM     20  H   UNL     1       2.132   6.015  21.285  0.00  0.00    +0.000 HD
BRANCH  16  21
ATOM     21  O   UNL     1       2.989   4.545  19.644  0.00  0.00    +0.000 OA
BRANCH  21  22
ATOM     22  C   UNL     1       2.013   3.506  19.335  0.00  0.00    +0.000 C 
ATOM     23  C   UNL     1       1.423   3.688  17.924  0.00  0.00    +0.000 C 
ATOM     24  C   UNL     1       2.771   2.168  19.352  0.00  0.00    +0.000 C 
ATOM     25  C   UNL     1       0.926   3.427  20.422  0.00  0.00    +0.000 C 
ENDBRANCH  21  22
ENDBRANCH  16  21
ENDBRANCH  10  11
BRANCH   1  26
ATOM     26  N   UNL     1      -1.888  11.660  19.965  0.00  0.00    +0.000 N 
ATOM     27  C   UNL     1      -2.672  11.957  21.167  0.00  0.00    +0.000 C 
BRANCH  26  29
ATOM     28  C   UNL     1      -3.918  11.724  18.589  0.00  0.00    +0.000 C 
ATOM     29  C   UNL     1      -2.562  11.038  18.805  0.00  0.00    +0.000 C 
ATOM     30  C   UNL     1      -1.732  11.083  17.521  0.00  0.00    +0.000 C 
ENDBRANCH  26  29
ENDBRANCH   1  26
BRANCH   5  31
ATOM     31  C   UNL     1       0.971  17.973  17.889  0.00  0.00    +0.000 C 
ATOM     32  O   UNL     1      -0.009  18.630  18.191  0.00  0.00    +0.000 OA
BRANCH  31  33
ATOM     33  O   UNL     1       1.962  18.451  17.103  0.00  0.00    +0.000 OA
ATOM     34  H   UNL     1       1.688  18.886  16.278  0.00  0.00    +0.000 HD
ENDBRANCH  31  33
ENDBRANCH   5  31
TORSDOF 7
ENDMDL
MODEL 6
REMARK VINA RESULT:      -6.8      0.979      1.550
REMARK  Name = 
REMARK  13 active torsions:
REMARK  status: ('A' for Active; 'I' for Inactive)
REMARK    1  A    between atoms: C_1  and  C_2
REMARK    2  A    between atoms: C_2  and  C_3
REMARK    3  A    between atoms: C_2  and  N_4
REMARK    4  A    between atoms: N_4  and  C_5
REMARK    5  A    between atoms: N_4  and  C_6
REMARK    6  A    between atoms: C_10  and  C_11
REMARK    7  A    between atoms: C_11  and  O_13
REMARK    8  A    between atoms: C_18  and  C_19
REMARK    9  A    between atoms: C_24  and  O_26
REMARK   10  A    between atoms: O_26  and  C_27
REMARK   11  A    between atoms: C_27  and  C_28
REMARK   12  A    between atoms: C_27  and  C_29
REMARK   13  A    between atoms: C_27  and  C_30
REMARK                            x       y       z     vdW  Elec       q    Type
REMARK                         _______ _______ _______ _____ _____    ______ ____
ROOT
ATOM      1  C   UNL     1      -0.538  12.066  18.884  0.00  0.00    +0.000 A 
ATOM      2  N   UNL     1      -0.819  13.393  18.751  0.00  0.00    +0.000 NA
ATOM      3  C   UNL     1       0.198  14.285  18.744  0.00  0.00    +0.000 A 
ATOM      4  C   UNL     1      -0.042  15.647  18.581  0.00  0.00    +0.000 A 
ATOM      5  C   UNL     1       1.003  16.586  18.569  0.00  0.00    +0.000 A 
ATOM      6  C   UNL     1       2.321  16.152  18.696  0.00  0.00    +0.000 A 
ATOM      7  C   UNL     1       2.569  14.790  18.868  0.00  0.00    +0.000 A 
ATOM      8  C   UNL     1       1.534  13.864  18.896  0.00  0.00    +0.000 A 
ATOM      9  N   UNL     1       1.844  12.576  19.036  0.00  0.00    +0.000 NA
ATOM     10  C   UNL     1       0.824  11.669  18.993  0.00  0.00    +0.000 A 
ENDROOT
BRANCH  10  11
ATOM     11  C   UNL     1       1.332  10.288  18.916  0.00  0.00    +0.000 A 
ATOM     12  C   UNL     1       1.933   9.754  17.761  0.00  0.00    +0.000 A 
ATOM     13  C   UNL     1       2.363   8.419  17.714  0.00  0.00    +0.000 A 
ATOM     14  C   UNL     1       2.196   7.632  18.841  0.00  0.00    +0.000 A 
ATOM     15  N   UNL     1       2.618   6.304  18.853  0.00  0.00    +0.000 N 
ATOM     16  C   UNL     1       2.501   5.516  19.978  0.00  0.00    +0.000 C 
ATOM     17  O   UNL     1       2.061   5.868  21.063  0.00  0.00    +0.000 OA
ATOM     18  N   UNL     1       1.608   8.124  19.944  0.00  0.00    +0.000 NA
ATOM     19  C   UNL     1       1.168   9.394  19.957  0.00  0.00    +0.000 A 
ATOM     20  H   UNL     1       3.022   5.880  18.036  0.00  0.00    +0.000 HD
BRANCH  16  21
ATOM     21  O   UNL     1       2.960   4.253  19.750  0.00  0.00    +0.000 OA
BRANCH  21  22
ATOM     22  C   UNL     1       2.004   3.172  19.971  0.00  0.00    +0.000 C 
ATOM     23  C   UNL     1       2.407   1.898  19.206  0.00  0.00    +0.000 C 
ATOM     24  C   UNL     1       2.045   2.845  21.473  0.00  0.00    +0.000 C 
ATOM     25  C   UNL     1       0.571   3.626  19.642  0.00  0.00    +0.000 C 
ENDBRANCH  21  22
ENDBRANCH  16  21
ENDBRANCH  10  11
BRANCH   1  26
ATOM     26  N   UNL     1      -1.612  11.166  18.869  0.00  0.00    +0.000 N 
ATOM     27  C   UNL     1      -2.669  11.347  19.868  0.00  0.00    +0.000 C 
BRANCH  26  29
ATOM     28  C   UNL     1      -3.087   9.500  17.836  0.00  0.00    +0.000 C 
ATOM     29  C   UNL     1      -1.939  10.488  17.596  0.00  0.00    +0.000 C 
ATOM     30  C   UNL     1      -2.295  11.454  16.464  0.00  0.00    +0.000 C 
ENDBRANCH  26  29
ENDBRANCH   1  26
BRANCH   5  31
ATOM     31  C   UNL     1       0.666  18.014  18.357  0.00  0.00    +0.000 C 
ATOM     32  O   UNL     1      -0.191  18.588  19.003  0.00  0.00    +0.000 OA
BRANCH  31  33
ATOM     33  O   UNL     1       1.409  18.630  17.410  0.00  0.00    +0.000 OA
ATOM     34  H   UNL     1       2.306  18.283  17.271  0.00  0.00    +0.000 HD
ENDBRANCH  31  33
ENDBRANCH   5  31
TORSDOF 7
ENDMDL
MODEL 7
REMARK VINA RESULT:      -6.8      4.525      7.561
REMARK  Name = 
REMARK  13 active torsions:
REMARK  status: ('A' for Active; 'I' for Inactive)
REMARK    1  A    between atoms: C_1  and  C_2
REMARK    2  A    between atoms: C_2  and  C_3
REMARK    3  A    between atoms: C_2  and  N_4
REMARK    4  A    between atoms: N_4  and  C_5
REMARK    5  A    between atoms: N_4  and  C_6
REMARK    6  A    between atoms: C_10  and  C_11
REMARK    7  A    between atoms: C_11  and  O_13
REMARK    8  A    between atoms: C_18  and  C_19
REMARK    9  A    between atoms: C_24  and  O_26
REMARK   10  A    between atoms: O_26  and  C_27
REMARK   11  A    between atoms: C_27  and  C_28
REMARK   12  A    between atoms: C_27  and  C_29
REMARK   13  A    between atoms: C_27  and  C_30
REMARK                            x       y       z     vdW  Elec       q    Type
REMARK                         _______ _______ _______ _____ _____    ______ ____
ROOT
ATOM      1  C   UNL     1       2.187   5.743  20.142  0.00  0.00    +0.000 A 
ATOM      2  N   UNL     1       1.386   6.510  20.933  0.00  0.00    +0.000 NA
ATOM      3  C   UNL     1       1.209   7.816  20.624  0.00  0.00    +0.000 A 
ATOM      4  C   UNL     1       0.376   8.629  21.388  0.00  0.00    +0.000 A 
ATOM      5  C   UNL     1       0.179   9.984  21.078  0.00  0.00    +0.000 A 
ATOM      6  C   UNL     1       0.809  10.535  19.963  0.00  0.00    +0.000 A 
ATOM      7  C   UNL     1       1.651   9.729  19.198  0.00  0.00    +0.000 A 
ATOM      8  C   UNL     1       1.858   8.392  19.514  0.00  0.00    +0.000 A 
ATOM      9  N   UNL     1       2.654   7.673  18.724  0.00  0.00    +0.000 NA
ATOM     10  C   UNL     1       2.795   6.344  19.005  0.00  0.00    +0.000 A 
ENDROOT
BRANCH  10  11
ATOM     11  C   UNL     1       3.497   5.634  17.921  0.00  0.00    +0.000 A 
ATOM     12  C   UNL     1       3.181   4.319  17.533  0.00  0.00    +0.000 A 
ATOM     13  C   UNL     1       3.906   3.663  16.527  0.00  0.00    +0.000 A 
ATOM     14  C   UNL     1       4.939   4.345  15.906  0.00  0.00    +0.000 A 
ATOM     15  N   UNL     1       5.682   3.746  14.890  0.00  0.00    +0.000 N 
ATOM     16  C   UNL     1       6.685   4.421  14.230  0.00  0.00    +0.000 C 
ATOM     17  O   UNL     1       7.020   5.582  14.419  0.00  0.00    +0.000 OA
ATOM     18  N   UNL     1       5.263   5.594  16.279  0.00  0.00    +0.000 NA
ATOM     19  C   UNL     1       4.582   6.192  17.272  0.00  0.00    +0.000 A 
ATOM     20  H   UNL     1       5.506   2.797  14.609  0.00  0.00    +0.000 HD
BRANCH  16  21
ATOM     21  O   UNL     1       7.283   3.632  13.293  0.00  0.00    +0.000 OA
BRANCH  21  22
ATOM     22  C   UNL     1       6.677   3.637  11.966  0.00  0.00    +0.000 C 
ATOM     23  C   UNL     1       7.122   4.864  11.147  0.00  0.00    +0.000 C 
ATOM     24  C   UNL     1       7.189   2.383  11.239  0.00  0.00    +0.000 C 
ATOM     25  C   UNL     1       5.145   3.517  12.058  0.00  0.00    +0.000 C 
ENDBRANCH  21  22
ENDBRANCH  16  21
ENDBRANCH  10  11
BRANCH   1  26
ATOM     26  N   UNL     1       2.335   4.390  20.480  0.00  0.00    +0.000 N 
ATOM     27  C   UNL     1       3.622   3.961  21.033  0.00  0.00    +0.000 C 
BRANCH  26  29
ATOM     28  C   UNL     1       0.583   2.959  19.529  0.00  0.00    +0.000 C 
ATOM     29  C   UNL     1       1.119   3.615  20.808  0.00  0.00    +0.000 C 
ATOM     30  C   UNL     1       1.344   2.559  21.893  0.00  0.00    +0.000 C 
ENDBRANCH  26  29
ENDBRANCH   1  26
BRANCH   5  31
ATOM     31  C   UNL     1      -0.750  10.774  21.921  0.00  0.00    +0.000 C 
ATOM     32  O   UNL     1      -1.495  11.619  21.459  0.00  0.00    +0.000 OA
BRANCH  31  33
ATOM     33  O   UNL     1      -0.724  10.456  23.235  0.00  0.00    +0.000 OA
ATOM     34  H   UNL     1      -1.493  10.731  23.761  0.00  0.00    +0.000 HD
ENDBRANCH  31  33
ENDBRANCH   5  31
TORSDOF 7
ENDMDL
MODEL 8
REMARK VINA RESULT:      -6.8      3.270      4.652
REMARK  Name = 
REMARK  13 active torsions:
REMARK  status: ('A' for Active; 'I' for Inactive)
REMARK    1  A    between atoms: C_1  and  C_2
REMARK    2  A    between atoms: C_2  and  C_3
REMARK    3  A    between atoms: C_2  and  N_4
REMARK    4  A    between atoms: N_4  and  C_5
REMARK    5  A    between atoms: N_4  and  C_6
REMARK    6  A    between atoms: C_10  and  C_11
REMARK    7  A    between atoms: C_11  and  O_13
REMARK    8  A    between atoms: C_18  and  C_19
REMARK    9  A    between atoms: C_24  and  O_26
REMARK   10  A    between atoms: O_26  and  C_27
REMARK   11  A    between atoms: C_27  and  C_28
REMARK   12  A    between atoms: C_27  and  C_29
REMARK   13  A    between atoms: C_27  and  C_30
REMARK                            x       y       z     vdW  Elec       q    Type
REMARK                         _______ _______ _______ _____ _____    ______ ____
ROOT
ATOM      1  C   UNL     1      -0.762  12.998  20.685  0.00  0.00    +0.000 A 
ATOM      2  N   UNL     1      -1.464  14.073  21.142  0.00  0.00    +0.000 NA
ATOM      3  C   UNL     1      -2.325  13.909  22.172  0.00  0.00    +0.000 A 
ATOM      4  C   UNL     1      -3.040  14.986  22.689  0.00  0.00    +0.000 A 
ATOM      5  C   UNL     1      -3.935  14.834  23.760  0.00  0.00    +0.000 A 
ATOM      6  C   UNL     1      -4.101  13.580  24.347  0.00  0.00    +0.000 A 
ATOM      7  C   UNL     1      -3.395  12.495  23.829  0.00  0.00    +0.000 A 
ATOM      8  C   UNL     1      -2.522  12.643  22.759  0.00  0.00    +0.000 A 
ATOM      9  N   UNL     1      -1.858  11.570  22.333  0.00  0.00    +0.000 NA
ATOM     10  C   UNL     1      -0.951  11.742  21.325  0.00  0.00    +0.000 A 
ENDROOT
BRANCH  10  11
ATOM     11  C   UNL     1      -0.129  10.535  21.127  0.00  0.00    +0.000 A 
ATOM     12  C   UNL     1       0.358   9.755  22.192  0.00  0.00    +0.000 A 
ATOM     13  C   UNL     1       1.177   8.638  21.962  0.00  0.00    +0.000 A 
ATOM     14  C   UNL     1       1.488   8.307  20.654  0.00  0.00    +0.000 A 
ATOM     15  N   UNL     1       2.285   7.200  20.368  0.00  0.00    +0.000 N 
ATOM     16  C   UNL     1       2.571   6.828  19.072  0.00  0.00    +0.000 C 
ATOM     17  O   UNL     1       2.163   7.373  18.057  0.00  0.00    +0.000 OA
ATOM     18  N   UNL     1       1.044   9.054  19.629  0.00  0.00    +0.000 NA
ATOM     19  C   UNL     1       0.294  10.142  19.872  0.00  0.00    +0.000 A 
ATOM     20  H   UNL     1       2.677   6.639  21.104  0.00  0.00    +0.000 HD
BRANCH  16  21
ATOM     21  O   UNL     1       3.381   5.731  19.037  0.00  0.00    +0.000 OA
BRANCH  21  22
ATOM     22  C   UNL     1       2.708   4.437  19.005  0.00  0.00    +0.000 C 
ATOM     23  C   UNL     1       1.926   4.240  17.692  0.00  0.00    +0.000 C 
ATOM     24  C   UNL     1       3.809   3.364  19.054  0.00  0.00    +0.000 C 
ATOM     25  C   UNL     1       1.824   4.241  20.250  0.00  0.00    +0.000 C 
ENDBRANCH  21  22
ENDBRANCH  16  21
ENDBRANCH  10  11
BRANCH   1  26
ATOM     26  N   UNL     1       0.135  13.205  19.628  0.00  0.00    +0.000 N 
ATOM     27  C   UNL     1      -0.423  13.463  18.298  0.00  0.00    +0.000 C 
BRANCH  26  29
ATOM     28  C   UNL     1       2.495  13.101  18.965  0.00  0.00    +0.000 C 
ATOM     29  C   UNL     1       1.487  13.712  19.948  0.00  0.00    +0.000 C 
ATOM     30  C   UNL     1       1.586  15.238  19.932  0.00  0.00    +0.000 C 
ENDBRANCH  26  29
ENDBRANCH   1  26
BRANCH   5  31
ATOM     31  C   UNL     1      -4.632  16.036  24.275  0.00  0.00    +0.000 C 
ATOM     32  O   UNL     1      -4.048  17.074  24.528  0.00  0.00    +0.000 OA
BRANCH  31  33
ATOM     33  O   UNL     1      -5.970  15.895  24.411  0.00  0.00    +0.000 OA
ATOM     34  H   UNL     1      -6.398  15.250  23.823  0.00  0.00    +0.000 HD
ENDBRANCH  31  33
ENDBRANCH   5  31
TORSDOF 7
ENDMDL
MODEL 9
REMARK VINA RESULT:      -6.6      3.391      5.224
REMARK  Name = 
REMARK  13 active torsions:
REMARK  status: ('A' for Active; 'I' for Inactive)
REMARK    1  A    between atoms: C_1  and  C_2
REMARK    2  A    between atoms: C_2  and  C_3
REMARK    3  A    between atoms: C_2  and  N_4
REMARK    4  A    between atoms: N_4  and  C_5
REMARK    5  A    between atoms: N_4  and  C_6
REMARK    6  A    between atoms: C_10  and  C_11
REMARK    7  A    between atoms: C_11  and  O_13
REMARK    8  A    between atoms: C_18  and  C_19
REMARK    9  A    between atoms: C_24  and  O_26
REMARK   10  A    between atoms: O_26  and  C_27
REMARK   11  A    between atoms: C_27  and  C_28
REMARK   12  A    between atoms: C_27  and  C_29
REMARK   13  A    between atoms: C_27  and  C_30
REMARK                            x       y       z     vdW  Elec       q    Type
REMARK                         _______ _______ _______ _____ _____    ______ ____
ROOT
ATOM      1  C   UNL     1      -0.764  11.235  20.022  0.00  0.00    +0.000 A 
ATOM      2  N   UNL     1      -1.924  11.946  19.937  0.00  0.00    +0.000 NA
ATOM      3  C   UNL     1      -2.797  11.668  18.942  0.00  0.00    +0.000 A 
ATOM      4  C   UNL     1      -4.007  12.349  18.836  0.00  0.00    +0.000 A 
ATOM      5  C   UNL     1      -4.925  12.070  17.811  0.00  0.00    +0.000 A 
ATOM      6  C   UNL     1      -4.641  11.068  16.885  0.00  0.00    +0.000 A 
ATOM      7  C   UNL     1      -3.428  10.387  16.979  0.00  0.00    +0.000 A 
ATOM      8  C   UNL     1      -2.513  10.674  17.984  0.00  0.00    +0.000 A 
ATOM      9  N   UNL     1      -1.385   9.965  18.032  0.00  0.00    +0.000 NA
ATOM     10  C   UNL     1      -0.525  10.211  19.065  0.00  0.00    +0.000 A 
ENDROOT
BRANCH  10  11
ATOM     11  C   UNL     1       0.545   9.199  19.127  0.00  0.00    +0.000 A 
ATOM     12  C   UNL     1       0.891   8.519  20.309  0.00  0.00    +0.000 A 
ATOM     13  C   UNL     1       1.948   7.596  20.336  0.00  0.00    +0.000 A 
ATOM     14  C   UNL     1       2.642   7.354  19.162  0.00  0.00    +0.000 A 
ATOM     15  N   UNL     1       3.691   6.436  19.128  0.00  0.00    +0.000 N 
ATOM     16  C   UNL     1       4.365   6.148  17.962  0.00  0.00    +0.000 C 
ATOM     17  O   UNL     1       4.128   6.613  16.857  0.00  0.00    +0.000 OA
ATOM     18  N   UNL     1       2.333   8.009  18.031  0.00  0.00    +0.000 NA
ATOM     19  C   UNL     1       1.343   8.918  18.034  0.00  0.00    +0.000 A 
ATOM     20  H   UNL     1       3.987   5.956  19.960  0.00  0.00    +0.000 HD
BRANCH  16  21
ATOM     21  O   UNL     1       5.360   5.240  18.174  0.00  0.00    +0.000 OA
BRANCH  21  22
ATOM     22  C   UNL     1       6.722   5.715  17.955  0.00  0.00    +0.000 C 
ATOM     23  C   UNL     1       7.539   5.709  19.260  0.00  0.00    +0.000 C 
ATOM     24  C   UNL     1       7.386   4.723  16.986  0.00  0.00    +0.000 C 
ATOM     25  C   UNL     1       6.723   7.093  17.268  0.00  0.00    +0.000 C 
ENDBRANCH  21  22
ENDBRANCH  16  21
ENDBRANCH  10  11
BRANCH   1  26
ATOM     26  N   UNL     1       0.111  11.536  21.075  0.00  0.00    +0.000 N 
ATOM     27  C   UNL     1       1.237  12.430  20.793  0.00  0.00    +0.000 C 
BRANCH  26  29
ATOM     28  C   UNL     1      -1.623  12.365  22.600  0.00  0.00    +0.000 C 
ATOM     29  C   UNL     1      -0.403  11.444  22.458  0.00  0.00    +0.000 C 
ATOM     30  C   UNL     1      -0.760  10.019  22.884  0.00  0.00    +0.000 C 
ENDBRANCH  26  29
ENDBRANCH   1  26
BRANCH   5  31
ATOM     31  C   UNL     1      -6.205  12.817  17.787  0.00  0.00    +0.000 C 
ATOM     32  O   UNL     1      -7.273  12.279  17.553  0.00  0.00    +0.000 OA
BRANCH  31  33
ATOM     33  O   UNL     1      -6.093  14.133  18.076  0.00  0.00    +0.000 OA
ATOM     34  H   UNL     1      -6.919  14.645  18.086  0.00  0.00    +0.000 HD
ENDBRANCH  31  33
ENDBRANCH   5  31
TORSDOF 7
ENDMDL
