MODEL 1
REMARK VINA RESULT:      -8.8      0.000      0.000
REMARK  Name = 
REMARK  8 active torsions:
REMARK  status: ('A' for Active; 'I' for Inactive)
REMARK    1  A    between atoms: C_1  and  C_2
REMARK    2  A    between atoms: C_6  and  C_7
REMARK    3  A    between atoms: C_8  and  N_9
REMARK    4  A    between atoms: C_10  and  C_12
REMARK    5  A    between atoms: C_12  and  C_13
REMARK    6  A    between atoms: C_13  and  C_14
REMARK    7  A    between atoms: C_14  and  N_15
REMARK    8  A    between atoms: C_18  and  C_19
REMARK                            x       y       z     vdW  Elec       q    Type
REMARK                         _______ _______ _______ _____ _____    ______ ____
ROOT
ATOM      1  N   UNL     1       3.062   6.152  18.857  0.00  0.00    +0.000 N 
ATOM      2  C   UNL     1       3.977   6.137  17.804  0.00  0.00    +0.000 C 
ATOM      3  O   UNL     1       4.439   7.163  17.308  0.00  0.00    +0.000 OA
ATOM      4  C   UNL     1       4.214   4.712  17.259  0.00  0.00    +0.000 C 
ATOM      5  O   UNL     1       4.496   3.741  18.268  0.00  0.00    +0.000 OA
ATOM      6  C   UNL     1       3.631   3.837  19.325  0.00  0.00    +0.000 A 
ATOM      7  C   UNL     1       3.547   2.725  20.160  0.00  0.00    +0.000 A 
ATOM      8  C   UNL     1       2.715   2.774  21.271  0.00  0.00    +0.000 A 
ATOM      9  C   UNL     1       1.992   3.934  21.493  0.00  0.00    +0.000 A 
ATOM     10  N   UNL     1       2.050   5.027  20.697  0.00  0.00    +0.000 NA
ATOM     11  C   UNL     1       2.882   4.979  19.633  0.00  0.00    +0.000 A 
ENDROOT
BRANCH   4  12
ATOM     12  C   UNL     1       5.257   4.619  16.158  0.00  0.00    +0.000 A 
ATOM     13  C   UNL     1       4.923   4.251  14.847  0.00  0.00    +0.000 A 
ATOM     14  C   UNL     1       5.896   4.237  13.845  0.00  0.00    +0.000 A 
ATOM     15  C   UNL     1       7.219   4.569  14.141  0.00  0.00    +0.000 A 
ATOM     16  C   UNL     1       7.572   4.914  15.442  0.00  0.00    +0.000 A 
ATOM     17  C   UNL     1       6.598   4.934  16.443  0.00  0.00    +0.000 A 
ENDBRANCH   4  12
BRANCH   1  18
ATOM     18  C   UNL     1       2.379   7.385  19.247  0.00  0.00    +0.000 C 
BRANCH  18  19
ATOM     19  C   UNL     1       1.638   8.050  18.084  0.00  0.00    +0.000 C 
BRANCH  19  20
ATOM     20  C   UNL     1       1.824   9.571  18.053  0.00  0.00    +0.000 C 
BRANCH  20  22
ATOM     21  N   UNL     1       1.017  10.785  19.990  0.00  0.00    +0.000 N 
ATOM     22  C   UNL     1       0.657  10.255  18.762  0.00  0.00    +0.000 C 
ATOM     23  O   UNL     1      -0.472  10.217  18.285  0.00  0.00    +0.000 OA
ATOM     24  H   UNL     1       1.886  10.418  20.353  0.00  0.00    +0.000 HD
BRANCH  21  32
ATOM     25  C   UNL     1      -0.170  13.577  19.982  0.00  0.00    +0.000 C 
ATOM     26  C   UNL     1      -0.477  12.507  20.994  0.00  0.00    +0.000 A 
ATOM     27  C   UNL     1      -1.347  12.856  22.047  0.00  0.00    +0.000 A 
ATOM     28  C   UNL     1      -1.635  11.962  23.073  0.00  0.00    +0.000 A 
ATOM     29  C   UNL     1      -1.070  10.692  23.061  0.00  0.00    +0.000 A 
ATOM     30  C   UNL     1      -0.205  10.307  22.025  0.00  0.00    +0.000 A 
ATOM     31  C   UNL     1       0.320   8.895  22.031  0.00  0.00    +0.000 C 
ATOM     32  C   UNL     1       0.089  11.215  20.975  0.00  0.00    +0.000 A 
ENDBRANCH  21  32
ENDBRANCH  20  22
ENDBRANCH  19  20
ENDBRANCH  18  19
ENDBRANCH   1  18
TORSDOF 6
ENDMDL
MODEL 2
REMARK VINA RESULT:      -8.7      0.277      1.787
REMARK  Name = 
REMARK  8 active torsions:
REMARK  status: ('A' for Active; 'I' for Inactive)
REMARK    1  A    between atoms: C_1  and  C_2
REMARK    2  A    between atoms: C_6  and  C_7
REMARK    3  A    between atoms: C_8  and  N_9
REMARK    4  A    between atoms: C_10  and  C_12
REMARK    5  A    between atoms: C_12  and  C_13
REMARK    6  A    between atoms: C_13  and  C_14
REMARK    7  A    between atoms: C_14  and  N_15
REMARK    8  A    between atoms: C_18  and  C_19
REMARK                            x       y       z     vdW  Elec       q    Type
REMARK                         _______ _______ _______ _____ _____    ______ ____
ROOT
ATOM      1  N   UNL     1       3.012   6.254  18.804  0.00  0.00    +0.000 N 
ATOM      2  C   UNL     1       3.952   6.251  17.773  0.00  0.00    +0.000 C 
ATOM      3  O   UNL     1       4.434   7.282  17.309  0.00  0.00    +0.000 OA
ATOM      4  C   UNL     1       4.188   4.835  17.205  0.00  0.00    +0.000 C 
ATOM      5  O   UNL     1       4.437   3.842  18.201  0.00  0.00    +0.000 OA
ATOM      6  C   UNL     1       3.548   3.925  19.239  0.00  0.00    +0.000 A 
ATOM      7  C   UNL     1       3.435   2.797  20.049  0.00  0.00    +0.000 A 
ATOM      8  C   UNL     1       2.577   2.832  21.142  0.00  0.00    +0.000 A 
ATOM      9  C   UNL     1       1.861   3.995  21.370  0.00  0.00    +0.000 A 
ATOM     10  N   UNL     1       1.947   5.102  20.597  0.00  0.00    +0.000 NA
ATOM     11  C   UNL     1       2.803   5.068  19.552  0.00  0.00    +0.000 A 
ENDROOT
BRANCH   4  12
ATOM     12  C   UNL     1       5.256   4.754  16.127  0.00  0.00    +0.000 A 
ATOM     13  C   UNL     1       6.586   5.126  16.370  0.00  0.00    +0.000 A 
ATOM     14  C   UNL     1       7.556   4.980  15.375  0.00  0.00    +0.000 A 
ATOM     15  C   UNL     1       7.208   4.482  14.118  0.00  0.00    +0.000 A 
ATOM     16  C   UNL     1       5.888   4.131  13.854  0.00  0.00    +0.000 A 
ATOM     17  C   UNL     1       4.920   4.271  14.851  0.00  0.00    +0.000 A 
ENDBRANCH   4  12
BRANCH   1  18
ATOM     18  C   UNL     1       2.332   7.485  19.203  0.00  0.00    +0.000 C 
BRANCH  18  19
ATOM     19  C   UNL     1       1.560   8.140  18.054  0.00  0.00    +0.000 C 
BRANCH  19  20
ATOM     20  C   UNL     1       1.727   9.662  18.018  0.00  0.00    +0.000 C 
BRANCH  20  22
ATOM     21  N   UNL     1       1.109  10.811  20.061  0.00  0.00    +0.000 N 
ATOM     22  C   UNL     1       0.635  10.329  18.853  0.00  0.00    +0.000 C 
ATOM     23  O   UNL     1      -0.532  10.316  18.478  0.00  0.00    +0.000 OA
ATOM     24  H   UNL     1       2.003  10.424  20.332  0.00  0.00    +0.000 HD
BRANCH  21  32
ATOM     25  C   UNL     1      -0.170   8.805  21.944  0.00  0.00    +0.000 C 
ATOM     26  C   UNL     1      -0.328  10.299  22.031  0.00  0.00    +0.000 A 
ATOM     27  C   UNL     1      -1.181  10.794  23.039  0.00  0.00    +0.000 A 
ATOM     28  C   UNL     1      -1.449  12.153  23.155  0.00  0.00    +0.000 A 
ATOM     29  C   UNL     1      -0.862  13.051  22.272  0.00  0.00    +0.000 A 
ATOM     30  C   UNL     1      -0.002  12.597  21.261  0.00  0.00    +0.000 A 
ATOM     31  C   UNL     1       0.660  13.625  20.381  0.00  0.00    +0.000 C 
ATOM     32  C   UNL     1       0.278  11.211  21.141  0.00  0.00    +0.000 A 
ENDBRANCH  21  32
ENDBRANCH  20  22
ENDBRANCH  19  20
ENDBRANCH  18  19
ENDBRANCH   1  18
TORSDOF 6
ENDMDL
MODEL 3
REMARK VINA RESULT:      -8.7      1.140      1.714
REMARK  Name = 
REMARK  8 active torsions:
REMARK  status: ('A' for Active; 'I' for Inactive)
REMARK    1  A    between atoms: C_1  and  C_2
REMARK    2  A    between atoms: C_6  and  C_7
REMARK    3  A    between atoms: C_8  and  N_9
REMARK    4  A    between atoms: C_10  and  C_12
REMARK    5  A    between atoms: C_12  and  C_13
REMARK    6  A    between atoms: C_13  and  C_14
REMARK    7  A    between atoms: C_14  and  N_15
REMARK    8  A    between atoms: C_18  and  C_19
REMARK                            x       y       z     vdW  Elec       q    Type
REMARK                         _______ _______ _______ _____ _____    ______ ____
ROOT
ATOM      1  N   UNL     1       4.139   6.132  17.557  0.00  0.00    +0.000 N 
ATOM      2  C   UNL     1       4.879   6.041  16.378  0.00  0.00    +0.000 C 
ATOM      3  O   UNL     1       5.450   7.006  15.873  0.00  0.00    +0.000 OA
ATOM      4  C   UNL     1       4.767   4.645  15.727  0.00  0.00    +0.000 C 
ATOM      5  O   UNL     1       5.001   3.562  16.628  0.00  0.00    +0.000 OA
ATOM      6  C   UNL     1       4.326   3.723  17.809  0.00  0.00    +0.000 A 
ATOM      7  C   UNL     1       4.154   2.580  18.586  0.00  0.00    +0.000 A 
ATOM      8  C   UNL     1       3.510   2.685  19.812  0.00  0.00    +0.000 A 
ATOM      9  C   UNL     1       3.055   3.933  20.203  0.00  0.00    +0.000 A 
ATOM     10  N   UNL     1       3.203   5.059  19.467  0.00  0.00    +0.000 NA
ATOM     11  C   UNL     1       3.854   4.951  18.287  0.00  0.00    +0.000 A 
ENDROOT
BRANCH   4  12
ATOM     12  C   UNL     1       5.610   4.459  14.477  0.00  0.00    +0.000 A 
ATOM     13  C   UNL     1       6.896   5.004  14.360  0.00  0.00    +0.000 A 
ATOM     14  C   UNL     1       7.669   4.761  13.222  0.00  0.00    +0.000 A 
ATOM     15  C   UNL     1       7.160   3.989  12.176  0.00  0.00    +0.000 A 
ATOM     16  C   UNL     1       5.876   3.461  12.266  0.00  0.00    +0.000 A 
ATOM     17  C   UNL     1       5.107   3.698  13.406  0.00  0.00    +0.000 A 
ENDBRANCH   4  12
BRANCH   1  18
ATOM     18  C   UNL     1       3.760   7.430  18.112  0.00  0.00    +0.000 C 
BRANCH  18  19
ATOM     19  C   UNL     1       2.277   7.755  17.912  0.00  0.00    +0.000 C 
BRANCH  19  20
ATOM     20  C   UNL     1       2.033   9.226  17.561  0.00  0.00    +0.000 C 
BRANCH  20  22
ATOM     21  N   UNL     1       1.369  10.078  19.731  0.00  0.00    +0.000 N 
ATOM     22  C   UNL     1       0.929   9.800  18.448  0.00  0.00    +0.000 C 
ATOM     23  O   UNL     1      -0.222   9.886  18.034  0.00  0.00    +0.000 OA
ATOM     24  H   UNL     1       2.239   9.624  19.972  0.00  0.00    +0.000 HD
BRANCH  21  32
ATOM     25  C   UNL     1       0.199  12.832  20.239  0.00  0.00    +0.000 C 
ATOM     26  C   UNL     1      -0.049  11.614  21.087  0.00  0.00    +0.000 A 
ATOM     27  C   UNL     1      -0.849  11.788  22.235  0.00  0.00    +0.000 A 
ATOM     28  C   UNL     1      -1.077  10.742  23.122  0.00  0.00    +0.000 A 
ATOM     29  C   UNL     1      -0.520   9.492  22.875  0.00  0.00    +0.000 A 
ATOM     30  C   UNL     1       0.276   9.280  21.739  0.00  0.00    +0.000 A 
ATOM     31  C   UNL     1       0.792   7.887  21.489  0.00  0.00    +0.000 C 
ATOM     32  C   UNL     1       0.508  10.343  20.829  0.00  0.00    +0.000 A 
ENDBRANCH  21  32
ENDBRANCH  20  22
ENDBRANCH  19  20
ENDBRANCH  18  19
ENDBRANCH   1  18
TORSDOF 6
ENDMDL
MODEL 4
REMARK VINA RESULT:      -8.6      5.208      7.815
REMARK  Name = 
REMARK  8 active torsions:
REMARK  status: ('A' for Active; 'I' for Inactive)
REMARK    1  A    between atoms: C_1  and  C_2
REMARK    2  A    between atoms: C_6  and  C_7
REMARK    3  A    between atoms: C_8  and  N_9
REMARK    4  A    between atoms: C_10  and  C_12
REMARK    5  A    between atoms: C_12  and  C_13
REMARK    6  A    between atoms: C_13  and  C_14
REMARK    7  A    between atoms: C_14  and  N_15
REMARK    8  A    between atoms: C_18  and  C_19
REMARK                            x       y       z     vdW  Elec       q    Type
REMARK                         _______ _______ _______ _____ _____    ______ ____
ROOT
ATOM      1  N   UNL     1       6.649   5.214  17.476  0.00  0.00    +0.000 N 
ATOM      2  C   UNL     1       5.556   5.000  18.316  0.00  0.00    +0.000 C 
ATOM      3  O   UNL     1       5.435   5.555  19.406  0.00  0.00    +0.000 OA
ATOM      4  C   UNL     1       4.620   3.893  17.783  0.00  0.00    +0.000 C 
ATOM      5  O   UNL     1       4.257   4.048  16.410  0.00  0.00    +0.000 OA
ATOM      6  C   UNL     1       5.341   4.339  15.625  0.00  0.00    +0.000 A 
ATOM      7  C   UNL     1       5.191   4.122  14.257  0.00  0.00    +0.000 A 
ATOM      8  C   UNL     1       6.241   4.433  13.403  0.00  0.00    +0.000 A 
ATOM      9  C   UNL     1       7.403   4.941  13.959  0.00  0.00    +0.000 A 
ATOM     10  N   UNL     1       7.579   5.157  15.283  0.00  0.00    +0.000 NA
ATOM     11  C   UNL     1       6.542   4.876  16.103  0.00  0.00    +0.000 A 
ENDROOT
BRANCH   4  12
ATOM     12  C   UNL     1       3.371   3.663  18.617  0.00  0.00    +0.000 A 
ATOM     13  C   UNL     1       2.483   4.703  18.928  0.00  0.00    +0.000 A 
ATOM     14  C   UNL     1       1.312   4.444  19.644  0.00  0.00    +0.000 A 
ATOM     15  C   UNL     1       1.021   3.150  20.078  0.00  0.00    +0.000 A 
ATOM     16  C   UNL     1       1.904   2.112  19.798  0.00  0.00    +0.000 A 
ATOM     17  C   UNL     1       3.071   2.368  19.077  0.00  0.00    +0.000 A 
ENDBRANCH   4  12
BRANCH   1  18
ATOM     18  C   UNL     1       7.852   5.889  17.958  0.00  0.00    +0.000 C 
BRANCH  18  19
ATOM     19  C   UNL     1       7.733   7.416  17.927  0.00  0.00    +0.000 C 
BRANCH  19  20
ATOM     20  C   UNL     1       8.543   8.098  19.034  0.00  0.00    +0.000 C 
BRANCH  20  22
ATOM     21  N   UNL     1       9.662  10.186  19.546  0.00  0.00    +0.000 N 
ATOM     22  C   UNL     1       8.774   9.568  18.684  0.00  0.00    +0.000 C 
ATOM     23  O   UNL     1       8.134  10.102  17.785  0.00  0.00    +0.000 OA
ATOM     24  H   UNL     1       9.809   9.683  20.411  0.00  0.00    +0.000 HD
BRANCH  21  32
ATOM     25  C   UNL     1      11.163  11.762  17.432  0.00  0.00    +0.000 C 
ATOM     26  C   UNL     1      10.532  12.348  18.666  0.00  0.00    +0.000 A 
ATOM     27  C   UNL     1      10.701  13.733  18.872  0.00  0.00    +0.000 A 
ATOM     28  C   UNL     1      10.219  14.356  20.018  0.00  0.00    +0.000 A 
ATOM     29  C   UNL     1       9.546  13.611  20.979  0.00  0.00    +0.000 A 
ATOM     30  C   UNL     1       9.353  12.232  20.804  0.00  0.00    +0.000 A 
ATOM     31  C   UNL     1       8.554  11.493  21.846  0.00  0.00    +0.000 C 
ATOM     32  C   UNL     1       9.839  11.592  19.635  0.00  0.00    +0.000 A 
ENDBRANCH  21  32
ENDBRANCH  20  22
ENDBRANCH  19  20
ENDBRANCH  18  19
ENDBRANCH   1  18
TORSDOF 6
ENDMDL
MODEL 5
REMARK VINA RESULT:      -8.5      2.106      8.662
REMARK  Name = 
REMARK  8 active torsions:
REMARK  status: ('A' for Active; 'I' for Inactive)
REMARK    1  A    between atoms: C_1  and  C_2
REMARK    2  A    between atoms: C_6  and  C_7
REMARK    3  A    between atoms: C_8  and  N_9
REMARK    4  A    between atoms: C_10  and  C_12
REMARK    5  A    between atoms: C_12  and  C_13
REMARK    6  A    between atoms: C_13  and  C_14
REMARK    7  A    between atoms: C_14  and  N_15
REMARK    8  A    between atoms: C_18  and  C_19
REMARK                            x       y       z     vdW  Elec       q    Type
REMARK                         _______ _______ _______ _____ _____    ______ ____
ROOT
ATOM      1  N   UNL     1       3.832   5.651  18.924  0.00  0.00    +0.000 N 
ATOM      2  C   UNL     1       3.159   6.867  18.808  0.00  0.00    +0.000 C 
ATOM      3  O   UNL     1       3.343   7.644  17.872  0.00  0.00    +0.000 OA
ATOM      4  C   UNL     1       2.290   7.172  20.047  0.00  0.00    +0.000 C 
ATOM      5  O   UNL     1       1.444   6.092  20.445  0.00  0.00    +0.000 OA
ATOM      6  C   UNL     1       2.115   4.899  20.469  0.00  0.00    +0.000 A 
ATOM      7  C   UNL     1       1.529   3.872  21.205  0.00  0.00    +0.000 A 
ATOM      8  C   UNL     1       2.142   2.626  21.237  0.00  0.00    +0.000 A 
ATOM      9  C   UNL     1       3.326   2.465  20.537  0.00  0.00    +0.000 A 
ATOM     10  N   UNL     1       3.921   3.445  19.819  0.00  0.00    +0.000 NA
ATOM     11  C   UNL     1       3.303   4.646  19.772  0.00  0.00    +0.000 A 
ENDROOT
BRANCH   4  12
ATOM     12  C   UNL     1       1.473   8.449  19.950  0.00  0.00    +0.000 A 
ATOM     13  C   UNL     1       1.366   9.174  18.755  0.00  0.00    +0.000 A 
ATOM     14  C   UNL     1       0.556  10.310  18.684  0.00  0.00    +0.000 A 
ATOM     15  C   UNL     1      -0.141  10.751  19.810  0.00  0.00    +0.000 A 
ATOM     16  C   UNL     1      -0.027  10.056  21.010  0.00  0.00    +0.000 A 
ATOM     17  C   UNL     1       0.777   8.917  21.079  0.00  0.00    +0.000 A 
ENDBRANCH   4  12
BRANCH   1  18
ATOM     18  C   UNL     1       5.001   5.353  18.097  0.00  0.00    +0.000 C 
BRANCH  18  19
ATOM     19  C   UNL     1       6.318   5.784  18.748  0.00  0.00    +0.000 C 
BRANCH  19  20
ATOM     20  C   UNL     1       7.329   6.332  17.736  0.00  0.00    +0.000 C 
BRANCH  20  22
ATOM     21  N   UNL     1       6.993   5.799  15.395  0.00  0.00    +0.000 N 
ATOM     22  C   UNL     1       7.516   5.337  16.591  0.00  0.00    +0.000 C 
ATOM     23  O   UNL     1       7.996   4.229  16.800  0.00  0.00    +0.000 OA
ATOM     24  H   UNL     1       6.345   6.567  15.502  0.00  0.00    +0.000 HD
BRANCH  21  32
ATOM     25  C   UNL     1       8.816   5.882  12.970  0.00  0.00    +0.000 C 
ATOM     26  C   UNL     1       7.604   5.002  13.115  0.00  0.00    +0.000 A 
ATOM     27  C   UNL     1       7.267   4.193  12.010  0.00  0.00    +0.000 A 
ATOM     28  C   UNL     1       6.125   3.400  12.017  0.00  0.00    +0.000 A 
ATOM     29  C   UNL     1       5.298   3.389  13.134  0.00  0.00    +0.000 A 
ATOM     30  C   UNL     1       5.605   4.176  14.255  0.00  0.00    +0.000 A 
ATOM     31  C   UNL     1       4.709   4.065  15.462  0.00  0.00    +0.000 C 
ATOM     32  C   UNL     1       6.771   4.983  14.254  0.00  0.00    +0.000 A 
ENDBRANCH  21  32
ENDBRANCH  20  22
ENDBRANCH  19  20
ENDBRANCH  18  19
ENDBRANCH   1  18
TORSDOF 6
ENDMDL
MODEL 6
REMARK VINA RESULT:      -8.4      5.209      7.861
REMARK  Name = 
REMARK  8 active torsions:
REMARK  status: ('A' for Active; 'I' for Inactive)
REMARK    1  A    between atoms: C_1  and  C_2
REMARK    2  A    between atoms: C_6  and  C_7
REMARK    3  A    between atoms: C_8  and  N_9
REMARK    4  A    between atoms: C_10  and  C_12
REMARK    5  A    between atoms: C_12  and  C_13
REMARK    6  A    between atoms: C_13  and  C_14
REMARK    7  A    between atoms: C_14  and  N_15
REMARK    8  A    between atoms: C_18  and  C_19
REMARK                            x       y       z     vdW  Elec       q    Type
REMARK                         _______ _______ _______ _____ _____    ______ ____
ROOT
ATOM      1  N   UNL     1       6.506   5.572  17.811  0.00  0.00    +0.000 N 
ATOM      2  C   UNL     1       5.439   5.260  18.654  0.00  0.00    +0.000 C 
ATOM      3  O   UNL     1       5.195   5.890  19.681  0.00  0.00    +0.000 OA
ATOM      4  C   UNL     1       4.716   3.966  18.223  0.00  0.00    +0.000 C 
ATOM      5  O   UNL     1       4.374   3.924  16.837  0.00  0.00    +0.000 OA
ATOM      6  C   UNL     1       5.417   4.316  16.040  0.00  0.00    +0.000 A 
ATOM      7  C   UNL     1       5.346   3.945  14.700  0.00  0.00    +0.000 A 
ATOM      8  C   UNL     1       6.355   4.344  13.833  0.00  0.00    +0.000 A 
ATOM      9  C   UNL     1       7.400   5.092  14.350  0.00  0.00    +0.000 A 
ATOM     10  N   UNL     1       7.497   5.461  15.648  0.00  0.00    +0.000 NA
ATOM     11  C   UNL     1       6.498   5.090  16.479  0.00  0.00    +0.000 A 
ENDROOT
BRANCH   4  12
ATOM     12  C   UNL     1       3.498   3.611  19.059  0.00  0.00    +0.000 A 
ATOM     13  C   UNL     1       2.192   3.774  18.576  0.00  0.00    +0.000 A 
ATOM     14  C   UNL     1       1.096   3.379  19.347  0.00  0.00    +0.000 A 
ATOM     15  C   UNL     1       1.288   2.836  20.619  0.00  0.00    +0.000 A 
ATOM     16  C   UNL     1       2.576   2.690  21.122  0.00  0.00    +0.000 A 
ATOM     17  C   UNL     1       3.672   3.078  20.349  0.00  0.00    +0.000 A 
ENDBRANCH   4  12
BRANCH   1  18
ATOM     18  C   UNL     1       7.565   6.484  18.240  0.00  0.00    +0.000 C 
BRANCH  18  19
ATOM     19  C   UNL     1       7.282   7.943  17.872  0.00  0.00    +0.000 C 
BRANCH  19  20
ATOM     20  C   UNL     1       8.543   8.708  17.459  0.00  0.00    +0.000 C 
BRANCH  20  22
ATOM     21  N   UNL     1       8.964  11.090  17.626  0.00  0.00    +0.000 N 
ATOM     22  C   UNL     1       8.728   9.935  18.352  0.00  0.00    +0.000 C 
ATOM     23  O   UNL     1       8.752   9.820  19.572  0.00  0.00    +0.000 OA
ATOM     24  H   UNL     1       9.247  10.920  16.670  0.00  0.00    +0.000 HD
BRANCH  21  32
ATOM     25  C   UNL     1      11.712  11.293  18.897  0.00  0.00    +0.000 C 
ATOM     26  C   UNL     1      10.722  12.421  18.784  0.00  0.00    +0.000 A 
ATOM     27  C   UNL     1      11.090  13.652  19.364  0.00  0.00    +0.000 A 
ATOM     28  C   UNL     1      10.216  14.734  19.378  0.00  0.00    +0.000 A 
ATOM     29  C   UNL     1       8.958  14.613  18.801  0.00  0.00    +0.000 A 
ATOM     30  C   UNL     1       8.559  13.405  18.208  0.00  0.00    +0.000 A 
ATOM     31  C   UNL     1       7.211  13.358  17.537  0.00  0.00    +0.000 C 
ATOM     32  C   UNL     1       9.449  12.300  18.188  0.00  0.00    +0.000 A 
ENDBRANCH  21  32
ENDBRANCH  20  22
ENDBRANCH  19  20
ENDBRANCH  18  19
ENDBRANCH   1  18
TORSDOF 6
ENDMDL
MODEL 7
REMARK VINA RESULT:      -8.4      1.453      1.969
REMARK  Name = 
REMARK  8 active torsions:
REMARK  status: ('A' for Active; 'I' for Inactive)
REMARK    1  A    between atoms: C_1  and  C_2
REMARK    2  A    between atoms: C_6  and  C_7
REMARK    3  A    between atoms: C_8  and  N_9
REMARK    4  A    between atoms: C_10  and  C_12
REMARK    5  A    between atoms: C_12  and  C_13
REMARK    6  A    between atoms: C_13  and  C_14
REMARK    7  A    between atoms: C_14  and  N_15
REMARK    8  A    between atoms: C_18  and  C_19
REMARK                            x       y       z     vdW  Elec       q    Type
REMARK                         _______ _______ _______ _____ _____    ______ ____
ROOT
ATOM      1  N   UNL     1       2.998   6.106  18.858  0.00  0.00    +0.000 N 
ATOM      2  C   UNL     1       3.982   6.089  17.869  0.00  0.00    +0.000 C 
ATOM      3  O   UNL     1       4.608   7.093  17.535  0.00  0.00    +0.000 OA
ATOM      4  C   UNL     1       4.076   4.718  17.165  0.00  0.00    +0.000 C 
ATOM      5  O   UNL     1       4.152   3.607  18.059  0.00  0.00    +0.000 OA
ATOM      6  C   UNL     1       3.228   3.697  19.066  0.00  0.00    +0.000 A 
ATOM      7  C   UNL     1       2.938   2.517  19.748  0.00  0.00    +0.000 A 
ATOM      8  C   UNL     1       2.037   2.550  20.803  0.00  0.00    +0.000 A 
ATOM      9  C   UNL     1       1.454   3.764  21.125  0.00  0.00    +0.000 A 
ATOM     10  N   UNL     1       1.712   4.923  20.477  0.00  0.00    +0.000 NA
ATOM     11  C   UNL     1       2.611   4.887  19.468  0.00  0.00    +0.000 A 
ENDROOT
BRANCH   4  12
ATOM     12  C   UNL     1       5.180   4.613  16.126  0.00  0.00    +0.000 A 
ATOM     13  C   UNL     1       4.927   4.192  14.813  0.00  0.00    +0.000 A 
ATOM     14  C   UNL     1       5.955   4.167  13.866  0.00  0.00    +0.000 A 
ATOM     15  C   UNL     1       7.252   4.540  14.223  0.00  0.00    +0.000 A 
ATOM     16  C   UNL     1       7.524   4.936  15.528  0.00  0.00    +0.000 A 
ATOM     17  C   UNL     1       6.496   4.968  16.473  0.00  0.00    +0.000 A 
ENDBRANCH   4  12
BRANCH   1  18
ATOM     18  C   UNL     1       2.451   7.366  19.357  0.00  0.00    +0.000 C 
BRANCH  18  19
ATOM     19  C   UNL     1       1.578   8.088  18.327  0.00  0.00    +0.000 C 
BRANCH  19  20
ATOM     20  C   UNL     1       2.137   9.458  17.929  0.00  0.00    +0.000 C 
BRANCH  20  22
ATOM     21  N   UNL     1       0.026  10.096  18.936  0.00  0.00    +0.000 N 
ATOM     22  C   UNL     1       1.247  10.568  18.485  0.00  0.00    +0.000 C 
ATOM     23  O   UNL     1       1.597  11.741  18.417  0.00  0.00    +0.000 OA
ATOM     24  H   UNL     1      -0.206   9.173  18.594  0.00  0.00    +0.000 HD
BRANCH  21  32
ATOM     25  C   UNL     1      -0.192  11.649  21.533  0.00  0.00    +0.000 C 
ATOM     26  C   UNL     1      -1.215  11.656  20.430  0.00  0.00    +0.000 A 
ATOM     27  C   UNL     1      -2.388  12.406  20.652  0.00  0.00    +0.000 A 
ATOM     28  C   UNL     1      -3.425  12.418  19.726  0.00  0.00    +0.000 A 
ATOM     29  C   UNL     1      -3.307  11.688  18.549  0.00  0.00    +0.000 A 
ATOM     30  C   UNL     1      -2.152  10.935  18.290  0.00  0.00    +0.000 A 
ATOM     31  C   UNL     1      -2.055  10.223  16.966  0.00  0.00    +0.000 C 
ATOM     32  C   UNL     1      -1.090  10.923  19.231  0.00  0.00    +0.000 A 
ENDBRANCH  21  32
ENDBRANCH  20  22
ENDBRANCH  19  20
ENDBRANCH  18  19
ENDBRANCH   1  18
TORSDOF 6
ENDMDL
MODEL 8
REMARK VINA RESULT:      -8.4      5.139      7.763
REMARK  Name = 
REMARK  8 active torsions:
REMARK  status: ('A' for Active; 'I' for Inactive)
REMARK    1  A    between atoms: C_1  and  C_2
REMARK    2  A    between atoms: C_6  and  C_7
REMARK    3  A    between atoms: C_8  and  N_9
REMARK    4  A    between atoms: C_10  and  C_12
REMARK    5  A    between atoms: C_12  and  C_13
REMARK    6  A    between atoms: C_13  and  C_14
REMARK    7  A    between atoms: C_14  and  N_15
REMARK    8  A    between atoms: C_18  and  C_19
REMARK                            x       y       z     vdW  Elec       q    Type
REMARK                         _______ _______ _______ _____ _____    ______ ____
ROOT
ATOM      1  N   UNL     1       5.565   6.201  17.329  0.00  0.00    +0.000 N 
ATOM      2  C   UNL     1       4.572   5.768  18.208  0.00  0.00    +0.000 C 
ATOM      3  O   UNL     1       3.973   6.531  18.963  0.00  0.00    +0.000 OA
ATOM      4  C   UNL     1       4.433   4.230  18.218  0.00  0.00    +0.000 C 
ATOM      5  O   UNL     1       4.332   3.646  16.918  0.00  0.00    +0.000 OA
ATOM      6  C   UNL     1       5.267   4.153  16.056  0.00  0.00    +0.000 A 
ATOM      7  C   UNL     1       5.529   3.401  14.913  0.00  0.00    +0.000 A 
ATOM      8  C   UNL     1       6.440   3.880  13.981  0.00  0.00    +0.000 A 
ATOM      9  C   UNL     1       7.060   5.090  14.239  0.00  0.00    +0.000 A 
ATOM     10  N   UNL     1       6.831   5.839  15.343  0.00  0.00    +0.000 NA
ATOM     11  C   UNL     1       5.923   5.378  16.231  0.00  0.00    +0.000 A 
ENDROOT
BRANCH   4  12
ATOM     12  C   UNL     1       3.317   3.700  19.102  0.00  0.00    +0.000 A 
ATOM     13  C   UNL     1       3.549   3.285  20.421  0.00  0.00    +0.000 A 
ATOM     14  C   UNL     1       2.489   2.862  21.228  0.00  0.00    +0.000 A 
ATOM     15  C   UNL     1       1.189   2.827  20.723  0.00  0.00    +0.000 A 
ATOM     16  C   UNL     1       0.946   3.213  19.408  0.00  0.00    +0.000 A 
ATOM     17  C   UNL     1       2.004   3.643  18.605  0.00  0.00    +0.000 A 
ENDBRANCH   4  12
BRANCH   1  18
ATOM     18  C   UNL     1       6.153   7.534  17.449  0.00  0.00    +0.000 C 
BRANCH  18  19
ATOM     19  C   UNL     1       7.684   7.515  17.434  0.00  0.00    +0.000 C 
BRANCH  19  20
ATOM     20  C   UNL     1       8.298   8.050  18.732  0.00  0.00    +0.000 C 
BRANCH  20  22
ATOM     21  N   UNL     1       9.606   9.940  19.501  0.00  0.00    +0.000 N 
ATOM     22  C   UNL     1       8.675   9.521  18.566  0.00  0.00    +0.000 C 
ATOM     23  O   UNL     1       8.104  10.221  17.738  0.00  0.00    +0.000 OA
ATOM     24  H   UNL     1       9.691   9.323  20.297  0.00  0.00    +0.000 HD
BRANCH  21  32
ATOM     25  C   UNL     1      11.317  11.595  17.619  0.00  0.00    +0.000 C 
ATOM     26  C   UNL     1      10.710  12.092  18.903  0.00  0.00    +0.000 A 
ATOM     27  C   UNL     1      11.007  13.418  19.279  0.00  0.00    +0.000 A 
ATOM     28  C   UNL     1      10.555  13.947  20.483  0.00  0.00    +0.000 A 
ATOM     29  C   UNL     1       9.784  13.164  21.335  0.00  0.00    +0.000 A 
ATOM     30  C   UNL     1       9.462  11.843  20.991  0.00  0.00    +0.000 A 
ATOM     31  C   UNL     1       8.564  11.070  21.922  0.00  0.00    +0.000 C 
ATOM     32  C   UNL     1       9.917  11.300  19.762  0.00  0.00    +0.000 A 
ENDBRANCH  21  32
ENDBRANCH  20  22
ENDBRANCH  19  20
ENDBRANCH  18  19
ENDBRANCH   1  18
TORSDOF 6
ENDMDL
MODEL 9
REMARK VINA RESULT:      -8.3      1.351      1.918
REMARK  Name = 
REMARK  8 active torsions:
REMARK  status: ('A' for Active; 'I' for Inactive)
REMARK    1  A    between atoms: C_1  and  C_2
REMARK    2  A    between atoms: C_6  and  C_7
REMARK    3  A    between atoms: C_8  and  N_9
REMARK    4  A    between atoms: C_10  and  C_12
REMARK    5  A    between atoms: C_12  and  C_13
REMARK    6  A    between atoms: C_13  and  C_14
REMARK    7  A    between atoms: C_14  and  N_15
REMARK    8  A    between atoms: C_18  and  C_19
REMARK                            x       y       z     vdW  Elec       q    Type
REMARK                         _______ _______ _______ _____ _____    ______ ____
ROOT
ATOM      1  N   UNL     1       3.187   6.136  18.993  0.00  0.00    +0.000 N 
ATOM      2  C   UNL     1       4.076   6.152  17.918  0.00  0.00    +0.000 C 
ATOM      3  O   UNL     1       4.562   7.190  17.472  0.00  0.00    +0.000 OA
ATOM      4  C   UNL     1       4.248   4.755  17.284  0.00  0.00    +0.000 C 
ATOM      5  O   UNL     1       4.518   3.717  18.226  0.00  0.00    +0.000 OA
ATOM      6  C   UNL     1       3.683   3.779  19.309  0.00  0.00    +0.000 A 
ATOM      7  C   UNL     1       3.578   2.622  20.079  0.00  0.00    +0.000 A 
ATOM      8  C   UNL     1       2.775   2.633  21.212  0.00  0.00    +0.000 A 
ATOM      9  C   UNL     1       2.101   3.802  21.521  0.00  0.00    +0.000 A 
ATOM     10  N   UNL     1       2.179   4.938  20.789  0.00  0.00    +0.000 NA
ATOM     11  C   UNL     1       2.983   4.926  19.703  0.00  0.00    +0.000 A 
ENDROOT
BRANCH   4  12
ATOM     12  C   UNL     1       5.261   4.693  16.153  0.00  0.00    +0.000 A 
ATOM     13  C   UNL     1       6.597   5.080  16.330  0.00  0.00    +0.000 A 
ATOM     14  C   UNL     1       7.517   4.951  15.286  0.00  0.00    +0.000 A 
ATOM     15  C   UNL     1       7.112   4.455  14.046  0.00  0.00    +0.000 A 
ATOM     16  C   UNL     1       5.784   4.089  13.847  0.00  0.00    +0.000 A 
ATOM     17  C   UNL     1       4.866   4.211  14.892  0.00  0.00    +0.000 A 
ENDBRANCH   4  12
BRANCH   1  18
ATOM     18  C   UNL     1       2.559   7.366  19.473  0.00  0.00    +0.000 C 
BRANCH  18  19
ATOM     19  C   UNL     1       1.621   7.999  18.441  0.00  0.00    +0.000 C 
BRANCH  19  20
ATOM     20  C   UNL     1       2.112   9.365  17.951  0.00  0.00    +0.000 C 
BRANCH  20  22
ATOM     21  N   UNL     1       0.038   9.990  19.039  0.00  0.00    +0.000 N 
ATOM     22  C   UNL     1       1.225  10.474  18.517  0.00  0.00    +0.000 C 
ATOM     23  O   UNL     1       1.547  11.651  18.398  0.00  0.00    +0.000 OA
ATOM     24  H   UNL     1      -0.190   9.053  18.736  0.00  0.00    +0.000 HD
BRANCH  21  32
ATOM     25  C   UNL     1      -2.222  10.486  17.076  0.00  0.00    +0.000 C 
ATOM     26  C   UNL     1      -2.144  11.049  18.468  0.00  0.00    +0.000 A 
ATOM     27  C   UNL     1      -3.182  11.916  18.865  0.00  0.00    +0.000 A 
ATOM     28  C   UNL     1      -3.165  12.546  20.105  0.00  0.00    +0.000 A 
ATOM     29  C   UNL     1      -2.112  12.313  20.982  0.00  0.00    +0.000 A 
ATOM     30  C   UNL     1      -1.064  11.451  20.625  0.00  0.00    +0.000 A 
ATOM     31  C   UNL     1       0.010  11.185  21.647  0.00  0.00    +0.000 C 
ATOM     32  C   UNL     1      -1.080  10.803  19.363  0.00  0.00    +0.000 A 
ENDBRANCH  21  32
ENDBRANCH  20  22
ENDBRANCH  19  20
ENDBRANCH  18  19
ENDBRANCH   1  18
TORSDOF 6
ENDMDL
