MODEL 1
REMARK VINA RESULT:      -7.9      0.000      0.000
REMARK  Name = 
REMARK  6 active torsions:
REMARK  status: ('A' for Active; 'I' for Inactive)
REMARK    1  A    between atoms: C_1  and  C_2
REMARK    2  A    between atoms: C_2  and  C_3
REMARK    3  A    between atoms: C_2  and  N_13
REMARK    4  A    between atoms: N_13  and  O_14
REMARK    5  A    between atoms: N_13  and  C_15
REMARK    6  A    between atoms: C_15  and  C_16
REMARK                            x       y       z     vdW  Elec       q    Type
REMARK                         _______ _______ _______ _____ _____    ______ ____
ROOT
ATOM      1  C   UNL     1       4.013   6.327  17.335  0.00  0.00    +0.000 C 
ATOM      2  C   UNL     1       4.511   4.967  16.805  0.00  0.00    +0.000 C 
ENDROOT
BRANCH   2   3
ATOM      3  C   UNL     1       5.725   5.114  15.891  0.00  0.00    +0.000 A 
ATOM      4  C   UNL     1       6.917   5.758  16.198  0.00  0.00    +0.000 A 
ATOM      5  N   UNL     1       7.758   5.677  15.130  0.00  0.00    +0.000 N 
ATOM      6  C   UNL     1       7.159   4.993  14.103  0.00  0.00    +0.000 A 
ATOM      7  C   UNL     1       7.656   4.679  12.833  0.00  0.00    +0.000 A 
ATOM      8  C   UNL     1       6.826   3.963  11.969  0.00  0.00    +0.000 A 
ATOM      9  C   UNL     1       5.554   3.575  12.377  0.00  0.00    +0.000 A 
ATOM     10 CL   UNL     1       4.553   2.690  11.285  0.00  0.00    +0.000 Cl
ATOM     11  C   UNL     1       5.067   3.894  13.654  0.00  0.00    +0.000 A 
ATOM     12  C   UNL     1       5.882   4.624  14.541  0.00  0.00    +0.000 A 
ATOM     13  H   UNL     1       8.692   6.063  15.094  0.00  0.00    +0.000 HD
ENDBRANCH   2   3
BRANCH   2  14
ATOM     14  N   UNL     1       4.836   3.987  17.866  0.00  0.00    +0.000 NA
BRANCH  14  15
ATOM     15  O   UNL     1       4.800   4.702  19.138  0.00  0.00    +0.000 OA
ATOM     16  H   UNL     1       3.957   5.187  19.042  0.00  0.00    +0.000 HD
ENDBRANCH  14  15
BRANCH  14  17
ATOM     17  C   UNL     1       3.852   2.897  17.987  0.00  0.00    +0.000 C 
BRANCH  17  18
ATOM     18  C   UNL     1       2.972   3.070  19.211  0.00  0.00    +0.000 A 
ATOM     19  C   UNL     1       3.352   2.511  20.442  0.00  0.00    +0.000 A 
ATOM     20  C   UNL     1       2.500   2.582  21.543  0.00  0.00    +0.000 A 
ATOM     21  C   UNL     1       1.264   3.216  21.429  0.00  0.00    +0.000 A 
ATOM     22  C   UNL     1       0.889   3.799  20.219  0.00  0.00    +0.000 A 
ATOM     23  C   UNL     1       1.741   3.733  19.116  0.00  0.00    +0.000 A 
ENDBRANCH  17  18
ENDBRANCH  14  17
ENDBRANCH   2  14
TORSDOF 5
ENDMDL
MODEL 2
REMARK VINA RESULT:      -7.9      0.131      1.062
REMARK  Name = 
REMARK  6 active torsions:
REMARK  status: ('A' for Active; 'I' for Inactive)
REMARK    1  A    between atoms: C_1  and  C_2
REMARK    2  A    between atoms: C_2  and  C_3
REMARK    3  A    between atoms: C_2  and  N_13
REMARK    4  A    between atoms: N_13  and  O_14
REMARK    5  A    between atoms: N_13  and  C_15
REMARK    6  A    between atoms: C_15  and  C_16
REMARK                            x       y       z     vdW  Elec       q    Type
REMARK                         _______ _______ _______ _____ _____    ______ ____
ROOT
ATOM      1  C   UNL     1       4.137   6.327  17.497  0.00  0.00    +0.000 C 
ATOM      2  C   UNL     1       4.517   4.979  16.851  0.00  0.00    +0.000 C 
ENDROOT
BRANCH   2   3
ATOM      3  C   UNL     1       5.726   5.103  15.926  0.00  0.00    +0.000 A 
ATOM      4  C   UNL     1       6.929   5.733  16.220  0.00  0.00    +0.000 A 
ATOM      5  N   UNL     1       7.760   5.633  15.146  0.00  0.00    +0.000 N 
ATOM      6  C   UNL     1       7.144   4.950  14.128  0.00  0.00    +0.000 A 
ATOM      7  C   UNL     1       7.627   4.620  12.857  0.00  0.00    +0.000 A 
ATOM      8  C   UNL     1       6.780   3.908  12.005  0.00  0.00    +0.000 A 
ATOM      9  C   UNL     1       5.506   3.540  12.426  0.00  0.00    +0.000 A 
ATOM     10 CL   UNL     1       4.486   2.661  11.349  0.00  0.00    +0.000 Cl
ATOM     11  C   UNL     1       5.034   3.875  13.704  0.00  0.00    +0.000 A 
ATOM     12  C   UNL     1       5.866   4.601  14.579  0.00  0.00    +0.000 A 
ATOM     13  H   UNL     1       8.699   6.006  15.100  0.00  0.00    +0.000 HD
ENDBRANCH   2   3
BRANCH   2  14
ATOM     14  N   UNL     1       4.778   3.895  17.825  0.00  0.00    +0.000 NA
BRANCH  14  15
ATOM     15  O   UNL     1       4.745   4.494  19.156  0.00  0.00    +0.000 OA
ATOM     16  H   UNL     1       3.900   4.132  19.488  0.00  0.00    +0.000 HD
ENDBRANCH  14  15
BRANCH  14  17
ATOM     17  C   UNL     1       3.747   2.843  17.829  0.00  0.00    +0.000 C 
BRANCH  17  18
ATOM     18  C   UNL     1       2.855   2.937  19.053  0.00  0.00    +0.000 A 
ATOM     19  C   UNL     1       1.644   3.645  18.995  0.00  0.00    +0.000 A 
ATOM     20  C   UNL     1       0.871   3.819  20.143  0.00  0.00    +0.000 A 
ATOM     21  C   UNL     1       1.296   3.282  21.357  0.00  0.00    +0.000 A 
ATOM     22  C   UNL     1       2.483   2.553  21.420  0.00  0.00    +0.000 A 
ATOM     23  C   UNL     1       3.257   2.376  20.272  0.00  0.00    +0.000 A 
ENDBRANCH  17  18
ENDBRANCH  14  17
ENDBRANCH   2  14
TORSDOF 5
ENDMDL
MODEL 3
REMARK VINA RESULT:      -7.7      3.533      6.850
REMARK  Name = 
REMARK  6 active torsions:
REMARK  status: ('A' for Active; 'I' for Inactive)
REMARK    1  A    between atoms: C_1  and  C_2
REMARK    2  A    between atoms: C_2  and  C_3
REMARK    3  A    between atoms: C_2  and  N_13
REMARK    4  A    between atoms: N_13  and  O_14
REMARK    5  A    between atoms: N_13  and  C_15
REMARK    6  A    between atoms: C_15  and  C_16
REMARK                            x       y       z     vdW  Elec       q    Type
REMARK                         _______ _______ _______ _____ _____    ______ ____
ROOT
ATOM      1  C   UNL     1       2.256   3.384  17.043  0.00  0.00    +0.000 C 
ATOM      2  C   UNL     1       3.283   4.381  17.616  0.00  0.00    +0.000 C 
ENDROOT
BRANCH   2   3
ATOM      3  C   UNL     1       2.793   5.036  18.906  0.00  0.00    +0.000 A 
ATOM      4  C   UNL     1       2.681   4.427  20.150  0.00  0.00    +0.000 A 
ATOM      5  N   UNL     1       2.210   5.333  21.051  0.00  0.00    +0.000 N 
ATOM      6  C   UNL     1       1.997   6.544  20.442  0.00  0.00    +0.000 A 
ATOM      7  C   UNL     1       1.524   7.744  20.986  0.00  0.00    +0.000 A 
ATOM      8  C   UNL     1       1.401   8.841  20.132  0.00  0.00    +0.000 A 
ATOM      9  C   UNL     1       1.751   8.730  18.790  0.00  0.00    +0.000 A 
ATOM     10 CL   UNL     1       1.588  10.105  17.761  0.00  0.00    +0.000 Cl
ATOM     11  C   UNL     1       2.227   7.522  18.256  0.00  0.00    +0.000 A 
ATOM     12  C   UNL     1       2.351   6.397  19.096  0.00  0.00    +0.000 A 
ATOM     13  H   UNL     1       2.041   5.147  22.030  0.00  0.00    +0.000 HD
ENDBRANCH   2   3
BRANCH   2  14
ATOM     14  N   UNL     1       4.620   3.797  17.863  0.00  0.00    +0.000 NA
BRANCH  14  15
ATOM     15  O   UNL     1       4.488   2.348  17.734  0.00  0.00    +0.000 OA
ATOM     16  H   UNL     1       5.167   2.172  17.054  0.00  0.00    +0.000 HD
ENDBRANCH  14  15
BRANCH  14  17
ATOM     17  C   UNL     1       5.634   4.200  16.873  0.00  0.00    +0.000 C 
BRANCH  17  18
ATOM     18  C   UNL     1       6.572   5.255  17.429  0.00  0.00    +0.000 A 
ATOM     19  C   UNL     1       7.298   5.010  18.605  0.00  0.00    +0.000 A 
ATOM     20  C   UNL     1       8.083   6.013  19.173  0.00  0.00    +0.000 A 
ATOM     21  C   UNL     1       8.157   7.267  18.568  0.00  0.00    +0.000 A 
ATOM     22  C   UNL     1       7.462   7.512  17.385  0.00  0.00    +0.000 A 
ATOM     23  C   UNL     1       6.678   6.509  16.813  0.00  0.00    +0.000 A 
ENDBRANCH  17  18
ENDBRANCH  14  17
ENDBRANCH   2  14
TORSDOF 5
ENDMDL
MODEL 4
REMARK VINA RESULT:      -7.7      3.430      6.759
REMARK  Name = 
REMARK  6 active torsions:
REMARK  status: ('A' for Active; 'I' for Inactive)
REMARK    1  A    between atoms: C_1  and  C_2
REMARK    2  A    between atoms: C_2  and  C_3
REMARK    3  A    between atoms: C_2  and  N_13
REMARK    4  A    between atoms: N_13  and  O_14
REMARK    5  A    between atoms: N_13  and  C_15
REMARK    6  A    between atoms: C_15  and  C_16
REMARK                            x       y       z     vdW  Elec       q    Type
REMARK                         _______ _______ _______ _____ _____    ______ ____
ROOT
ATOM      1  C   UNL     1       1.836   2.199  17.795  0.00  0.00    +0.000 C 
ATOM      2  C   UNL     1       2.708   3.468  17.876  0.00  0.00    +0.000 C 
ENDROOT
BRANCH   2   3
ATOM      3  C   UNL     1       2.397   4.305  19.115  0.00  0.00    +0.000 A 
ATOM      4  C   UNL     1       2.224   3.831  20.409  0.00  0.00    +0.000 A 
ATOM      5  N   UNL     1       1.962   4.878  21.238  0.00  0.00    +0.000 N 
ATOM      6  C   UNL     1       1.950   6.054  20.532  0.00  0.00    +0.000 A 
ATOM      7  C   UNL     1       1.725   7.361  20.981  0.00  0.00    +0.000 A 
ATOM      8  C   UNL     1       1.771   8.389  20.037  0.00  0.00    +0.000 A 
ATOM      9  C   UNL     1       2.042   8.106  18.702  0.00  0.00    +0.000 A 
ATOM     10 CL   UNL     1       2.093   9.399  17.562  0.00  0.00    +0.000 Cl
ATOM     11  C   UNL     1       2.268   6.792  18.265  0.00  0.00    +0.000 A 
ATOM     12  C   UNL     1       2.218   5.736  19.196  0.00  0.00    +0.000 A 
ATOM     13  H   UNL     1       1.800   4.806  22.234  0.00  0.00    +0.000 HD
ENDBRANCH   2   3
BRANCH   2  14
ATOM     14  N   UNL     1       4.164   3.204  17.840  0.00  0.00    +0.000 NA
BRANCH  14  15
ATOM     15  O   UNL     1       4.337   1.773  17.603  0.00  0.00    +0.000 OA
ATOM     16  H   UNL     1       4.904   1.796  16.807  0.00  0.00    +0.000 HD
ENDBRANCH  14  15
BRANCH  14  17
ATOM     17  C   UNL     1       4.863   3.884  16.735  0.00  0.00    +0.000 C 
BRANCH  17  18
ATOM     18  C   UNL     1       5.774   4.986  17.242  0.00  0.00    +0.000 A 
ATOM     19  C   UNL     1       5.640   6.297  16.758  0.00  0.00    +0.000 A 
ATOM     20  C   UNL     1       6.539   7.289  17.147  0.00  0.00    +0.000 A 
ATOM     21  C   UNL     1       7.576   6.984  18.026  0.00  0.00    +0.000 A 
ATOM     22  C   UNL     1       7.702   5.693  18.536  0.00  0.00    +0.000 A 
ATOM     23  C   UNL     1       6.802   4.698  18.151  0.00  0.00    +0.000 A 
ENDBRANCH  17  18
ENDBRANCH  14  17
ENDBRANCH   2  14
TORSDOF 5
ENDMDL
MODEL 5
REMARK VINA RESULT:      -7.6      2.128      3.045
REMARK  Name = 
REMARK  6 active torsions:
REMARK  status: ('A' for Active; 'I' for Inactive)
REMARK    1  A    between atoms: C_1  and  C_2
REMARK    2  A    between atoms: C_2  and  C_3
REMARK    3  A    between atoms: C_2  and  N_13
REMARK    4  A    between atoms: N_13  and  O_14
REMARK    5  A    between atoms: N_13  and  C_15
REMARK    6  A    between atoms: C_15  and  C_16
REMARK                            x       y       z     vdW  Elec       q    Type
REMARK                         _______ _______ _______ _____ _____    ______ ____
ROOT
ATOM      1  C   UNL     1       2.942   7.836  17.949  0.00  0.00    +0.000 C 
ATOM      2  C   UNL     1       3.109   6.395  18.470  0.00  0.00    +0.000 C 
ENDROOT
BRANCH   2   3
ATOM      3  C   UNL     1       4.548   5.899  18.346  0.00  0.00    +0.000 A 
ATOM      4  C   UNL     1       5.516   5.915  19.341  0.00  0.00    +0.000 A 
ATOM      5  N   UNL     1       6.672   5.389  18.850  0.00  0.00    +0.000 N 
ATOM      6  C   UNL     1       6.508   5.019  17.540  0.00  0.00    +0.000 A 
ATOM      7  C   UNL     1       7.427   4.440  16.656  0.00  0.00    +0.000 A 
ATOM      8  C   UNL     1       6.992   4.160  15.359  0.00  0.00    +0.000 A 
ATOM      9  C   UNL     1       5.685   4.445  14.978  0.00  0.00    +0.000 A 
ATOM     10 CL   UNL     1       5.180   4.085  13.369  0.00  0.00    +0.000 Cl
ATOM     11  C   UNL     1       4.772   5.022  15.874  0.00  0.00    +0.000 A 
ATOM     12  C   UNL     1       5.189   5.323  17.186  0.00  0.00    +0.000 A 
ATOM     13  H   UNL     1       7.531   5.282  19.373  0.00  0.00    +0.000 HD
ENDBRANCH   2   3
BRANCH   2  14
ATOM     14  N   UNL     1       2.665   6.203  19.870  0.00  0.00    +0.000 NA
BRANCH  14  15
ATOM     15  O   UNL     1       1.912   7.395  20.250  0.00  0.00    +0.000 OA
ATOM     16  H   UNL     1       1.844   7.258  21.215  0.00  0.00    +0.000 HD
ENDBRANCH  14  15
BRANCH  14  17
ATOM     17  C   UNL     1       1.742   5.068  20.047  0.00  0.00    +0.000 C 
BRANCH  17  18
ATOM     18  C   UNL     1       2.307   3.789  19.459  0.00  0.00    +0.000 A 
ATOM     19  C   UNL     1       3.335   3.098  20.119  0.00  0.00    +0.000 A 
ATOM     20  C   UNL     1       3.925   1.979  19.532  0.00  0.00    +0.000 A 
ATOM     21  C   UNL     1       3.489   1.535  18.285  0.00  0.00    +0.000 A 
ATOM     22  C   UNL     1       2.449   2.196  17.633  0.00  0.00    +0.000 A 
ATOM     23  C   UNL     1       1.855   3.314  18.220  0.00  0.00    +0.000 A 
ENDBRANCH  17  18
ENDBRANCH  14  17
ENDBRANCH   2  14
TORSDOF 5
ENDMDL
MODEL 6
REMARK VINA RESULT:      -7.6      0.966      1.084
REMARK  Name = 
REMARK  6 active torsions:
REMARK  status: ('A' for Active; 'I' for Inactive)
REMARK    1  A    between atoms: C_1  and  C_2
REMARK    2  A    between atoms: C_2  and  C_3
REMARK    3  A    between atoms: C_2  and  N_13
REMARK    4  A    between atoms: N_13  and  O_14
REMARK    5  A    between atoms: N_13  and  C_15
REMARK    6  A    between atoms: C_15  and  C_16
REMARK                            x       y       z     vdW  Elec       q    Type
REMARK                         _______ _______ _______ _____ _____    ______ ____
ROOT
ATOM      1  C   UNL     1       3.978   6.106  17.363  0.00  0.00    +0.000 C 
ATOM      2  C   UNL     1       4.615   4.790  16.874  0.00  0.00    +0.000 C 
ENDROOT
BRANCH   2   3
ATOM      3  C   UNL     1       5.801   5.034  15.944  0.00  0.00    +0.000 A 
ATOM      4  C   UNL     1       6.944   5.766  16.238  0.00  0.00    +0.000 A 
ATOM      5  N   UNL     1       7.773   5.755  15.158  0.00  0.00    +0.000 N 
ATOM      6  C   UNL     1       7.214   5.032  14.135  0.00  0.00    +0.000 A 
ATOM      7  C   UNL     1       7.715   4.763  12.857  0.00  0.00    +0.000 A 
ATOM      8  C   UNL     1       6.930   3.989  12.000  0.00  0.00    +0.000 A 
ATOM      9  C   UNL     1       5.697   3.503  12.424  0.00  0.00    +0.000 A 
ATOM     10 CL   UNL     1       4.752   2.549  11.342  0.00  0.00    +0.000 Cl
ATOM     11  C   UNL     1       5.206   3.777  13.710  0.00  0.00    +0.000 A 
ATOM     12  C   UNL     1       5.976   4.564  14.589  0.00  0.00    +0.000 A 
ATOM     13  H   UNL     1       8.675   6.211  15.111  0.00  0.00    +0.000 HD
ENDBRANCH   2   3
BRANCH   2  14
ATOM     14  N   UNL     1       5.049   3.888  17.964  0.00  0.00    +0.000 NA
BRANCH  14  15
ATOM     15  O   UNL     1       6.507   3.948  18.018  0.00  0.00    +0.000 OA
ATOM     16  H   UNL     1       6.630   4.821  18.440  0.00  0.00    +0.000 HD
ENDBRANCH  14  15
BRANCH  14  17
ATOM     17  C   UNL     1       4.579   4.301  19.298  0.00  0.00    +0.000 C 
BRANCH  17  18
ATOM     18  C   UNL     1       3.182   3.781  19.586  0.00  0.00    +0.000 A 
ATOM     19  C   UNL     1       2.745   2.572  19.023  0.00  0.00    +0.000 A 
ATOM     20  C   UNL     1       1.432   2.142  19.204  0.00  0.00    +0.000 A 
ATOM     21  C   UNL     1       0.544   2.911  19.953  0.00  0.00    +0.000 A 
ATOM     22  C   UNL     1       0.974   4.100  20.541  0.00  0.00    +0.000 A 
ATOM     23  C   UNL     1       2.290   4.531  20.364  0.00  0.00    +0.000 A 
ENDBRANCH  17  18
ENDBRANCH  14  17
ENDBRANCH   2  14
TORSDOF 5
ENDMDL
MODEL 7
REMARK VINA RESULT:      -7.6      3.249      5.246
REMARK  Name = 
REMARK  6 active torsions:
REMARK  status: ('A' for Active; 'I' for Inactive)
REMARK    1  A    between atoms: C_1  and  C_2
REMARK    2  A    between atoms: C_2  and  C_3
REMARK    3  A    between atoms: C_2  and  N_13
REMARK    4  A    between atoms: N_13  and  O_14
REMARK    5  A    between atoms: N_13  and  C_15
REMARK    6  A    between atoms: C_15  and  C_16
REMARK                            x       y       z     vdW  Elec       q    Type
REMARK                         _______ _______ _______ _____ _____    ______ ____
ROOT
ATOM      1  C   UNL     1       2.597   2.765  21.057  0.00  0.00    +0.000 C 
ATOM      2  C   UNL     1       3.075   3.999  20.266  0.00  0.00    +0.000 C 
ENDROOT
BRANCH   2   3
ATOM      3  C   UNL     1       3.721   3.617  18.936  0.00  0.00    +0.000 A 
ATOM      4  C   UNL     1       3.411   2.512  18.155  0.00  0.00    +0.000 A 
ATOM      5  N   UNL     1       4.199   2.513  17.044  0.00  0.00    +0.000 N 
ATOM      6  C   UNL     1       5.041   3.595  17.059  0.00  0.00    +0.000 A 
ATOM      7  C   UNL     1       6.007   3.984  16.124  0.00  0.00    +0.000 A 
ATOM      8  C   UNL     1       6.735   5.147  16.387  0.00  0.00    +0.000 A 
ATOM      9  C   UNL     1       6.487   5.886  17.539  0.00  0.00    +0.000 A 
ATOM     10 CL   UNL     1       7.402   7.317  17.834  0.00  0.00    +0.000 Cl
ATOM     11  C   UNL     1       5.513   5.487  18.467  0.00  0.00    +0.000 A 
ATOM     12  C   UNL     1       4.772   4.312  18.230  0.00  0.00    +0.000 A 
ATOM     13  H   UNL     1       4.171   1.818  16.310  0.00  0.00    +0.000 HD
ENDBRANCH   2   3
BRANCH   2  14
ATOM     14  N   UNL     1       2.014   4.998  20.004  0.00  0.00    +0.000 NA
BRANCH  14  15
ATOM     15  O   UNL     1       0.753   4.414  20.453  0.00  0.00    +0.000 OA
ATOM     16  H   UNL     1       0.451   3.993  19.625  0.00  0.00    +0.000 HD
ENDBRANCH  14  15
BRANCH  14  17
ATOM     17  C   UNL     1       2.176   6.247  20.768  0.00  0.00    +0.000 C 
BRANCH  17  18
ATOM     18  C   UNL     1       1.992   7.470  19.888  0.00  0.00    +0.000 A 
ATOM     19  C   UNL     1       1.228   8.559  20.336  0.00  0.00    +0.000 A 
ATOM     20  C   UNL     1       0.975   9.639  19.492  0.00  0.00    +0.000 A 
ATOM     21  C   UNL     1       1.487   9.647  18.196  0.00  0.00    +0.000 A 
ATOM     22  C   UNL     1       2.271   8.584  17.750  0.00  0.00    +0.000 A 
ATOM     23  C   UNL     1       2.529   7.502  18.593  0.00  0.00    +0.000 A 
ENDBRANCH  17  18
ENDBRANCH  14  17
ENDBRANCH   2  14
TORSDOF 5
ENDMDL
MODEL 8
REMARK VINA RESULT:      -7.6      3.758      5.207
REMARK  Name = 
REMARK  6 active torsions:
REMARK  status: ('A' for Active; 'I' for Inactive)
REMARK    1  A    between atoms: C_1  and  C_2
REMARK    2  A    between atoms: C_2  and  C_3
REMARK    3  A    between atoms: C_2  and  N_13
REMARK    4  A    between atoms: N_13  and  O_14
REMARK    5  A    between atoms: N_13  and  C_15
REMARK    6  A    between atoms: C_15  and  C_16
REMARK                            x       y       z     vdW  Elec       q    Type
REMARK                         _______ _______ _______ _____ _____    ______ ____
ROOT
ATOM      1  C   UNL     1       6.706   4.512  17.968  0.00  0.00    +0.000 C 
ATOM      2  C   UNL     1       5.166   4.510  18.052  0.00  0.00    +0.000 C 
ENDROOT
BRANCH   2   3
ATOM      3  C   UNL     1       4.563   5.845  17.619  0.00  0.00    +0.000 A 
ATOM      4  C   UNL     1       4.878   6.559  16.470  0.00  0.00    +0.000 A 
ATOM      5  N   UNL     1       4.131   7.697  16.432  0.00  0.00    +0.000 N 
ATOM      6  C   UNL     1       3.317   7.770  17.535  0.00  0.00    +0.000 A 
ATOM      7  C   UNL     1       2.394   8.758  17.896  0.00  0.00    +0.000 A 
ATOM      8  C   UNL     1       1.687   8.582  19.087  0.00  0.00    +0.000 A 
ATOM      9  C   UNL     1       1.901   7.453  19.871  0.00  0.00    +0.000 A 
ATOM     10 CL   UNL     1       1.011   7.266  21.337  0.00  0.00    +0.000 Cl
ATOM     11  C   UNL     1       2.827   6.468  19.497  0.00  0.00    +0.000 A 
ATOM     12  C   UNL     1       3.560   6.627  18.304  0.00  0.00    +0.000 A 
ATOM     13  H   UNL     1       4.165   8.392  15.698  0.00  0.00    +0.000 HD
ENDBRANCH   2   3
BRANCH   2  14
ATOM     14  N   UNL     1       4.520   3.428  17.276  0.00  0.00    +0.000 NA
BRANCH  14  15
ATOM     15  O   UNL     1       5.506   2.938  16.317  0.00  0.00    +0.000 OA
ATOM     16  H   UNL     1       6.319   2.996  16.857  0.00  0.00    +0.000 HD
ENDBRANCH  14  15
BRANCH  14  17
ATOM     17  C   UNL     1       4.137   2.262  18.092  0.00  0.00    +0.000 C 
BRANCH  17  18
ATOM     18  C   UNL     1       3.053   2.613  19.094  0.00  0.00    +0.000 A 
ATOM     19  C   UNL     1       1.776   2.995  18.654  0.00  0.00    +0.000 A 
ATOM     20  C   UNL     1       0.809   3.413  19.568  0.00  0.00    +0.000 A 
ATOM     21  C   UNL     1       1.106   3.447  20.929  0.00  0.00    +0.000 A 
ATOM     22  C   UNL     1       2.361   3.043  21.380  0.00  0.00    +0.000 A 
ATOM     23  C   UNL     1       3.330   2.621  20.468  0.00  0.00    +0.000 A 
ENDBRANCH  17  18
ENDBRANCH  14  17
ENDBRANCH   2  14
TORSDOF 5
ENDMDL
MODEL 9
REMARK VINA RESULT:      -7.6      2.545      3.842
REMARK  Name = 
REMARK  6 active torsions:
REMARK  status: ('A' for Active; 'I' for Inactive)
REMARK    1  A    between atoms: C_1  and  C_2
REMARK    2  A    between atoms: C_2  and  C_3
REMARK    3  A    between atoms: C_2  and  N_13
REMARK    4  A    between atoms: N_13  and  O_14
REMARK    5  A    between atoms: N_13  and  C_15
REMARK    6  A    between atoms: C_15  and  C_16
REMARK                            x       y       z     vdW  Elec       q    Type
REMARK                         _______ _______ _______ _____ _____    ______ ____
ROOT
ATOM      1  C   UNL     1       3.396   2.427  18.089  0.00  0.00    +0.000 C 
ATOM      2  C   UNL     1       3.797   3.765  18.744  0.00  0.00    +0.000 C 
ENDROOT
BRANCH   2   3
ATOM      3  C   UNL     1       5.118   4.302  18.197  0.00  0.00    +0.000 A 
ATOM      4  C   UNL     1       6.161   4.838  18.940  0.00  0.00    +0.000 A 
ATOM      5  N   UNL     1       7.167   5.205  18.098  0.00  0.00    +0.000 N 
ATOM      6  C   UNL     1       6.825   4.930  16.799  0.00  0.00    +0.000 A 
ATOM      7  C   UNL     1       7.554   5.141  15.622  0.00  0.00    +0.000 A 
ATOM      8  C   UNL     1       6.962   4.764  14.415  0.00  0.00    +0.000 A 
ATOM      9  C   UNL     1       5.694   4.192  14.402  0.00  0.00    +0.000 A 
ATOM     10 CL   UNL     1       4.992   3.736  12.894  0.00  0.00    +0.000 Cl
ATOM     11  C   UNL     1       4.975   3.983  15.589  0.00  0.00    +0.000 A 
ATOM     12  C   UNL     1       5.546   4.364  16.819  0.00  0.00    +0.000 A 
ATOM     13  H   UNL     1       8.044   5.619  18.385  0.00  0.00    +0.000 HD
ENDBRANCH   2   3
BRANCH   2  14
ATOM     14  N   UNL     1       2.772   4.826  18.625  0.00  0.00    +0.000 NA
BRANCH  14  15
ATOM     15  O   UNL     1       1.477   4.163  18.497  0.00  0.00    +0.000 OA
ATOM     16  H   UNL     1       1.709   3.267  18.811  0.00  0.00    +0.000 HD
ENDBRANCH  14  15
BRANCH  14  17
ATOM     17  C   UNL     1       2.670   5.686  19.818  0.00  0.00    +0.000 C 
BRANCH  17  18
ATOM     18  C   UNL     1       2.256   7.100  19.455  0.00  0.00    +0.000 A 
ATOM     19  C   UNL     1       1.598   7.910  20.394  0.00  0.00    +0.000 A 
ATOM     20  C   UNL     1       1.128   9.172  20.034  0.00  0.00    +0.000 A 
ATOM     21  C   UNL     1       1.317   9.641  18.735  0.00  0.00    +0.000 A 
ATOM     22  C   UNL     1       1.995   8.857  17.802  0.00  0.00    +0.000 A 
ATOM     23  C   UNL     1       2.469   7.595  18.162  0.00  0.00    +0.000 A 
ENDBRANCH  17  18
ENDBRANCH  14  17
ENDBRANCH   2  14
TORSDOF 5
ENDMDL
