MODEL 1
REMARK VINA RESULT:      -7.6      0.000      0.000
REMARK  Name = 
REMARK  7 active torsions:
REMARK  status: ('A' for Active; 'I' for Inactive)
REMARK    1  A    between atoms: C_1  and  O_2
REMARK    2  A    between atoms: O_2  and  C_3
REMARK    3  A    between atoms: C_7  and  C_8
REMARK    4  A    between atoms: C_8  and  N_9
REMARK    5  A    between atoms: N_12  and  C_13
REMARK    6  A    between atoms: N_16  and  C_17
REMARK    7  A    between atoms: C_17  and  C_18
REMARK                            x       y       z     vdW  Elec       q    Type
REMARK                         _______ _______ _______ _____ _____    ______ ____
ROOT
ATOM      1  C   UNL     1       1.133  10.097  18.902  0.00  0.00    +0.000 C 
ATOM      2  C   UNL     1       2.219   9.662  17.915  0.00  0.00    +0.000 C 
ATOM      3  C   UNL     1       2.233   8.156  17.747  0.00  0.00    +0.000 C 
ATOM      4  N   UNL     1       2.425   7.444  19.025  0.00  0.00    +0.000 NA
ATOM      5  C   UNL     1       1.433   7.845  20.034  0.00  0.00    +0.000 C 
ATOM      6  C   UNL     1       1.365   9.363  20.226  0.00  0.00    +0.000 C 
ENDROOT
BRANCH   1  10
ATOM      7  N   UNL     1      -1.300  11.670  19.344  0.00  0.00    +0.000 N 
ATOM      8  C   UNL     1      -1.374  10.550  18.588  0.00  0.00    +0.000 C 
ATOM      9  O   UNL     1      -2.417  10.128  18.092  0.00  0.00    +0.000 OA
ATOM     10  N   UNL     1      -0.228   9.858  18.404  0.00  0.00    +0.000 N 
ATOM     11  H   UNL     1      -0.413  11.934  19.740  0.00  0.00    +0.000 HD
ATOM     12  H   UNL     1      -0.398   9.017  17.863  0.00  0.00    +0.000 HD
BRANCH   7  13
ATOM     13  C   UNL     1      -2.433  12.511  19.612  0.00  0.00    +0.000 C 
BRANCH  13  18
ATOM     14  C   UNL     1      -4.463  13.001  22.809  0.00  0.00    +0.000 A 
ATOM     15  C   UNL     1      -3.554  12.550  23.769  0.00  0.00    +0.000 A 
ATOM     16  C   UNL     1      -2.308  12.054  23.388  0.00  0.00    +0.000 A 
ATOM     17  C   UNL     1      -1.953  12.023  22.038  0.00  0.00    +0.000 A 
ATOM     18  C   UNL     1      -2.840  12.499  21.062  0.00  0.00    +0.000 A 
ATOM     19  C   UNL     1      -4.102  12.969  21.459  0.00  0.00    +0.000 A 
BRANCH  14  21
ATOM     20  C   UNL     1      -6.797  12.651  23.098  0.00  0.00    +0.000 C 
ATOM     21  O   UNL     1      -5.648  13.459  23.317  0.00  0.00    +0.000 OA
ENDBRANCH  14  21
ENDBRANCH  13  18
ENDBRANCH   7  13
ENDBRANCH   1  10
BRANCH   4  22
ATOM     22  C   UNL     1       2.299   6.012  18.720  0.00  0.00    +0.000 C 
BRANCH  22  23
ATOM     23  C   UNL     1       3.584   5.247  18.517  0.00  0.00    +0.000 A 
ATOM     24  C   UNL     1       3.928   4.817  17.210  0.00  0.00    +0.000 A 
ATOM     25  C   UNL     1       5.257   4.559  16.873  0.00  0.00    +0.000 A 
ATOM     26  C   UNL     1       6.196   4.784  17.852  0.00  0.00    +0.000 A 
ATOM     27  C   UNL     1       5.847   5.080  19.155  0.00  0.00    +0.000 A 
ATOM     28  C   UNL     1       4.542   5.252  19.540  0.00  0.00    +0.000 A 
ATOM     29  O   UNL     1       6.935   5.401  19.912  0.00  0.00    +0.000 OA
ATOM     30  C   UNL     1       7.863   5.669  18.843  0.00  0.00    +0.000 C 
ATOM     31  O   UNL     1       7.538   4.922  17.650  0.00  0.00    +0.000 OA
ENDBRANCH  22  23
ENDBRANCH   4  22
TORSDOF 6
ENDMDL
MODEL 2
REMARK VINA RESULT:      -7.4      4.010     11.377
REMARK  Name = 
REMARK  7 active torsions:
REMARK  status: ('A' for Active; 'I' for Inactive)
REMARK    1  A    between atoms: C_1  and  O_2
REMARK    2  A    between atoms: O_2  and  C_3
REMARK    3  A    between atoms: C_7  and  C_8
REMARK    4  A    between atoms: C_8  and  N_9
REMARK    5  A    between atoms: N_12  and  C_13
REMARK    6  A    between atoms: N_16  and  C_17
REMARK    7  A    between atoms: C_17  and  C_18
REMARK                            x       y       z     vdW  Elec       q    Type
REMARK                         _______ _______ _______ _____ _____    ______ ____
ROOT
ATOM      1  C   UNL     1       4.522   3.817  17.657  0.00  0.00    +0.000 C 
ATOM      2  C   UNL     1       3.070   3.330  17.656  0.00  0.00    +0.000 C 
ATOM      3  C   UNL     1       2.174   4.283  18.422  0.00  0.00    +0.000 C 
ATOM      4  N   UNL     1       2.618   4.484  19.813  0.00  0.00    +0.000 NA
ATOM      5  C   UNL     1       4.021   4.918  19.888  0.00  0.00    +0.000 C 
ATOM      6  C   UNL     1       4.967   3.998  19.111  0.00  0.00    +0.000 C 
ENDROOT
BRANCH   1  10
ATOM      7  N   UNL     1       5.869   4.214  15.085  0.00  0.00    +0.000 N 
ATOM      8  C   UNL     1       5.332   5.285  15.713  0.00  0.00    +0.000 C 
ATOM      9  O   UNL     1       5.400   6.435  15.283  0.00  0.00    +0.000 OA
ATOM     10  N   UNL     1       4.715   5.057  16.894  0.00  0.00    +0.000 N 
ATOM     11  H   UNL     1       5.797   3.307  15.516  0.00  0.00    +0.000 HD
ATOM     12  H   UNL     1       4.386   5.925  17.303  0.00  0.00    +0.000 HD
BRANCH   7  13
ATOM     13  C   UNL     1       6.542   4.304  13.818  0.00  0.00    +0.000 C 
BRANCH  13  18
ATOM     14  C   UNL     1       5.810   1.619  11.204  0.00  0.00    +0.000 A 
ATOM     15  C   UNL     1       4.614   2.098  10.664  0.00  0.00    +0.000 A 
ATOM     16  C   UNL     1       4.025   3.258  11.163  0.00  0.00    +0.000 A 
ATOM     17  C   UNL     1       4.640   3.962  12.200  0.00  0.00    +0.000 A 
ATOM     18  C   UNL     1       5.855   3.515  12.736  0.00  0.00    +0.000 A 
ATOM     19  C   UNL     1       6.423   2.328  12.242  0.00  0.00    +0.000 A 
BRANCH  14  21
ATOM     20  C   UNL     1       6.114  -0.734  11.361  0.00  0.00    +0.000 C 
ATOM     21  O   UNL     1       6.278   0.471  10.626  0.00  0.00    +0.000 OA
ENDBRANCH  14  21
ENDBRANCH  13  18
ENDBRANCH   7  13
ENDBRANCH   1  10
BRANCH   4  22
ATOM     22  C   UNL     1       1.731   5.509  20.382  0.00  0.00    +0.000 C 
BRANCH  22  23
ATOM     23  C   UNL     1       1.972   6.933  19.944  0.00  0.00    +0.000 A 
ATOM     24  C   UNL     1       2.372   7.182  18.607  0.00  0.00    +0.000 A 
ATOM     25  C   UNL     1       2.143   8.424  18.016  0.00  0.00    +0.000 A 
ATOM     26  C   UNL     1       1.482   9.357  18.780  0.00  0.00    +0.000 A 
ATOM     27  C   UNL     1       1.207   9.155  20.117  0.00  0.00    +0.000 A 
ATOM     28  C   UNL     1       1.502   7.976  20.753  0.00  0.00    +0.000 A 
ATOM     29  O   UNL     1       0.424  10.147  20.630  0.00  0.00    +0.000 OA
ATOM     30  C   UNL     1      -0.063  10.694  19.390  0.00  0.00    +0.000 C 
ATOM     31  O   UNL     1       0.869  10.482  18.307  0.00  0.00    +0.000 OA
ENDBRANCH  22  23
ENDBRANCH   4  22
TORSDOF 6
ENDMDL
MODEL 3
REMARK VINA RESULT:      -7.4      2.950      4.534
REMARK  Name = 
REMARK  7 active torsions:
REMARK  status: ('A' for Active; 'I' for Inactive)
REMARK    1  A    between atoms: C_1  and  O_2
REMARK    2  A    between atoms: O_2  and  C_3
REMARK    3  A    between atoms: C_7  and  C_8
REMARK    4  A    between atoms: C_8  and  N_9
REMARK    5  A    between atoms: N_12  and  C_13
REMARK    6  A    between atoms: N_16  and  C_17
REMARK    7  A    between atoms: C_17  and  C_18
REMARK                            x       y       z     vdW  Elec       q    Type
REMARK                         _______ _______ _______ _____ _____    ______ ____
ROOT
ATOM      1  C   UNL     1       1.907   5.963  19.162  0.00  0.00    +0.000 C 
ATOM      2  C   UNL     1       2.991   5.438  20.107  0.00  0.00    +0.000 C 
ATOM      3  C   UNL     1       4.088   4.729  19.338  0.00  0.00    +0.000 C 
ATOM      4  N   UNL     1       3.578   3.614  18.519  0.00  0.00    +0.000 NA
ATOM      5  C   UNL     1       2.503   4.043  17.612  0.00  0.00    +0.000 C 
ATOM      6  C   UNL     1       1.377   4.786  18.338  0.00  0.00    +0.000 C 
ENDROOT
BRANCH   1  10
ATOM      7  N   UNL     1       1.292   8.827  19.263  0.00  0.00    +0.000 N 
ATOM      8  C   UNL     1       2.116   8.369  18.292  0.00  0.00    +0.000 C 
ATOM      9  O   UNL     1       2.607   9.083  17.419  0.00  0.00    +0.000 OA
ATOM     10  N   UNL     1       2.379   7.043  18.286  0.00  0.00    +0.000 N 
ATOM     11  H   UNL     1       0.906   8.173  19.925  0.00  0.00    +0.000 HD
ATOM     12  H   UNL     1       2.968   6.796  17.498  0.00  0.00    +0.000 HD
BRANCH   7  13
ATOM     13  C   UNL     1       0.937  10.212  19.401  0.00  0.00    +0.000 C 
BRANCH  13  18
ATOM     14  C   UNL     1      -2.108  10.228  17.096  0.00  0.00    +0.000 A 
ATOM     15  C   UNL     1      -2.912  11.179  17.729  0.00  0.00    +0.000 A 
ATOM     16  C   UNL     1      -2.494  11.784  18.914  0.00  0.00    +0.000 A 
ATOM     17  C   UNL     1      -1.255  11.455  19.466  0.00  0.00    +0.000 A 
ATOM     18  C   UNL     1      -0.420  10.526  18.830  0.00  0.00    +0.000 A 
ATOM     19  C   UNL     1      -0.866   9.903  17.652  0.00  0.00    +0.000 A 
BRANCH  14  21
ATOM     20  C   UNL     1      -3.359  10.604  15.110  0.00  0.00    +0.000 C 
ATOM     21  O   UNL     1      -2.636   9.711  15.945  0.00  0.00    +0.000 OA
ENDBRANCH  14  21
ENDBRANCH  13  18
ENDBRANCH   7  13
ENDBRANCH   1  10
BRANCH   4  22
ATOM     22  C   UNL     1       4.725   3.108  17.753  0.00  0.00    +0.000 C 
BRANCH  22  23
ATOM     23  C   UNL     1       5.655   4.140  17.163  0.00  0.00    +0.000 A 
ATOM     24  C   UNL     1       5.184   4.966  16.110  0.00  0.00    +0.000 A 
ATOM     25  C   UNL     1       5.773   6.206  15.862  0.00  0.00    +0.000 A 
ATOM     26  C   UNL     1       6.786   6.587  16.709  0.00  0.00    +0.000 A 
ATOM     27  C   UNL     1       7.323   5.731  17.650  0.00  0.00    +0.000 A 
ATOM     28  C   UNL     1       6.826   4.470  17.858  0.00  0.00    +0.000 A 
ATOM     29  O   UNL     1       8.211   6.367  18.467  0.00  0.00    +0.000 OA
ATOM     30  C   UNL     1       7.821   7.725  18.185  0.00  0.00    +0.000 C 
ATOM     31  O   UNL     1       7.258   7.859  16.862  0.00  0.00    +0.000 OA
ENDBRANCH  22  23
ENDBRANCH   4  22
TORSDOF 6
ENDMDL
MODEL 4
REMARK VINA RESULT:      -7.3      2.704      3.384
REMARK  Name = 
REMARK  7 active torsions:
REMARK  status: ('A' for Active; 'I' for Inactive)
REMARK    1  A    between atoms: C_1  and  O_2
REMARK    2  A    between atoms: O_2  and  C_3
REMARK    3  A    between atoms: C_7  and  C_8
REMARK    4  A    between atoms: C_8  and  N_9
REMARK    5  A    between atoms: N_12  and  C_13
REMARK    6  A    between atoms: N_16  and  C_17
REMARK    7  A    between atoms: C_17  and  C_18
REMARK                            x       y       z     vdW  Elec       q    Type
REMARK                         _______ _______ _______ _____ _____    ______ ____
ROOT
ATOM      1  C   UNL     1       0.307  10.262  19.753  0.00  0.00    +0.000 C 
ATOM      2  C   UNL     1       0.467   8.952  20.531  0.00  0.00    +0.000 C 
ATOM      3  C   UNL     1       1.737   8.230  20.128  0.00  0.00    +0.000 C 
ATOM      4  N   UNL     1       1.794   7.946  18.682  0.00  0.00    +0.000 NA
ATOM      5  C   UNL     1       1.609   9.160  17.873  0.00  0.00    +0.000 C 
ATOM      6  C   UNL     1       0.347   9.940  18.257  0.00  0.00    +0.000 C 
ENDROOT
BRANCH   1  10
ATOM      7  N   UNL     1       0.048  12.649  21.433  0.00  0.00    +0.000 N 
ATOM      8  C   UNL     1       1.244  12.379  20.860  0.00  0.00    +0.000 C 
ATOM      9  O   UNL     1       2.235  13.097  20.976  0.00  0.00    +0.000 OA
ATOM     10  N   UNL     1       1.321  11.265  20.098  0.00  0.00    +0.000 N 
ATOM     11  H   UNL     1      -0.725  12.026  21.267  0.00  0.00    +0.000 HD
ATOM     12  H   UNL     1       2.242  11.177  19.681  0.00  0.00    +0.000 HD
BRANCH   7  13
ATOM     13  C   UNL     1      -0.176  13.788  22.279  0.00  0.00    +0.000 C 
BRANCH  13  18
ATOM     14  C   UNL     1      -3.107  14.687  24.556  0.00  0.00    +0.000 A 
ATOM     15  C   UNL     1      -3.821  13.486  24.552  0.00  0.00    +0.000 A 
ATOM     16  C   UNL     1      -3.384  12.404  23.790  0.00  0.00    +0.000 A 
ATOM     17  C   UNL     1      -2.212  12.509  23.038  0.00  0.00    +0.000 A 
ATOM     18  C   UNL     1      -1.466  13.696  23.051  0.00  0.00    +0.000 A 
ATOM     19  C   UNL     1      -1.934  14.787  23.802  0.00  0.00    +0.000 A 
BRANCH  14  21
ATOM     20  C   UNL     1      -3.527  17.005  24.875  0.00  0.00    +0.000 C 
ATOM     21  O   UNL     1      -3.646  15.668  25.343  0.00  0.00    +0.000 OA
ENDBRANCH  14  21
ENDBRANCH  13  18
ENDBRANCH   7  13
ENDBRANCH   1  10
BRANCH   4  22
ATOM     22  C   UNL     1       3.116   7.357  18.431  0.00  0.00    +0.000 C 
BRANCH  22  23
ATOM     23  C   UNL     1       3.140   5.996  17.780  0.00  0.00    +0.000 A 
ATOM     24  C   UNL     1       4.354   5.524  17.218  0.00  0.00    +0.000 A 
ATOM     25  C   UNL     1       4.577   4.157  17.055  0.00  0.00    +0.000 A 
ATOM     26  C   UNL     1       3.588   3.313  17.501  0.00  0.00    +0.000 A 
ATOM     27  C   UNL     1       2.360   3.777  17.930  0.00  0.00    +0.000 A 
ATOM     28  C   UNL     1       2.076   5.116  18.017  0.00  0.00    +0.000 A 
ATOM     29  O   UNL     1       1.595   2.778  18.457  0.00  0.00    +0.000 OA
ATOM     30  C   UNL     1       2.638   1.808  18.674  0.00  0.00    +0.000 C 
ATOM     31  O   UNL     1       3.732   1.978  17.747  0.00  0.00    +0.000 OA
ENDBRANCH  22  23
ENDBRANCH   4  22
TORSDOF 6
ENDMDL
MODEL 5
REMARK VINA RESULT:      -7.2      1.662      2.271
REMARK  Name = 
REMARK  7 active torsions:
REMARK  status: ('A' for Active; 'I' for Inactive)
REMARK    1  A    between atoms: C_1  and  O_2
REMARK    2  A    between atoms: O_2  and  C_3
REMARK    3  A    between atoms: C_7  and  C_8
REMARK    4  A    between atoms: C_8  and  N_9
REMARK    5  A    between atoms: N_12  and  C_13
REMARK    6  A    between atoms: N_16  and  C_17
REMARK    7  A    between atoms: C_17  and  C_18
REMARK                            x       y       z     vdW  Elec       q    Type
REMARK                         _______ _______ _______ _____ _____    ______ ____
ROOT
ATOM      1  C   UNL     1       0.777  10.702  18.618  0.00  0.00    +0.000 C 
ATOM      2  C   UNL     1       1.923   9.937  17.951  0.00  0.00    +0.000 C 
ATOM      3  C   UNL     1       1.914   8.477  18.357  0.00  0.00    +0.000 C 
ATOM      4  N   UNL     1       1.993   8.294  19.818  0.00  0.00    +0.000 NA
ATOM      5  C   UNL     1       0.939   9.036  20.526  0.00  0.00    +0.000 C 
ATOM      6  C   UNL     1       0.893  10.516  20.133  0.00  0.00    +0.000 C 
ENDROOT
BRANCH   1  10
ATOM      7  N   UNL     1      -1.853  11.822  19.262  0.00  0.00    +0.000 N 
ATOM      8  C   UNL     1      -1.781  10.769  18.416  0.00  0.00    +0.000 C 
ATOM      9  O   UNL     1      -2.763  10.225  17.916  0.00  0.00    +0.000 OA
ATOM     10  N   UNL     1      -0.548  10.288  18.141  0.00  0.00    +0.000 N 
ATOM     11  H   UNL     1      -1.003  12.194  19.653  0.00  0.00    +0.000 HD
ATOM     12  H   UNL     1      -0.605   9.476  17.534  0.00  0.00    +0.000 HD
BRANCH   7  13
ATOM     13  C   UNL     1      -3.093  12.446  19.633  0.00  0.00    +0.000 C 
BRANCH  13  18
ATOM     14  C   UNL     1      -4.722  12.901  23.056  0.00  0.00    +0.000 A 
ATOM     15  C   UNL     1      -3.618  12.736  23.897  0.00  0.00    +0.000 A 
ATOM     16  C   UNL     1      -2.363  12.443  23.368  0.00  0.00    +0.000 A 
ATOM     17  C   UNL     1      -2.197  12.329  21.986  0.00  0.00    +0.000 A 
ATOM     18  C   UNL     1      -3.286  12.519  21.124  0.00  0.00    +0.000 A 
ATOM     19  C   UNL     1      -4.551  12.787  21.673  0.00  0.00    +0.000 A 
BRANCH  14  21
ATOM     20  C   UNL     1      -7.085  12.652  23.138  0.00  0.00    +0.000 C 
ATOM     21  O   UNL     1      -5.894  13.183  23.703  0.00  0.00    +0.000 OA
ENDBRANCH  14  21
ENDBRANCH  13  18
ENDBRANCH   7  13
ENDBRANCH   1  10
BRANCH   4  22
ATOM     22  C   UNL     1       1.857   6.851  20.059  0.00  0.00    +0.000 C 
BRANCH  22  23
ATOM     23  C   UNL     1       2.671   5.936  19.177  0.00  0.00    +0.000 A 
ATOM     24  C   UNL     1       4.017   5.662  19.527  0.00  0.00    +0.000 A 
ATOM     25  C   UNL     1       4.649   4.504  19.075  0.00  0.00    +0.000 A 
ATOM     26  C   UNL     1       3.888   3.642  18.320  0.00  0.00    +0.000 A 
ATOM     27  C   UNL     1       2.622   3.970  17.878  0.00  0.00    +0.000 A 
ATOM     28  C   UNL     1       2.006   5.144  18.231  0.00  0.00    +0.000 A 
ATOM     29  O   UNL     1       2.006   2.914  17.272  0.00  0.00    +0.000 OA
ATOM     30  C   UNL     1       2.850   1.862  17.776  0.00  0.00    +0.000 C 
ATOM     31  O   UNL     1       4.183   2.334  18.066  0.00  0.00    +0.000 OA
ENDBRANCH  22  23
ENDBRANCH   4  22
TORSDOF 6
ENDMDL
MODEL 6
REMARK VINA RESULT:      -7.2      3.571     10.927
REMARK  Name = 
REMARK  7 active torsions:
REMARK  status: ('A' for Active; 'I' for Inactive)
REMARK    1  A    between atoms: C_1  and  O_2
REMARK    2  A    between atoms: O_2  and  C_3
REMARK    3  A    between atoms: C_7  and  C_8
REMARK    4  A    between atoms: C_8  and  N_9
REMARK    5  A    between atoms: N_12  and  C_13
REMARK    6  A    between atoms: N_16  and  C_17
REMARK    7  A    between atoms: C_17  and  C_18
REMARK                            x       y       z     vdW  Elec       q    Type
REMARK                         _______ _______ _______ _____ _____    ______ ____
ROOT
ATOM      1  C   UNL     1       3.787   3.554  18.279  0.00  0.00    +0.000 C 
ATOM      2  C   UNL     1       3.169   4.768  17.580  0.00  0.00    +0.000 C 
ATOM      3  C   UNL     1       3.043   5.941  18.532  0.00  0.00    +0.000 C 
ATOM      4  N   UNL     1       2.249   5.615  19.732  0.00  0.00    +0.000 NA
ATOM      5  C   UNL     1       2.768   4.431  20.432  0.00  0.00    +0.000 C 
ATOM      6  C   UNL     1       2.935   3.221  19.507  0.00  0.00    +0.000 C 
ENDROOT
BRANCH   1  10
ATOM      7  N   UNL     1       5.960   4.767  16.732  0.00  0.00    +0.000 N 
ATOM      8  C   UNL     1       6.222   4.305  17.976  0.00  0.00    +0.000 C 
ATOM      9  O   UNL     1       7.336   4.335  18.496  0.00  0.00    +0.000 OA
ATOM     10  N   UNL     1       5.191   3.759  18.657  0.00  0.00    +0.000 N 
ATOM     11  H   UNL     1       5.027   4.680  16.365  0.00  0.00    +0.000 HD
ATOM     12  H   UNL     1       5.499   3.406  19.557  0.00  0.00    +0.000 HD
BRANCH   7  13
ATOM     13  C   UNL     1       6.955   5.385  15.899  0.00  0.00    +0.000 C 
BRANCH  13  18
ATOM     14  C   UNL     1       5.843   3.570  12.729  0.00  0.00    +0.000 A 
ATOM     15  C   UNL     1       6.814   4.005  11.823  0.00  0.00    +0.000 A 
ATOM     16  C   UNL     1       7.799   4.908  12.219  0.00  0.00    +0.000 A 
ATOM     17  C   UNL     1       7.832   5.371  13.536  0.00  0.00    +0.000 A 
ATOM     18  C   UNL     1       6.885   4.923  14.468  0.00  0.00    +0.000 A 
ATOM     19  C   UNL     1       5.881   4.035  14.047  0.00  0.00    +0.000 A 
BRANCH  14  21
ATOM     20  C   UNL     1       4.070   3.176  11.194  0.00  0.00    +0.000 C 
ATOM     21  O   UNL     1       4.935   2.687  12.211  0.00  0.00    +0.000 OA
ENDBRANCH  14  21
ENDBRANCH  13  18
ENDBRANCH   7  13
ENDBRANCH   1  10
BRANCH   4  22
ATOM     22  C   UNL     1       2.315   6.797  20.602  0.00  0.00    +0.000 C 
BRANCH  22  23
ATOM     23  C   UNL     1       1.364   7.926  20.285  0.00  0.00    +0.000 A 
ATOM     24  C   UNL     1       0.439   8.343  21.275  0.00  0.00    +0.000 A 
ATOM     25  C   UNL     1      -0.101   9.629  21.248  0.00  0.00    +0.000 A 
ATOM     26  C   UNL     1       0.343  10.461  20.248  0.00  0.00    +0.000 A 
ATOM     27  C   UNL     1       1.144  10.014  19.216  0.00  0.00    +0.000 A 
ATOM     28  C   UNL     1       1.619   8.729  19.165  0.00  0.00    +0.000 A 
ATOM     29  O   UNL     1       1.573  11.040  18.425  0.00  0.00    +0.000 OA
ATOM     30  C   UNL     1       1.299  12.129  19.327  0.00  0.00    +0.000 C 
ATOM     31  O   UNL     1       0.215  11.820  20.229  0.00  0.00    +0.000 OA
ENDBRANCH  22  23
ENDBRANCH   4  22
TORSDOF 6
ENDMDL
MODEL 7
REMARK VINA RESULT:      -7.2      2.610      3.278
REMARK  Name = 
REMARK  7 active torsions:
REMARK  status: ('A' for Active; 'I' for Inactive)
REMARK    1  A    between atoms: C_1  and  O_2
REMARK    2  A    between atoms: O_2  and  C_3
REMARK    3  A    between atoms: C_7  and  C_8
REMARK    4  A    between atoms: C_8  and  N_9
REMARK    5  A    between atoms: N_12  and  C_13
REMARK    6  A    between atoms: N_16  and  C_17
REMARK    7  A    between atoms: C_17  and  C_18
REMARK                            x       y       z     vdW  Elec       q    Type
REMARK                         _______ _______ _______ _____ _____    ______ ____
ROOT
ATOM      1  C   UNL     1       0.248  10.105  19.892  0.00  0.00    +0.000 C 
ATOM      2  C   UNL     1       0.443   8.748  20.575  0.00  0.00    +0.000 C 
ATOM      3  C   UNL     1       1.750   8.107  20.151  0.00  0.00    +0.000 C 
ATOM      4  N   UNL     1       1.850   7.935  18.690  0.00  0.00    +0.000 NA
ATOM      5  C   UNL     1       1.634   9.198  17.969  0.00  0.00    +0.000 C 
ATOM      6  C   UNL     1       0.334   9.898  18.378  0.00  0.00    +0.000 C 
ENDROOT
BRANCH   1  10
ATOM      7  N   UNL     1      -0.250  12.758  21.033  0.00  0.00    +0.000 N 
ATOM      8  C   UNL     1       1.028  12.351  20.859  0.00  0.00    +0.000 C 
ATOM      9  O   UNL     1       2.009  13.044  21.125  0.00  0.00    +0.000 OA
ATOM     10  N   UNL     1       1.213  11.118  20.336  0.00  0.00    +0.000 N 
ATOM     11  H   UNL     1      -1.000  12.143  20.764  0.00  0.00    +0.000 HD
ATOM     12  H   UNL     1       2.201  10.926  20.206  0.00  0.00    +0.000 HD
BRANCH   7  13
ATOM     13  C   UNL     1      -0.597  14.035  21.592  0.00  0.00    +0.000 C 
BRANCH  13  18
ATOM     14  C   UNL     1      -3.878  13.120  23.317  0.00  0.00    +0.000 A 
ATOM     15  C   UNL     1      -3.763  13.848  24.504  0.00  0.00    +0.000 A 
ATOM     16  C   UNL     1      -2.619  14.600  24.766  0.00  0.00    +0.000 A 
ATOM     17  C   UNL     1      -1.584  14.644  23.830  0.00  0.00    +0.000 A 
ATOM     18  C   UNL     1      -1.692  13.944  22.620  0.00  0.00    +0.000 A 
ATOM     19  C   UNL     1      -2.839  13.168  22.382  0.00  0.00    +0.000 A 
BRANCH  14  21
ATOM     20  C   UNL     1      -6.147  12.858  23.977  0.00  0.00    +0.000 C 
ATOM     21  O   UNL     1      -5.049  12.424  23.186  0.00  0.00    +0.000 OA
ENDBRANCH  14  21
ENDBRANCH  13  18
ENDBRANCH   7  13
ENDBRANCH   1  10
BRANCH   4  22
ATOM     22  C   UNL     1       3.200   7.418  18.429  0.00  0.00    +0.000 C 
BRANCH  22  23
ATOM     23  C   UNL     1       3.316   5.944  18.129  0.00  0.00    +0.000 A 
ATOM     24  C   UNL     1       4.488   5.252  18.525  0.00  0.00    +0.000 A 
ATOM     25  C   UNL     1       4.467   3.871  18.725  0.00  0.00    +0.000 A 
ATOM     26  C   UNL     1       3.254   3.244  18.558  0.00  0.00    +0.000 A 
ATOM     27  C   UNL     1       2.148   3.898  18.053  0.00  0.00    +0.000 A 
ATOM     28  C   UNL     1       2.163   5.238  17.760  0.00  0.00    +0.000 A 
ATOM     29  O   UNL     1       1.029   3.121  18.110  0.00  0.00    +0.000 OA
ATOM     30  C   UNL     1       1.497   2.147  19.062  0.00  0.00    +0.000 C 
ATOM     31  O   UNL     1       2.933   2.000  19.017  0.00  0.00    +0.000 OA
ENDBRANCH  22  23
ENDBRANCH   4  22
TORSDOF 6
ENDMDL
MODEL 8
REMARK VINA RESULT:      -7.2      3.066      4.645
REMARK  Name = 
REMARK  7 active torsions:
REMARK  status: ('A' for Active; 'I' for Inactive)
REMARK    1  A    between atoms: C_1  and  O_2
REMARK    2  A    between atoms: O_2  and  C_3
REMARK    3  A    between atoms: C_7  and  C_8
REMARK    4  A    between atoms: C_8  and  N_9
REMARK    5  A    between atoms: N_12  and  C_13
REMARK    6  A    between atoms: N_16  and  C_17
REMARK    7  A    between atoms: C_17  and  C_18
REMARK                            x       y       z     vdW  Elec       q    Type
REMARK                         _______ _______ _______ _____ _____    ______ ____
ROOT
ATOM      1  C   UNL     1       2.278   5.722  19.092  0.00  0.00    +0.000 C 
ATOM      2  C   UNL     1       3.489   5.264  19.909  0.00  0.00    +0.000 C 
ATOM      3  C   UNL     1       4.524   4.598  19.024  0.00  0.00    +0.000 C 
ATOM      4  N   UNL     1       3.978   3.448  18.279  0.00  0.00    +0.000 NA
ATOM      5  C   UNL     1       2.785   3.812  17.499  0.00  0.00    +0.000 C 
ATOM      6  C   UNL     1       1.715   4.509  18.346  0.00  0.00    +0.000 C 
ENDROOT
BRANCH   1  10
ATOM      7  N   UNL     1       1.488   8.542  19.211  0.00  0.00    +0.000 N 
ATOM      8  C   UNL     1       2.243   8.117  18.171  0.00  0.00    +0.000 C 
ATOM      9  O   UNL     1       2.598   8.842  17.244  0.00  0.00    +0.000 OA
ATOM     10  N   UNL     1       2.590   6.811  18.158  0.00  0.00    +0.000 N 
ATOM     11  H   UNL     1       1.213   7.879  19.917  0.00  0.00    +0.000 HD
ATOM     12  H   UNL     1       3.115   6.585  17.320  0.00  0.00    +0.000 HD
BRANCH   7  13
ATOM     13  C   UNL     1       1.058   9.904  19.363  0.00  0.00    +0.000 C 
BRANCH  13  18
ATOM     14  C   UNL     1      -0.570  11.691  22.318  0.00  0.00    +0.000 A 
ATOM     15  C   UNL     1      -0.872  10.608  23.147  0.00  0.00    +0.000 A 
ATOM     16  C   UNL     1      -0.589   9.305  22.741  0.00  0.00    +0.000 A 
ATOM     17  C   UNL     1       0.019   9.076  21.505  0.00  0.00    +0.000 A 
ATOM     18  C   UNL     1       0.357  10.151  20.672  0.00  0.00    +0.000 A 
ATOM     19  C   UNL     1       0.039  11.457  21.082  0.00  0.00    +0.000 A 
BRANCH  14  21
ATOM     20  C   UNL     1      -0.387  14.057  22.165  0.00  0.00    +0.000 C 
ATOM     21  O   UNL     1      -0.903  12.914  22.834  0.00  0.00    +0.000 OA
ENDBRANCH  14  21
ENDBRANCH  13  18
ENDBRANCH   7  13
ENDBRANCH   1  10
BRANCH   4  22
ATOM     22  C   UNL     1       5.053   2.988  17.389  0.00  0.00    +0.000 C 
BRANCH  22  23
ATOM     23  C   UNL     1       5.458   3.922  16.275  0.00  0.00    +0.000 A 
ATOM     24  C   UNL     1       6.555   4.798  16.478  0.00  0.00    +0.000 A 
ATOM     25  C   UNL     1       7.268   5.307  15.393  0.00  0.00    +0.000 A 
ATOM     26  C   UNL     1       6.878   4.883  14.145  0.00  0.00    +0.000 A 
ATOM     27  C   UNL     1       5.736   4.132  13.945  0.00  0.00    +0.000 A 
ATOM     28  C   UNL     1       4.960   3.691  14.986  0.00  0.00    +0.000 A 
ATOM     29  O   UNL     1       5.627   3.709  12.652  0.00  0.00    +0.000 OA
ATOM     30  C   UNL     1       6.992   3.921  12.245  0.00  0.00    +0.000 C 
ATOM     31  O   UNL     1       7.620   4.978  13.004  0.00  0.00    +0.000 OA
ENDBRANCH  22  23
ENDBRANCH   4  22
TORSDOF 6
ENDMDL
MODEL 9
REMARK VINA RESULT:      -7.2      1.557     10.605
REMARK  Name = 
REMARK  7 active torsions:
REMARK  status: ('A' for Active; 'I' for Inactive)
REMARK    1  A    between atoms: C_1  and  O_2
REMARK    2  A    between atoms: O_2  and  C_3
REMARK    3  A    between atoms: C_7  and  C_8
REMARK    4  A    between atoms: C_8  and  N_9
REMARK    5  A    between atoms: N_12  and  C_13
REMARK    6  A    between atoms: N_16  and  C_17
REMARK    7  A    between atoms: C_17  and  C_18
REMARK                            x       y       z     vdW  Elec       q    Type
REMARK                         _______ _______ _______ _____ _____    ______ ____
ROOT
ATOM      1  C   UNL     1       1.100   9.937  18.739  0.00  0.00    +0.000 C 
ATOM      2  C   UNL     1       1.655  11.355  18.576  0.00  0.00    +0.000 C 
ATOM      3  C   UNL     1       0.752  12.375  19.240  0.00  0.00    +0.000 C 
ATOM      4  N   UNL     1      -0.629  12.332  18.724  0.00  0.00    +0.000 NA
ATOM      5  C   UNL     1      -1.211  10.985  18.816  0.00  0.00    +0.000 C 
ATOM      6  C   UNL     1      -0.325   9.912  18.177  0.00  0.00    +0.000 C 
ENDROOT
BRANCH   1  10
ATOM      7  N   UNL     1       1.853   7.306  19.787  0.00  0.00    +0.000 N 
ATOM      8  C   UNL     1       1.452   8.265  20.654  0.00  0.00    +0.000 C 
ATOM      9  O   UNL     1       1.354   8.092  21.867  0.00  0.00    +0.000 OA
ATOM     10  N   UNL     1       1.120   9.466  20.129  0.00  0.00    +0.000 N 
ATOM     11  H   UNL     1       1.879   7.517  18.803  0.00  0.00    +0.000 HD
ATOM     12  H   UNL     1       0.794  10.098  20.853  0.00  0.00    +0.000 HD
BRANCH   7  13
ATOM     13  C   UNL     1       2.249   5.990  20.203  0.00  0.00    +0.000 C 
BRANCH  13  18
ATOM     14  C   UNL     1       5.377   4.609  18.502  0.00  0.00    +0.000 A 
ATOM     15  C   UNL     1       4.834   4.121  17.311  0.00  0.00    +0.000 A 
ATOM     16  C   UNL     1       3.463   4.200  17.072  0.00  0.00    +0.000 A 
ATOM     17  C   UNL     1       2.623   4.789  18.019  0.00  0.00    +0.000 A 
ATOM     18  C   UNL     1       3.151   5.311  19.208  0.00  0.00    +0.000 A 
ATOM     19  C   UNL     1       4.531   5.198  19.447  0.00  0.00    +0.000 A 
BRANCH  14  21
ATOM     20  C   UNL     1       7.494   4.618  17.421  0.00  0.00    +0.000 C 
ATOM     21  O   UNL     1       6.733   4.466  18.611  0.00  0.00    +0.000 OA
ENDBRANCH  14  21
ENDBRANCH  13  18
ENDBRANCH   7  13
ENDBRANCH   1  10
BRANCH   4  22
ATOM     22  C   UNL     1      -1.400  13.283  19.536  0.00  0.00    +0.000 C 
BRANCH  22  23
ATOM     23  C   UNL     1      -2.247  12.700  20.641  0.00  0.00    +0.000 A 
ATOM     24  C   UNL     1      -1.645  12.424  21.895  0.00  0.00    +0.000 A 
ATOM     25  C   UNL     1      -2.417  12.359  23.055  0.00  0.00    +0.000 A 
ATOM     26  C   UNL     1      -3.761  12.615  22.916  0.00  0.00    +0.000 A 
ATOM     27  C   UNL     1      -4.360  12.758  21.681  0.00  0.00    +0.000 A 
ATOM     28  C   UNL     1      -3.642  12.736  20.513  0.00  0.00    +0.000 A 
ATOM     29  O   UNL     1      -5.664  13.145  21.792  0.00  0.00    +0.000 OA
ATOM     30  C   UNL     1      -5.630  13.611  23.154  0.00  0.00    +0.000 C 
ATOM     31  O   UNL     1      -4.619  12.932  23.929  0.00  0.00    +0.000 OA
ENDBRANCH  22  23
ENDBRANCH   4  22
TORSDOF 6
ENDMDL
