MODEL 1
REMARK VINA RESULT:      -8.1      0.000      0.000
REMARK  Name = 
REMARK  10 active torsions:
REMARK  status: ('A' for Active; 'I' for Inactive)
REMARK    1  A    between atoms: N_3  and  C_4
REMARK    2  A    between atoms: C_4  and  C_6
REMARK    3  A    between atoms: C_13  and  N_14
REMARK    4  A    between atoms: N_15  and  C_16
REMARK    5  A    between atoms: C_16  and  C_17
REMARK    6  A    between atoms: C_17  and  C_18
REMARK    7  A    between atoms: C_18  and  C_19
REMARK    8  A    between atoms: C_19  and  C_20
REMARK    9  A    between atoms: C_20  and  C_21
REMARK   10  A    between atoms: C_24  and  O_25
REMARK                            x       y       z     vdW  Elec       q    Type
REMARK                         _______ _______ _______ _____ _____    ______ ____
ROOT
ATOM      1  N   UNL     1       5.164   3.267  19.469  0.00  0.00    +0.000 N 
ATOM      2  C   UNL     1       5.471   4.241  18.569  0.00  0.00    +0.000 C 
ATOM      3  N   UNL     1       4.646   5.027  17.976  0.00  0.00    +0.000 NA
ATOM      4  N   UNL     1       6.827   4.279  18.392  0.00  0.00    +0.000 N 
ATOM      5  H   UNL     1       4.170   3.045  19.534  0.00  0.00    +0.000 HD
ATOM      6  H   UNL     1       5.794   2.507  19.658  0.00  0.00    +0.000 HD
ATOM      7  H   UNL     1       7.369   4.022  19.204  0.00  0.00    +0.000 HD
ENDROOT
BRANCH   3   8
ATOM      8  C   UNL     1       3.296   4.942  18.237  0.00  0.00    +0.000 C 
ATOM      9  O   UNL     1       2.572   3.975  17.944  0.00  0.00    +0.000 OA
BRANCH   8  10
ATOM     10  C   UNL     1       2.661   6.119  18.892  0.00  0.00    +0.000 A 
ATOM     11  N   UNL     1       2.572   7.247  18.136  0.00  0.00    +0.000 NA
ATOM     12  C   UNL     1       2.002   8.295  18.759  0.00  0.00    +0.000 A 
ATOM     13 CL   UNL     1       1.969   9.727  17.806  0.00  0.00    +0.000 Cl
ATOM     14  C   UNL     1       1.532   8.268  20.084  0.00  0.00    +0.000 A 
ATOM     15  N   UNL     1       0.876   9.353  20.668  0.00  0.00    +0.000 N 
ATOM     16  N   UNL     1       1.608   7.127  20.814  0.00  0.00    +0.000 NA
ATOM     17  C   UNL     1       2.168   6.043  20.216  0.00  0.00    +0.000 A 
ATOM     18  H   UNL     1       1.271  10.254  20.416  0.00  0.00    +0.000 HD
ATOM     19  H   UNL     1       0.770   9.205  21.667  0.00  0.00    +0.000 HD
BRANCH  17  20
ATOM     20  N   UNL     1       2.340   4.936  21.054  0.00  0.00    +0.000 N 
ATOM     21  H   UNL     1       3.316   4.828  21.296  0.00  0.00    +0.000 HD
ATOM     22  H   UNL     1       1.703   4.955  21.857  0.00  0.00    +0.000 HD
ENDBRANCH  17  20
ENDBRANCH   8  10
ENDBRANCH   3   8
BRANCH   4  23
ATOM     23  C   UNL     1       7.462   5.244  17.507  0.00  0.00    +0.000 C 
BRANCH  23  24
ATOM     24  C   UNL     1       7.660   6.584  18.226  0.00  0.00    +0.000 C 
BRANCH  24  25
ATOM     25  C   UNL     1       7.834   7.730  17.224  0.00  0.00    +0.000 C 
BRANCH  25  26
ATOM     26  C   UNL     1       7.822   9.091  17.915  0.00  0.00    +0.000 C 
BRANCH  26  27
ATOM     27  C   UNL     1       8.932   9.204  18.959  0.00  0.00    +0.000 C 
BRANCH  27  28
ATOM     28  C   UNL     1       9.446  10.620  19.075  0.00  0.00    +0.000 A 
ATOM     29  C   UNL     1       9.426  11.486  17.971  0.00  0.00    +0.000 A 
ATOM     30  C   UNL     1       9.834  12.816  18.105  0.00  0.00    +0.000 A 
ATOM     31  C   UNL     1      10.273  13.275  19.343  0.00  0.00    +0.000 A 
ATOM     32  C   UNL     1      10.341  12.421  20.435  0.00  0.00    +0.000 A 
ATOM     33  C   UNL     1       9.941  11.092  20.299  0.00  0.00    +0.000 A 
BRANCH  31  34
ATOM     34  O   UNL     1      10.642  14.575  19.530  0.00  0.00    +0.000 OA
ATOM     35  H   UNL     1      10.020  15.144  19.048  0.00  0.00    +0.000 HD
ENDBRANCH  31  34
ENDBRANCH  27  28
ENDBRANCH  26  27
ENDBRANCH  25  26
ENDBRANCH  24  25
ENDBRANCH  23  24
ENDBRANCH   4  23
TORSDOF 10
ENDMDL
MODEL 2
REMARK VINA RESULT:      -7.9      2.101      3.164
REMARK  Name = 
REMARK  10 active torsions:
REMARK  status: ('A' for Active; 'I' for Inactive)
REMARK    1  A    between atoms: N_3  and  C_4
REMARK    2  A    between atoms: C_4  and  C_6
REMARK    3  A    between atoms: C_13  and  N_14
REMARK    4  A    between atoms: N_15  and  C_16
REMARK    5  A    between atoms: C_16  and  C_17
REMARK    6  A    between atoms: C_17  and  C_18
REMARK    7  A    between atoms: C_18  and  C_19
REMARK    8  A    between atoms: C_19  and  C_20
REMARK    9  A    between atoms: C_20  and  C_21
REMARK   10  A    between atoms: C_24  and  O_25
REMARK                            x       y       z     vdW  Elec       q    Type
REMARK                         _______ _______ _______ _____ _____    ______ ____
ROOT
ATOM      1  N   UNL     1       7.600   4.418  17.336  0.00  0.00    +0.000 N 
ATOM      2  C   UNL     1       7.064   5.669  17.302  0.00  0.00    +0.000 C 
ATOM      3  N   UNL     1       5.839   5.974  17.063  0.00  0.00    +0.000 NA
ATOM      4  N   UNL     1       8.040   6.585  17.587  0.00  0.00    +0.000 N 
ATOM      5  H   UNL     1       6.995   3.685  16.965  0.00  0.00    +0.000 HD
ATOM      6  H   UNL     1       8.588   4.266  17.226  0.00  0.00    +0.000 HD
ATOM      7  H   UNL     1       8.759   6.258  18.217  0.00  0.00    +0.000 HD
ENDROOT
BRANCH   3   8
ATOM      8  C   UNL     1       4.913   4.985  16.818  0.00  0.00    +0.000 C 
ATOM      9  O   UNL     1       4.843   4.317  15.771  0.00  0.00    +0.000 OA
BRANCH   8  10
ATOM     10  C   UNL     1       3.903   4.726  17.882  0.00  0.00    +0.000 A 
ATOM     11  N   UNL     1       3.367   5.827  18.475  0.00  0.00    +0.000 NA
ATOM     12  C   UNL     1       2.466   5.561  19.438  0.00  0.00    +0.000 A 
ATOM     13 CL   UNL     1       1.858   6.968  20.220  0.00  0.00    +0.000 Cl
ATOM     14  C   UNL     1       2.090   4.265  19.833  0.00  0.00    +0.000 A 
ATOM     15  N   UNL     1       1.094   4.031  20.783  0.00  0.00    +0.000 N 
ATOM     16  N   UNL     1       2.618   3.180  19.214  0.00  0.00    +0.000 NA
ATOM     17  C   UNL     1       3.525   3.408  18.228  0.00  0.00    +0.000 A 
ATOM     18  H   UNL     1       1.109   4.683  21.561  0.00  0.00    +0.000 HD
ATOM     19  H   UNL     1       1.088   3.053  21.055  0.00  0.00    +0.000 HD
BRANCH  17  20
ATOM     20  N   UNL     1       4.133   2.257  17.715  0.00  0.00    +0.000 N 
ATOM     21  H   UNL     1       4.349   1.612  18.463  0.00  0.00    +0.000 HD
ATOM     22  H   UNL     1       3.599   1.848  16.942  0.00  0.00    +0.000 HD
ENDBRANCH  17  20
ENDBRANCH   8  10
ENDBRANCH   3   8
BRANCH   4  23
ATOM     23  C   UNL     1       7.761   8.012  17.657  0.00  0.00    +0.000 C 
BRANCH  23  24
ATOM     24  C   UNL     1       8.760   8.710  18.587  0.00  0.00    +0.000 C 
BRANCH  24  25
ATOM     25  C   UNL     1       8.707  10.232  18.414  0.00  0.00    +0.000 C 
BRANCH  25  26
ATOM     26  C   UNL     1       9.202  10.959  19.661  0.00  0.00    +0.000 C 
BRANCH  26  27
ATOM     27  C   UNL     1      10.664  11.381  19.527  0.00  0.00    +0.000 C 
BRANCH  27  28
ATOM     28  C   UNL     1      10.818  12.578  18.618  0.00  0.00    +0.000 A 
ATOM     29  C   UNL     1      11.561  12.489  17.431  0.00  0.00    +0.000 A 
ATOM     30  C   UNL     1      11.637  13.579  16.559  0.00  0.00    +0.000 A 
ATOM     31  C   UNL     1      10.979  14.762  16.882  0.00  0.00    +0.000 A 
ATOM     32  C   UNL     1      10.277  14.881  18.073  0.00  0.00    +0.000 A 
ATOM     33  C   UNL     1      10.206  13.796  18.947  0.00  0.00    +0.000 A 
BRANCH  31  34
ATOM     34  O   UNL     1      10.993  15.836  16.043  0.00  0.00    +0.000 OA
ATOM     35  H   UNL     1      11.736  16.411  16.289  0.00  0.00    +0.000 HD
ENDBRANCH  31  34
ENDBRANCH  27  28
ENDBRANCH  26  27
ENDBRANCH  25  26
ENDBRANCH  24  25
ENDBRANCH  23  24
ENDBRANCH   4  23
TORSDOF 10
ENDMDL
MODEL 3
REMARK VINA RESULT:      -7.6      5.321      7.525
REMARK  Name = 
REMARK  10 active torsions:
REMARK  status: ('A' for Active; 'I' for Inactive)
REMARK    1  A    between atoms: N_3  and  C_4
REMARK    2  A    between atoms: C_4  and  C_6
REMARK    3  A    between atoms: C_13  and  N_14
REMARK    4  A    between atoms: N_15  and  C_16
REMARK    5  A    between atoms: C_16  and  C_17
REMARK    6  A    between atoms: C_17  and  C_18
REMARK    7  A    between atoms: C_18  and  C_19
REMARK    8  A    between atoms: C_19  and  C_20
REMARK    9  A    between atoms: C_20  and  C_21
REMARK   10  A    between atoms: C_24  and  O_25
REMARK                            x       y       z     vdW  Elec       q    Type
REMARK                         _______ _______ _______ _____ _____    ______ ____
ROOT
ATOM      1  N   UNL     1       6.031   4.553  19.294  0.00  0.00    +0.000 N 
ATOM      2  C   UNL     1       4.984   3.906  18.713  0.00  0.00    +0.000 C 
ATOM      3  N   UNL     1       4.379   4.242  17.631  0.00  0.00    +0.000 NA
ATOM      4  N   UNL     1       4.669   2.801  19.457  0.00  0.00    +0.000 N 
ATOM      5  H   UNL     1       6.224   5.480  18.914  0.00  0.00    +0.000 HD
ATOM      6  H   UNL     1       6.255   4.425  20.266  0.00  0.00    +0.000 HD
ATOM      7  H   UNL     1       5.450   2.371  19.931  0.00  0.00    +0.000 HD
ENDROOT
BRANCH   3   8
ATOM      8  C   UNL     1       4.782   5.354  16.926  0.00  0.00    +0.000 C 
ATOM      9  O   UNL     1       4.525   6.529  17.239  0.00  0.00    +0.000 OA
BRANCH   8  10
ATOM     10  C   UNL     1       5.559   5.115  15.677  0.00  0.00    +0.000 A 
ATOM     11  N   UNL     1       4.921   4.410  14.704  0.00  0.00    +0.000 NA
ATOM     12  C   UNL     1       5.652   4.204  13.593  0.00  0.00    +0.000 A 
ATOM     13 CL   UNL     1       4.847   3.249  12.409  0.00  0.00    +0.000 Cl
ATOM     14  C   UNL     1       6.971   4.656  13.419  0.00  0.00    +0.000 A 
ATOM     15  N   UNL     1       7.668   4.488  12.220  0.00  0.00    +0.000 N 
ATOM     16  N   UNL     1       7.582   5.377  14.391  0.00  0.00    +0.000 NA
ATOM     17  C   UNL     1       6.873   5.616  15.525  0.00  0.00    +0.000 A 
ATOM     18  H   UNL     1       7.505   3.591  11.773  0.00  0.00    +0.000 HD
ATOM     19  H   UNL     1       8.648   4.722  12.346  0.00  0.00    +0.000 HD
BRANCH  17  20
ATOM     20  N   UNL     1       7.593   6.249  16.543  0.00  0.00    +0.000 N 
ATOM     21  H   UNL     1       7.034   6.976  16.969  0.00  0.00    +0.000 HD
ATOM     22  H   UNL     1       7.997   5.580  17.206  0.00  0.00    +0.000 HD
ENDBRANCH  17  20
ENDBRANCH   8  10
ENDBRANCH   3   8
BRANCH   4  23
ATOM     23  C   UNL     1       3.605   1.888  19.066  0.00  0.00    +0.000 C 
BRANCH  23  24
ATOM     24  C   UNL     1       2.264   2.627  18.985  0.00  0.00    +0.000 C 
BRANCH  24  25
ATOM     25  C   UNL     1       1.733   2.964  20.383  0.00  0.00    +0.000 C 
BRANCH  25  26
ATOM     26  C   UNL     1       1.204   4.394  20.456  0.00  0.00    +0.000 C 
BRANCH  26  27
ATOM     27  C   UNL     1       2.338   5.409  20.583  0.00  0.00    +0.000 C 
BRANCH  27  28
ATOM     28  C   UNL     1       1.891   6.797  20.187  0.00  0.00    +0.000 A 
ATOM     29  C   UNL     1       1.168   7.602  21.081  0.00  0.00    +0.000 A 
ATOM     30  C   UNL     1       0.823   8.912  20.735  0.00  0.00    +0.000 A 
ATOM     31  C   UNL     1       1.191   9.411  19.490  0.00  0.00    +0.000 A 
ATOM     32  C   UNL     1       1.868   8.614  18.576  0.00  0.00    +0.000 A 
ATOM     33  C   UNL     1       2.207   7.304  18.919  0.00  0.00    +0.000 A 
BRANCH  31  34
ATOM     34  O   UNL     1       0.911  10.695  19.126  0.00  0.00    +0.000 OA
ATOM     35  H   UNL     1       0.945  10.755  18.157  0.00  0.00    +0.000 HD
ENDBRANCH  31  34
ENDBRANCH  27  28
ENDBRANCH  26  27
ENDBRANCH  25  26
ENDBRANCH  24  25
ENDBRANCH  23  24
ENDBRANCH   4  23
TORSDOF 10
ENDMDL
MODEL 4
REMARK VINA RESULT:      -7.5      5.091      8.632
REMARK  Name = 
REMARK  10 active torsions:
REMARK  status: ('A' for Active; 'I' for Inactive)
REMARK    1  A    between atoms: N_3  and  C_4
REMARK    2  A    between atoms: C_4  and  C_6
REMARK    3  A    between atoms: C_13  and  N_14
REMARK    4  A    between atoms: N_15  and  C_16
REMARK    5  A    between atoms: C_16  and  C_17
REMARK    6  A    between atoms: C_17  and  C_18
REMARK    7  A    between atoms: C_18  and  C_19
REMARK    8  A    between atoms: C_19  and  C_20
REMARK    9  A    between atoms: C_20  and  C_21
REMARK   10  A    between atoms: C_24  and  O_25
REMARK                            x       y       z     vdW  Elec       q    Type
REMARK                         _______ _______ _______ _____ _____    ______ ____
ROOT
ATOM      1  N   UNL     1       2.236   4.038  18.108  0.00  0.00    +0.000 N 
ATOM      2  C   UNL     1       2.762   4.870  19.049  0.00  0.00    +0.000 C 
ATOM      3  N   UNL     1       3.963   4.852  19.505  0.00  0.00    +0.000 NA
ATOM      4  N   UNL     1       1.808   5.771  19.437  0.00  0.00    +0.000 N 
ATOM      5  H   UNL     1       2.813   3.226  17.887  0.00  0.00    +0.000 HD
ATOM      6  H   UNL     1       1.244   3.905  18.019  0.00  0.00    +0.000 HD
ATOM      7  H   UNL     1       1.143   6.022  18.720  0.00  0.00    +0.000 HD
ENDROOT
BRANCH   3   8
ATOM      8  C   UNL     1       4.871   3.930  19.035  0.00  0.00    +0.000 C 
ATOM      9  O   UNL     1       5.090   2.818  19.547  0.00  0.00    +0.000 OA
BRANCH   8  10
ATOM     10  C   UNL     1       5.668   4.318  17.838  0.00  0.00    +0.000 A 
ATOM     11  N   UNL     1       5.092   4.067  16.631  0.00  0.00    +0.000 NA
ATOM     12  C   UNL     1       5.841   4.421  15.570  0.00  0.00    +0.000 A 
ATOM     13 CL   UNL     1       5.120   4.027  14.058  0.00  0.00    +0.000 Cl
ATOM     14  C   UNL     1       7.120   4.996  15.661  0.00  0.00    +0.000 A 
ATOM     15  N   UNL     1       7.832   5.421  14.537  0.00  0.00    +0.000 N 
ATOM     16  N   UNL     1       7.667   5.261  16.873  0.00  0.00    +0.000 NA
ATOM     17  C   UNL     1       6.938   4.928  17.970  0.00  0.00    +0.000 A 
ATOM     18  H   UNL     1       7.743   4.801  13.738  0.00  0.00    +0.000 HD
ATOM     19  H   UNL     1       8.789   5.646  14.790  0.00  0.00    +0.000 HD
BRANCH  17  20
ATOM     20  N   UNL     1       7.601   5.100  19.189  0.00  0.00    +0.000 N 
ATOM     21  H   UNL     1       7.312   5.964  19.627  0.00  0.00    +0.000 HD
ATOM     22  H   UNL     1       7.528   4.274  19.791  0.00  0.00    +0.000 HD
ENDBRANCH  17  20
ENDBRANCH   8  10
ENDBRANCH   3   8
BRANCH   4  23
ATOM     23  C   UNL     1       2.085   6.813  20.414  0.00  0.00    +0.000 C 
BRANCH  23  24
ATOM     24  C   UNL     1       1.689   8.187  19.860  0.00  0.00    +0.000 C 
BRANCH  24  25
ATOM     25  C   UNL     1       1.011   9.043  20.935  0.00  0.00    +0.000 C 
BRANCH  25  26
ATOM     26  C   UNL     1      -0.322   9.606  20.452  0.00  0.00    +0.000 C 
BRANCH  26  27
ATOM     27  C   UNL     1      -0.134  10.598  19.305  0.00  0.00    +0.000 C 
BRANCH  27  28
ATOM     28  C   UNL     1      -1.395  10.749  18.486  0.00  0.00    +0.000 A 
ATOM     29  C   UNL     1      -1.561  10.041  17.286  0.00  0.00    +0.000 A 
ATOM     30  C   UNL     1      -2.760  10.128  16.572  0.00  0.00    +0.000 A 
ATOM     31  C   UNL     1      -3.786  10.935  17.053  0.00  0.00    +0.000 A 
ATOM     32  C   UNL     1      -3.622  11.677  18.215  0.00  0.00    +0.000 A 
ATOM     33  C   UNL     1      -2.423  11.594  18.924  0.00  0.00    +0.000 A 
BRANCH  31  34
ATOM     34  O   UNL     1      -4.987  11.019  16.411  0.00  0.00    +0.000 OA
ATOM     35  H   UNL     1      -4.834  11.364  15.516  0.00  0.00    +0.000 HD
ENDBRANCH  31  34
ENDBRANCH  27  28
ENDBRANCH  26  27
ENDBRANCH  25  26
ENDBRANCH  24  25
ENDBRANCH  23  24
ENDBRANCH   4  23
TORSDOF 10
ENDMDL
MODEL 5
REMARK VINA RESULT:      -7.5      4.577      7.083
REMARK  Name = 
REMARK  10 active torsions:
REMARK  status: ('A' for Active; 'I' for Inactive)
REMARK    1  A    between atoms: N_3  and  C_4
REMARK    2  A    between atoms: C_4  and  C_6
REMARK    3  A    between atoms: C_13  and  N_14
REMARK    4  A    between atoms: N_15  and  C_16
REMARK    5  A    between atoms: C_16  and  C_17
REMARK    6  A    between atoms: C_17  and  C_18
REMARK    7  A    between atoms: C_18  and  C_19
REMARK    8  A    between atoms: C_19  and  C_20
REMARK    9  A    between atoms: C_20  and  C_21
REMARK   10  A    between atoms: C_24  and  O_25
REMARK                            x       y       z     vdW  Elec       q    Type
REMARK                         _______ _______ _______ _____ _____    ______ ____
ROOT
ATOM      1  N   UNL     1       4.155   1.468  17.855  0.00  0.00    +0.000 N 
ATOM      2  C   UNL     1       3.467   2.636  17.979  0.00  0.00    +0.000 C 
ATOM      3  N   UNL     1       3.826   3.789  17.540  0.00  0.00    +0.000 NA
ATOM      4  N   UNL     1       2.293   2.399  18.641  0.00  0.00    +0.000 N 
ATOM      5  H   UNL     1       5.118   1.572  17.534  0.00  0.00    +0.000 HD
ATOM      6  H   UNL     1       3.981   0.687  18.464  0.00  0.00    +0.000 HD
ATOM      7  H   UNL     1       1.896   1.483  18.487  0.00  0.00    +0.000 HD
ENDROOT
BRANCH   3   8
ATOM      8  C   UNL     1       5.011   3.933  16.854  0.00  0.00    +0.000 C 
ATOM      9  O   UNL     1       5.369   3.232  15.891  0.00  0.00    +0.000 OA
BRANCH   8  10
ATOM     10  C   UNL     1       5.942   4.993  17.332  0.00  0.00    +0.000 A 
ATOM     11  N   UNL     1       6.618   4.719  18.481  0.00  0.00    +0.000 NA
ATOM     12  C   UNL     1       7.443   5.699  18.892  0.00  0.00    +0.000 A 
ATOM     13 CL   UNL     1       8.229   5.356  20.384  0.00  0.00    +0.000 Cl
ATOM     14  C   UNL     1       7.614   6.922  18.221  0.00  0.00    +0.000 A 
ATOM     15  N   UNL     1       8.539   7.882  18.637  0.00  0.00    +0.000 N 
ATOM     16  N   UNL     1       6.950   7.167  17.064  0.00  0.00    +0.000 NA
ATOM     17  C   UNL     1       6.114   6.197  16.610  0.00  0.00    +0.000 A 
ATOM     18  H   UNL     1       8.598   7.983  19.645  0.00  0.00    +0.000 HD
ATOM     19  H   UNL     1       8.394   8.753  18.135  0.00  0.00    +0.000 HD
BRANCH  17  20
ATOM     20  N   UNL     1       5.358   6.553  15.489  0.00  0.00    +0.000 N 
ATOM     21  H   UNL     1       4.592   7.156  15.759  0.00  0.00    +0.000 HD
ATOM     22  H   UNL     1       5.940   6.920  14.729  0.00  0.00    +0.000 HD
ENDBRANCH  17  20
ENDBRANCH   8  10
ENDBRANCH   3   8
BRANCH   4  23
ATOM     23  C   UNL     1       1.326   3.456  18.896  0.00  0.00    +0.000 C 
BRANCH  23  24
ATOM     24  C   UNL     1       1.448   3.958  20.340  0.00  0.00    +0.000 C 
BRANCH  24  25
ATOM     25  C   UNL     1       2.025   5.377  20.385  0.00  0.00    +0.000 C 
BRANCH  25  26
ATOM     26  C   UNL     1       1.978   6.050  19.016  0.00  0.00    +0.000 C 
BRANCH  26  27
ATOM     27  C   UNL     1       2.642   7.426  19.039  0.00  0.00    +0.000 C 
BRANCH  27  28
ATOM     28  C   UNL     1       1.634   8.527  19.272  0.00  0.00    +0.000 A 
ATOM     29  C   UNL     1       1.231   9.366  18.221  0.00  0.00    +0.000 A 
ATOM     30  C   UNL     1       0.243  10.334  18.427  0.00  0.00    +0.000 A 
ATOM     31  C   UNL     1      -0.331  10.470  19.687  0.00  0.00    +0.000 A 
ATOM     32  C   UNL     1       0.088   9.679  20.748  0.00  0.00    +0.000 A 
ATOM     33  C   UNL     1       1.078   8.717  20.544  0.00  0.00    +0.000 A 
BRANCH  31  34
ATOM     34  O   UNL     1      -1.325  11.373  19.923  0.00  0.00    +0.000 OA
ATOM     35  H   UNL     1      -2.169  10.895  19.977  0.00  0.00    +0.000 HD
ENDBRANCH  31  34
ENDBRANCH  27  28
ENDBRANCH  26  27
ENDBRANCH  25  26
ENDBRANCH  24  25
ENDBRANCH  23  24
ENDBRANCH   4  23
TORSDOF 10
ENDMDL
MODEL 6
REMARK VINA RESULT:      -7.4      4.347      6.821
REMARK  Name = 
REMARK  10 active torsions:
REMARK  status: ('A' for Active; 'I' for Inactive)
REMARK    1  A    between atoms: N_3  and  C_4
REMARK    2  A    between atoms: C_4  and  C_6
REMARK    3  A    between atoms: C_13  and  N_14
REMARK    4  A    between atoms: N_15  and  C_16
REMARK    5  A    between atoms: C_16  and  C_17
REMARK    6  A    between atoms: C_17  and  C_18
REMARK    7  A    between atoms: C_18  and  C_19
REMARK    8  A    between atoms: C_19  and  C_20
REMARK    9  A    between atoms: C_20  and  C_21
REMARK   10  A    between atoms: C_24  and  O_25
REMARK                            x       y       z     vdW  Elec       q    Type
REMARK                         _______ _______ _______ _____ _____    ______ ____
ROOT
ATOM      1  N   UNL     1       4.278   1.333  17.187  0.00  0.00    +0.000 N 
ATOM      2  C   UNL     1       3.679   2.363  17.846  0.00  0.00    +0.000 C 
ATOM      3  N   UNL     1       3.951   3.613  17.726  0.00  0.00    +0.000 NA
ATOM      4  N   UNL     1       2.701   1.866  18.665  0.00  0.00    +0.000 N 
ATOM      5  H   UNL     1       5.132   1.584  16.690  0.00  0.00    +0.000 HD
ATOM      6  H   UNL     1       4.238   0.391  17.536  0.00  0.00    +0.000 HD
ATOM      7  H   UNL     1       2.250   1.028  18.328  0.00  0.00    +0.000 HD
ENDROOT
BRANCH   3   8
ATOM      8  C   UNL     1       4.931   4.030  16.853  0.00  0.00    +0.000 C 
ATOM      9  O   UNL     1       5.094   3.591  15.701  0.00  0.00    +0.000 OA
BRANCH   8  10
ATOM     10  C   UNL     1       5.881   5.064  17.349  0.00  0.00    +0.000 A 
ATOM     11  N   UNL     1       6.566   4.750  18.483  0.00  0.00    +0.000 NA
ATOM     12  C   UNL     1       7.409   5.707  18.910  0.00  0.00    +0.000 A 
ATOM     13 CL   UNL     1       8.206   5.313  20.383  0.00  0.00    +0.000 Cl
ATOM     14  C   UNL     1       7.589   6.946  18.271  0.00  0.00    +0.000 A 
ATOM     15  N   UNL     1       8.531   7.882  18.703  0.00  0.00    +0.000 N 
ATOM     16  N   UNL     1       6.915   7.231  17.129  0.00  0.00    +0.000 NA
ATOM     17  C   UNL     1       6.062   6.285  16.659  0.00  0.00    +0.000 A 
ATOM     18  H   UNL     1       8.603   7.954  19.713  0.00  0.00    +0.000 HD
ATOM     19  H   UNL     1       8.392   8.768  18.227  0.00  0.00    +0.000 HD
BRANCH  17  20
ATOM     20  N   UNL     1       5.298   6.682  15.556  0.00  0.00    +0.000 N 
ATOM     21  H   UNL     1       5.054   7.660  15.632  0.00  0.00    +0.000 HD
ATOM     22  H   UNL     1       5.736   6.422  14.667  0.00  0.00    +0.000 HD
ENDBRANCH  17  20
ENDBRANCH   8  10
ENDBRANCH   3   8
BRANCH   4  23
ATOM     23  C   UNL     1       1.862   2.735  19.477  0.00  0.00    +0.000 C 
BRANCH  23  24
ATOM     24  C   UNL     1       2.367   2.770  20.924  0.00  0.00    +0.000 C 
BRANCH  24  25
ATOM     25  C   UNL     1       2.295   4.188  21.501  0.00  0.00    +0.000 C 
BRANCH  25  26
ATOM     26  C   UNL     1       1.712   5.178  20.496  0.00  0.00    +0.000 C 
BRANCH  26  27
ATOM     27  C   UNL     1       1.558   6.572  21.101  0.00  0.00    +0.000 C 
BRANCH  27  28
ATOM     28  C   UNL     1       1.673   7.652  20.051  0.00  0.00    +0.000 A 
ATOM     29  C   UNL     1       1.024   8.886  20.214  0.00  0.00    +0.000 A 
ATOM     30  C   UNL     1       1.196   9.907  19.275  0.00  0.00    +0.000 A 
ATOM     31  C   UNL     1       2.008   9.688  18.167  0.00  0.00    +0.000 A 
ATOM     32  C   UNL     1       2.622   8.459  17.968  0.00  0.00    +0.000 A 
ATOM     33  C   UNL     1       2.446   7.437  18.902  0.00  0.00    +0.000 A 
BRANCH  31  34
ATOM     34  O   UNL     1       2.237  10.668  17.247  0.00  0.00    +0.000 OA
ATOM     35  H   UNL     1       2.041  10.314  16.364  0.00  0.00    +0.000 HD
ENDBRANCH  31  34
ENDBRANCH  27  28
ENDBRANCH  26  27
ENDBRANCH  25  26
ENDBRANCH  24  25
ENDBRANCH  23  24
ENDBRANCH   4  23
TORSDOF 10
ENDMDL
MODEL 7
REMARK VINA RESULT:      -7.4      2.404      3.457
REMARK  Name = 
REMARK  10 active torsions:
REMARK  status: ('A' for Active; 'I' for Inactive)
REMARK    1  A    between atoms: N_3  and  C_4
REMARK    2  A    between atoms: C_4  and  C_6
REMARK    3  A    between atoms: C_13  and  N_14
REMARK    4  A    between atoms: N_15  and  C_16
REMARK    5  A    between atoms: C_16  and  C_17
REMARK    6  A    between atoms: C_17  and  C_18
REMARK    7  A    between atoms: C_18  and  C_19
REMARK    8  A    between atoms: C_19  and  C_20
REMARK    9  A    between atoms: C_20  and  C_21
REMARK   10  A    between atoms: C_24  and  O_25
REMARK                            x       y       z     vdW  Elec       q    Type
REMARK                         _______ _______ _______ _____ _____    ______ ____
ROOT
ATOM      1  N   UNL     1       5.317   6.662  15.719  0.00  0.00    +0.000 N 
ATOM      2  C   UNL     1       6.068   6.263  16.781  0.00  0.00    +0.000 C 
ATOM      3  N   UNL     1       5.934   5.176  17.453  0.00  0.00    +0.000 NA
ATOM      4  N   UNL     1       7.032   7.203  17.030  0.00  0.00    +0.000 N 
ATOM      5  H   UNL     1       4.467   6.117  15.569  0.00  0.00    +0.000 HD
ATOM      6  H   UNL     1       5.271   7.627  15.439  0.00  0.00    +0.000 HD
ATOM      7  H   UNL     1       7.363   7.698  16.214  0.00  0.00    +0.000 HD
ENDROOT
BRANCH   3   8
ATOM      8  C   UNL     1       4.956   4.268  17.114  0.00  0.00    +0.000 C 
ATOM      9  O   UNL     1       4.875   3.681  16.021  0.00  0.00    +0.000 OA
BRANCH   8  10
ATOM     10  C   UNL     1       3.902   4.001  18.132  0.00  0.00    +0.000 A 
ATOM     11  N   UNL     1       3.370   5.095  18.742  0.00  0.00    +0.000 NA
ATOM     12  C   UNL     1       2.428   4.820  19.662  0.00  0.00    +0.000 A 
ATOM     13 CL   UNL     1       1.825   6.216  20.467  0.00  0.00    +0.000 Cl
ATOM     14  C   UNL     1       2.008   3.522  20.001  0.00  0.00    +0.000 A 
ATOM     15  N   UNL     1       0.971   3.282  20.906  0.00  0.00    +0.000 N 
ATOM     16  N   UNL     1       2.533   2.445  19.366  0.00  0.00    +0.000 NA
ATOM     17  C   UNL     1       3.480   2.682  18.421  0.00  0.00    +0.000 A 
ATOM     18  H   UNL     1       0.973   3.909  21.705  0.00  0.00    +0.000 HD
ATOM     19  H   UNL     1       0.933   2.296  21.145  0.00  0.00    +0.000 HD
BRANCH  17  20
ATOM     20  N   UNL     1       4.080   1.534  17.893  0.00  0.00    +0.000 N 
ATOM     21  H   UNL     1       5.073   1.680  17.774  0.00  0.00    +0.000 HD
ATOM     22  H   UNL     1       3.836   0.690  18.421  0.00  0.00    +0.000 HD
ENDBRANCH  17  20
ENDBRANCH   8  10
ENDBRANCH   3   8
BRANCH   4  23
ATOM     23  C   UNL     1       8.013   7.039  18.092  0.00  0.00    +0.000 C 
BRANCH  23  24
ATOM     24  C   UNL     1       8.297   8.382  18.774  0.00  0.00    +0.000 C 
BRANCH  24  25
ATOM     25  C   UNL     1       8.477   9.500  17.743  0.00  0.00    +0.000 C 
BRANCH  25  26
ATOM     26  C   UNL     1       9.028  10.773  18.380  0.00  0.00    +0.000 C 
BRANCH  26  27
ATOM     27  C   UNL     1      10.404  11.134  17.822  0.00  0.00    +0.000 C 
BRANCH  27  28
ATOM     28  C   UNL     1      10.563  12.627  17.654  0.00  0.00    +0.000 A 
ATOM     29  C   UNL     1       9.546  13.509  18.053  0.00  0.00    +0.000 A 
ATOM     30  C   UNL     1       9.732  14.892  17.964  0.00  0.00    +0.000 A 
ATOM     31  C   UNL     1      10.930  15.391  17.464  0.00  0.00    +0.000 A 
ATOM     32  C   UNL     1      11.929  14.533  17.024  0.00  0.00    +0.000 A 
ATOM     33  C   UNL     1      11.742  13.153  17.107  0.00  0.00    +0.000 A 
BRANCH  31  34
ATOM     34  O   UNL     1      11.170  16.732  17.397  0.00  0.00    +0.000 OA
ATOM     35  H   UNL     1      10.846  17.144  18.214  0.00  0.00    +0.000 HD
ENDBRANCH  31  34
ENDBRANCH  27  28
ENDBRANCH  26  27
ENDBRANCH  25  26
ENDBRANCH  24  25
ENDBRANCH  23  24
ENDBRANCH   4  23
TORSDOF 10
ENDMDL
MODEL 8
REMARK VINA RESULT:      -7.3      4.998      7.193
REMARK  Name = 
REMARK  10 active torsions:
REMARK  status: ('A' for Active; 'I' for Inactive)
REMARK    1  A    between atoms: N_3  and  C_4
REMARK    2  A    between atoms: C_4  and  C_6
REMARK    3  A    between atoms: C_13  and  N_14
REMARK    4  A    between atoms: N_15  and  C_16
REMARK    5  A    between atoms: C_16  and  C_17
REMARK    6  A    between atoms: C_17  and  C_18
REMARK    7  A    between atoms: C_18  and  C_19
REMARK    8  A    between atoms: C_19  and  C_20
REMARK    9  A    between atoms: C_20  and  C_21
REMARK   10  A    between atoms: C_24  and  O_25
REMARK                            x       y       z     vdW  Elec       q    Type
REMARK                         _______ _______ _______ _____ _____    ______ ____
ROOT
ATOM      1  N   UNL     1       1.292   8.231  21.888  0.00  0.00    +0.000 N 
ATOM      2  C   UNL     1       1.572   8.313  20.558  0.00  0.00    +0.000 C 
ATOM      3  N   UNL     1       1.319   9.303  19.779  0.00  0.00    +0.000 NA
ATOM      4  N   UNL     1       2.199   7.164  20.158  0.00  0.00    +0.000 N 
ATOM      5  H   UNL     1       0.671   8.961  22.238  0.00  0.00    +0.000 HD
ATOM      6  H   UNL     1       1.235   7.346  22.360  0.00  0.00    +0.000 HD
ATOM      7  H   UNL     1       2.771   6.724  20.865  0.00  0.00    +0.000 HD
ENDROOT
BRANCH   3   8
ATOM      8  C   UNL     1       0.713  10.437  20.272  0.00  0.00    +0.000 C 
ATOM      9  O   UNL     1       1.138  11.119  21.220  0.00  0.00    +0.000 OA
BRANCH   8  10
ATOM     10  C   UNL     1      -0.567  10.850  19.632  0.00  0.00    +0.000 A 
ATOM     11  N   UNL     1      -0.854  10.262  18.438  0.00  0.00    +0.000 NA
ATOM     12  C   UNL     1      -2.012  10.663  17.882  0.00  0.00    +0.000 A 
ATOM     13 CL   UNL     1      -2.314   9.958  16.341  0.00  0.00    +0.000 Cl
ATOM     14  C   UNL     1      -2.875  11.614  18.451  0.00  0.00    +0.000 A 
ATOM     15  N   UNL     1      -4.106  11.946  17.879  0.00  0.00    +0.000 N 
ATOM     16  N   UNL     1      -2.584  12.172  19.652  0.00  0.00    +0.000 NA
ATOM     17  C   UNL     1      -1.428  11.785  20.252  0.00  0.00    +0.000 A 
ATOM     18  H   UNL     1      -4.085  12.000  16.866  0.00  0.00    +0.000 HD
ATOM     19  H   UNL     1      -4.499  12.763  18.336  0.00  0.00    +0.000 HD
BRANCH  17  20
ATOM     20  N   UNL     1      -1.113  12.485  21.421  0.00  0.00    +0.000 N 
ATOM     21  H   UNL     1      -1.227  11.888  22.229  0.00  0.00    +0.000 HD
ATOM     22  H   UNL     1      -0.201  12.949  21.361  0.00  0.00    +0.000 HD
ENDBRANCH  17  20
ENDBRANCH   8  10
ENDBRANCH   3   8
BRANCH   4  23
ATOM     23  C   UNL     1       2.651   6.969  18.789  0.00  0.00    +0.000 C 
BRANCH  23  24
ATOM     24  C   UNL     1       1.901   5.803  18.135  0.00  0.00    +0.000 C 
BRANCH  24  25
ATOM     25  C   UNL     1       1.963   4.546  19.009  0.00  0.00    +0.000 C 
BRANCH  25  26
ATOM     26  C   UNL     1       2.814   3.453  18.368  0.00  0.00    +0.000 C 
BRANCH  26  27
ATOM     27  C   UNL     1       4.268   3.525  18.830  0.00  0.00    +0.000 C 
BRANCH  27  28
ATOM     28  C   UNL     1       5.168   4.091  17.757  0.00  0.00    +0.000 A 
ATOM     29  C   UNL     1       6.433   4.608  18.078  0.00  0.00    +0.000 A 
ATOM     30  C   UNL     1       7.290   5.061  17.071  0.00  0.00    +0.000 A 
ATOM     31  C   UNL     1       6.875   5.009  15.744  0.00  0.00    +0.000 A 
ATOM     32  C   UNL     1       5.610   4.543  15.413  0.00  0.00    +0.000 A 
ATOM     33  C   UNL     1       4.752   4.096  16.419  0.00  0.00    +0.000 A 
BRANCH  31  34
ATOM     34  O   UNL     1       7.693   5.403  14.726  0.00  0.00    +0.000 OA
ATOM     35  H   UNL     1       8.613   5.237  14.989  0.00  0.00    +0.000 HD
ENDBRANCH  31  34
ENDBRANCH  27  28
ENDBRANCH  26  27
ENDBRANCH  25  26
ENDBRANCH  24  25
ENDBRANCH  23  24
ENDBRANCH   4  23
TORSDOF 10
ENDMDL
MODEL 9
REMARK VINA RESULT:      -7.3      4.924      8.127
REMARK  Name = 
REMARK  10 active torsions:
REMARK  status: ('A' for Active; 'I' for Inactive)
REMARK    1  A    between atoms: N_3  and  C_4
REMARK    2  A    between atoms: C_4  and  C_6
REMARK    3  A    between atoms: C_13  and  N_14
REMARK    4  A    between atoms: N_15  and  C_16
REMARK    5  A    between atoms: C_16  and  C_17
REMARK    6  A    between atoms: C_17  and  C_18
REMARK    7  A    between atoms: C_18  and  C_19
REMARK    8  A    between atoms: C_19  and  C_20
REMARK    9  A    between atoms: C_20  and  C_21
REMARK   10  A    between atoms: C_24  and  O_25
REMARK                            x       y       z     vdW  Elec       q    Type
REMARK                         _______ _______ _______ _____ _____    ______ ____
ROOT
ATOM      1  N   UNL     1       2.345   4.421  17.519  0.00  0.00    +0.000 N 
ATOM      2  C   UNL     1       2.881   5.367  18.338  0.00  0.00    +0.000 C 
ATOM      3  N   UNL     1       4.094   5.424  18.756  0.00  0.00    +0.000 NA
ATOM      4  N   UNL     1       1.919   6.291  18.648  0.00  0.00    +0.000 N 
ATOM      5  H   UNL     1       2.932   3.599  17.377  0.00  0.00    +0.000 HD
ATOM      6  H   UNL     1       1.353   4.261  17.478  0.00  0.00    +0.000 HD
ATOM      7  H   UNL     1       1.229   6.444  17.927  0.00  0.00    +0.000 HD
ENDROOT
BRANCH   3   8
ATOM      8  C   UNL     1       5.008   4.469  18.368  0.00  0.00    +0.000 C 
ATOM      9  O   UNL     1       5.252   3.421  18.991  0.00  0.00    +0.000 OA
BRANCH   8  10
ATOM     10  C   UNL     1       5.778   4.739  17.122  0.00  0.00    +0.000 A 
ATOM     11  N   UNL     1       5.338   4.107  16.000  0.00  0.00    +0.000 NA
ATOM     12  C   UNL     1       6.060   4.363  14.895  0.00  0.00    +0.000 A 
ATOM     13 CL   UNL     1       5.526   3.496  13.508  0.00  0.00    +0.000 Cl
ATOM     14  C   UNL     1       7.188   5.202  14.863  0.00  0.00    +0.000 A 
ATOM     15  N   UNL     1       7.864   5.504  13.679  0.00  0.00    +0.000 N 
ATOM     16  N   UNL     1       7.598   5.841  15.987  0.00  0.00    +0.000 NA
ATOM     17  C   UNL     1       6.887   5.617  17.123  0.00  0.00    +0.000 A 
ATOM     18  H   UNL     1       7.950   4.716  13.045  0.00  0.00    +0.000 HD
ATOM     19  H   UNL     1       8.739   5.977  13.883  0.00  0.00    +0.000 HD
BRANCH  17  20
ATOM     20  N   UNL     1       7.429   6.195  18.276  0.00  0.00    +0.000 N 
ATOM     21  H   UNL     1       8.032   6.969  18.030  0.00  0.00    +0.000 HD
ATOM     22  H   UNL     1       6.710   6.422  18.970  0.00  0.00    +0.000 HD
ENDBRANCH  17  20
ENDBRANCH   8  10
ENDBRANCH   3   8
BRANCH   4  23
ATOM     23  C   UNL     1       2.203   7.447  19.485  0.00  0.00    +0.000 C 
BRANCH  23  24
ATOM     24  C   UNL     1       1.634   7.242  20.894  0.00  0.00    +0.000 C 
BRANCH  24  25
ATOM     25  C   UNL     1       1.410   8.583  21.601  0.00  0.00    +0.000 C 
BRANCH  25  26
ATOM     26  C   UNL     1      -0.059   8.996  21.578  0.00  0.00    +0.000 C 
BRANCH  26  27
ATOM     27  C   UNL     1      -0.219  10.504  21.388  0.00  0.00    +0.000 C 
BRANCH  27  28
ATOM     28  C   UNL     1      -0.705  10.842  19.998  0.00  0.00    +0.000 A 
ATOM     29  C   UNL     1      -0.867   9.840  19.029  0.00  0.00    +0.000 A 
ATOM     30  C   UNL     1      -1.389  10.151  17.769  0.00  0.00    +0.000 A 
ATOM     31  C   UNL     1      -1.736  11.466  17.477  0.00  0.00    +0.000 A 
ATOM     32  C   UNL     1      -1.540  12.476  18.408  0.00  0.00    +0.000 A 
ATOM     33  C   UNL     1      -1.014  12.168  19.664  0.00  0.00    +0.000 A 
BRANCH  31  34
ATOM     34  O   UNL     1      -2.285  11.807  16.276  0.00  0.00    +0.000 OA
ATOM     35  H   UNL     1      -2.284  11.023  15.703  0.00  0.00    +0.000 HD
ENDBRANCH  31  34
ENDBRANCH  27  28
ENDBRANCH  26  27
ENDBRANCH  25  26
ENDBRANCH  24  25
ENDBRANCH  23  24
ENDBRANCH   4  23
TORSDOF 10
ENDMDL
