MODEL 1
REMARK VINA RESULT:      -7.1      0.000      0.000
REMARK  Name = 
REMARK  5 active torsions:
REMARK  status: ('A' for Active; 'I' for Inactive)
REMARK    1  A    between atoms: C_1  and  C_2
REMARK    2  A    between atoms: C_2  and  C_13
REMARK    3  A    between atoms: N_3  and  N_4
REMARK    4  A    between atoms: C_5  and  C_7
REMARK    5  A    between atoms: N_15  and  C_16
REMARK                            x       y       z     vdW  Elec       q    Type
REMARK                         _______ _______ _______ _____ _____    ______ ____
ROOT
ATOM      1  C   UNL     1       8.170   6.324  19.047  0.00  0.00    +0.000 C 
ATOM      2  C   UNL     1       7.277   7.024  18.044  0.00  0.00    +0.000 C 
ATOM      3  N   UNL     1       7.458   8.206  17.521  0.00  0.00    +0.000 NA
ENDROOT
BRANCH   3   4
ATOM      4  N   UNL     1       8.547   8.937  17.934  0.00  0.00    +0.000 N 
ATOM      5  C   UNL     1       8.512  10.326  17.963  0.00  0.00    +0.000 C 
ATOM      6  O   UNL     1       7.552  11.015  17.638  0.00  0.00    +0.000 OA
ATOM      7  H   UNL     1       9.323   8.470  18.379  0.00  0.00    +0.000 HD
BRANCH   5   8
ATOM      8  C   UNL     1       9.756  10.988  18.465  0.00  0.00    +0.000 A 
ATOM      9  C   UNL     1      10.743  11.483  17.606  0.00  0.00    +0.000 A 
ATOM     10  C   UNL     1      11.857  12.085  18.169  0.00  0.00    +0.000 A 
ATOM     11  N   UNL     1      12.045  12.221  19.498  0.00  0.00    +0.000 NA
ATOM     12  C   UNL     1      11.069  11.756  20.307  0.00  0.00    +0.000 A 
ATOM     13  C   UNL     1       9.917  11.141  19.844  0.00  0.00    +0.000 A 
ENDBRANCH   5   8
ENDBRANCH   3   4
BRANCH   2  14
ATOM     14  C   UNL     1       6.064   6.191  17.636  0.00  0.00    +0.000 C 
ATOM     15  O   UNL     1       5.823   6.155  16.433  0.00  0.00    +0.000 OA
ATOM     16  N   UNL     1       5.331   5.599  18.645  0.00  0.00    +0.000 N 
ATOM     17  H   UNL     1       5.596   5.837  19.598  0.00  0.00    +0.000 HD
BRANCH  16  18
ATOM     18  C   UNL     1       4.165   4.817  18.431  0.00  0.00    +0.000 A 
ATOM     19  C   UNL     1       2.923   5.388  18.104  0.00  0.00    +0.000 A 
ATOM     20  C   UNL     1       1.780   4.601  17.954  0.00  0.00    +0.000 A 
ATOM     21  C   UNL     1       1.870   3.231  18.128  0.00  0.00    +0.000 A 
ATOM     22  F   UNL     1       0.772   2.476  18.005  0.00  0.00    +0.000 F 
ATOM     23  C   UNL     1       3.092   2.635  18.425  0.00  0.00    +0.000 A 
ATOM     24  C   UNL     1       4.243   3.426  18.561  0.00  0.00    +0.000 A 
ENDBRANCH  16  18
ENDBRANCH   2  14
TORSDOF 4
ENDMDL
MODEL 2
REMARK VINA RESULT:      -6.9      6.180      7.864
REMARK  Name = 
REMARK  5 active torsions:
REMARK  status: ('A' for Active; 'I' for Inactive)
REMARK    1  A    between atoms: C_1  and  C_2
REMARK    2  A    between atoms: C_2  and  C_13
REMARK    3  A    between atoms: N_3  and  N_4
REMARK    4  A    between atoms: C_5  and  C_7
REMARK    5  A    between atoms: N_15  and  C_16
REMARK                            x       y       z     vdW  Elec       q    Type
REMARK                         _______ _______ _______ _____ _____    ______ ____
ROOT
ATOM      1  C   UNL     1       1.638   9.210  17.967  0.00  0.00    +0.000 C 
ATOM      2  C   UNL     1       1.889   8.249  19.110  0.00  0.00    +0.000 C 
ATOM      3  N   UNL     1       1.606   8.435  20.371  0.00  0.00    +0.000 NA
ENDROOT
BRANCH   3   4
ATOM      4  N   UNL     1       1.056   9.641  20.739  0.00  0.00    +0.000 N 
ATOM      5  C   UNL     1      -0.015   9.704  21.624  0.00  0.00    +0.000 C 
ATOM      6  O   UNL     1      -0.557   8.736  22.144  0.00  0.00    +0.000 OA
ATOM      7  H   UNL     1       1.530  10.500  20.502  0.00  0.00    +0.000 HD
BRANCH   5   8
ATOM      8  C   UNL     1      -0.489  11.082  21.959  0.00  0.00    +0.000 A 
ATOM      9  C   UNL     1      -0.065  12.214  21.256  0.00  0.00    +0.000 A 
ATOM     10  C   UNL     1      -0.566  13.447  21.640  0.00  0.00    +0.000 A 
ATOM     11  N   UNL     1      -1.440  13.619  22.654  0.00  0.00    +0.000 NA
ATOM     12  C   UNL     1      -1.851  12.509  23.305  0.00  0.00    +0.000 A 
ATOM     13  C   UNL     1      -1.412  11.233  22.996  0.00  0.00    +0.000 A 
ENDBRANCH   5   8
ENDBRANCH   3   4
BRANCH   2  14
ATOM     14  C   UNL     1       2.529   6.937  18.663  0.00  0.00    +0.000 C 
ATOM     15  O   UNL     1       3.357   7.028  17.761  0.00  0.00    +0.000 OA
ATOM     16  N   UNL     1       2.094   5.777  19.271  0.00  0.00    +0.000 N 
ATOM     17  H   UNL     1       1.307   5.868  19.910  0.00  0.00    +0.000 HD
BRANCH  16  18
ATOM     18  C   UNL     1       2.571   4.479  18.948  0.00  0.00    +0.000 A 
ATOM     19  C   UNL     1       1.943   3.659  17.995  0.00  0.00    +0.000 A 
ATOM     20  C   UNL     1       2.399   2.365  17.738  0.00  0.00    +0.000 A 
ATOM     21  C   UNL     1       3.493   1.880  18.432  0.00  0.00    +0.000 A 
ATOM     22  F   UNL     1       3.921   0.632  18.202  0.00  0.00    +0.000 F 
ATOM     23  C   UNL     1       4.152   2.678  19.361  0.00  0.00    +0.000 A 
ATOM     24  C   UNL     1       3.701   3.984  19.609  0.00  0.00    +0.000 A 
ENDBRANCH  16  18
ENDBRANCH   2  14
TORSDOF 4
ENDMDL
MODEL 3
REMARK VINA RESULT:      -6.8      0.613      1.152
REMARK  Name = 
REMARK  5 active torsions:
REMARK  status: ('A' for Active; 'I' for Inactive)
REMARK    1  A    between atoms: C_1  and  C_2
REMARK    2  A    between atoms: C_2  and  C_13
REMARK    3  A    between atoms: N_3  and  N_4
REMARK    4  A    between atoms: C_5  and  C_7
REMARK    5  A    between atoms: N_15  and  C_16
REMARK                            x       y       z     vdW  Elec       q    Type
REMARK                         _______ _______ _______ _____ _____    ______ ____
ROOT
ATOM      1  C   UNL     1       8.449   6.727  18.623  0.00  0.00    +0.000 C 
ATOM      2  C   UNL     1       7.404   7.566  17.919  0.00  0.00    +0.000 C 
ATOM      3  N   UNL     1       7.479   8.837  17.631  0.00  0.00    +0.000 NA
ENDROOT
BRANCH   3   4
ATOM      4  N   UNL     1       8.599   9.526  18.034  0.00  0.00    +0.000 N 
ATOM      5  C   UNL     1       8.700  10.901  17.856  0.00  0.00    +0.000 C 
ATOM      6  O   UNL     1       7.843  11.611  17.345  0.00  0.00    +0.000 OA
ATOM      7  H   UNL     1       9.287   9.068  18.613  0.00  0.00    +0.000 HD
BRANCH   5   8
ATOM      8  C   UNL     1       9.959  11.523  18.370  0.00  0.00    +0.000 A 
ATOM      9  C   UNL     1      10.414  11.328  19.679  0.00  0.00    +0.000 A 
ATOM     10  C   UNL     1      11.596  11.943  20.059  0.00  0.00    +0.000 A 
ATOM     11  N   UNL     1      12.333  12.720  19.239  0.00  0.00    +0.000 NA
ATOM     12  C   UNL     1      11.887  12.878  17.975  0.00  0.00    +0.000 A 
ATOM     13  C   UNL     1      10.720  12.304  17.497  0.00  0.00    +0.000 A 
ENDBRANCH   5   8
ENDBRANCH   3   4
BRANCH   2  14
ATOM     14  C   UNL     1       6.165   6.769  17.517  0.00  0.00    +0.000 C 
ATOM     15  O   UNL     1       5.759   6.954  16.373  0.00  0.00    +0.000 OA
ATOM     16  N   UNL     1       5.592   5.959  18.477  0.00  0.00    +0.000 N 
ATOM     17  H   UNL     1       5.981   6.021  19.414  0.00  0.00    +0.000 HD
BRANCH  16  18
ATOM     18  C   UNL     1       4.425   5.177  18.267  0.00  0.00    +0.000 A 
ATOM     19  C   UNL     1       3.139   5.741  18.206  0.00  0.00    +0.000 A 
ATOM     20  C   UNL     1       2.003   4.944  18.057  0.00  0.00    +0.000 A 
ATOM     21  C   UNL     1       2.145   3.571  17.963  0.00  0.00    +0.000 A 
ATOM     22  F   UNL     1       1.055   2.802  17.839  0.00  0.00    +0.000 F 
ATOM     23  C   UNL     1       3.406   2.986  17.992  0.00  0.00    +0.000 A 
ATOM     24  C   UNL     1       4.549   3.790  18.129  0.00  0.00    +0.000 A 
ENDBRANCH  16  18
ENDBRANCH   2  14
TORSDOF 4
ENDMDL
MODEL 4
REMARK VINA RESULT:      -6.7      5.729      7.730
REMARK  Name = 
REMARK  5 active torsions:
REMARK  status: ('A' for Active; 'I' for Inactive)
REMARK    1  A    between atoms: C_1  and  C_2
REMARK    2  A    between atoms: C_2  and  C_13
REMARK    3  A    between atoms: N_3  and  N_4
REMARK    4  A    between atoms: C_5  and  C_7
REMARK    5  A    between atoms: N_15  and  C_16
REMARK                            x       y       z     vdW  Elec       q    Type
REMARK                         _______ _______ _______ _____ _____    ______ ____
ROOT
ATOM      1  C   UNL     1       1.845   5.621  20.520  0.00  0.00    +0.000 C 
ATOM      2  C   UNL     1       2.264   6.453  19.327  0.00  0.00    +0.000 C 
ATOM      3  N   UNL     1       2.118   7.741  19.175  0.00  0.00    +0.000 NA
ENDROOT
BRANCH   3   4
ATOM      4  N   UNL     1       1.481   8.441  20.173  0.00  0.00    +0.000 N 
ATOM      5  C   UNL     1       0.812   9.629  19.904  0.00  0.00    +0.000 C 
ATOM      6  O   UNL     1       0.723  10.154  18.801  0.00  0.00    +0.000 OA
ATOM      7  H   UNL     1       1.351   8.015  21.079  0.00  0.00    +0.000 HD
BRANCH   5   8
ATOM      8  C   UNL     1       0.139  10.266  21.078  0.00  0.00    +0.000 A 
ATOM      9  C   UNL     1      -0.321  11.587  21.056  0.00  0.00    +0.000 A 
ATOM     10  C   UNL     1      -0.937  12.084  22.193  0.00  0.00    +0.000 A 
ATOM     11  N   UNL     1      -1.118  11.367  23.322  0.00  0.00    +0.000 NA
ATOM     12  C   UNL     1      -0.685  10.088  23.313  0.00  0.00    +0.000 A 
ATOM     13  C   UNL     1      -0.060   9.497  22.227  0.00  0.00    +0.000 A 
ENDBRANCH   5   8
ENDBRANCH   3   4
BRANCH   2  14
ATOM     14  C   UNL     1       2.938   5.632  18.229  0.00  0.00    +0.000 C 
ATOM     15  O   UNL     1       2.408   4.556  17.967  0.00  0.00    +0.000 OA
ATOM     16  N   UNL     1       4.091   6.144  17.669  0.00  0.00    +0.000 N 
ATOM     17  H   UNL     1       4.464   6.990  18.093  0.00  0.00    +0.000 HD
BRANCH  16  18
ATOM     18  C   UNL     1       4.846   5.491  16.659  0.00  0.00    +0.000 A 
ATOM     19  C   UNL     1       5.218   6.128  15.463  0.00  0.00    +0.000 A 
ATOM     20  C   UNL     1       5.911   5.445  14.462  0.00  0.00    +0.000 A 
ATOM     21  C   UNL     1       6.242   4.115  14.652  0.00  0.00    +0.000 A 
ATOM     22  F   UNL     1       6.889   3.452  13.685  0.00  0.00    +0.000 F 
ATOM     23  C   UNL     1       5.911   3.465  15.836  0.00  0.00    +0.000 A 
ATOM     24  C   UNL     1       5.226   4.157  16.848  0.00  0.00    +0.000 A 
ENDBRANCH  16  18
ENDBRANCH   2  14
TORSDOF 4
ENDMDL
MODEL 5
REMARK VINA RESULT:      -6.7      6.171      7.835
REMARK  Name = 
REMARK  5 active torsions:
REMARK  status: ('A' for Active; 'I' for Inactive)
REMARK    1  A    between atoms: C_1  and  C_2
REMARK    2  A    between atoms: C_2  and  C_13
REMARK    3  A    between atoms: N_3  and  N_4
REMARK    4  A    between atoms: C_5  and  C_7
REMARK    5  A    between atoms: N_15  and  C_16
REMARK                            x       y       z     vdW  Elec       q    Type
REMARK                         _______ _______ _______ _____ _____    ______ ____
ROOT
ATOM      1  C   UNL     1       1.837   9.137  17.940  0.00  0.00    +0.000 C 
ATOM      2  C   UNL     1       1.909   8.174  19.106  0.00  0.00    +0.000 C 
ATOM      3  N   UNL     1       1.479   8.377  20.322  0.00  0.00    +0.000 NA
ENDROOT
BRANCH   3   4
ATOM      4  N   UNL     1       0.935   9.604  20.619  0.00  0.00    +0.000 N 
ATOM      5  C   UNL     1       0.186   9.799  21.773  0.00  0.00    +0.000 C 
ATOM      6  O   UNL     1      -0.057   8.938  22.610  0.00  0.00    +0.000 OA
ATOM      7  H   UNL     1       1.213  10.416  20.087  0.00  0.00    +0.000 HD
BRANCH   5   8
ATOM      8  C   UNL     1      -0.317  11.192  21.984  0.00  0.00    +0.000 A 
ATOM      9  C   UNL     1      -1.271  11.507  22.957  0.00  0.00    +0.000 A 
ATOM     10  C   UNL     1      -1.670  12.829  23.077  0.00  0.00    +0.000 A 
ATOM     11  N   UNL     1      -1.191  13.829  22.310  0.00  0.00    +0.000 NA
ATOM     12  C   UNL     1      -0.255  13.505  21.392  0.00  0.00    +0.000 A 
ATOM     13  C   UNL     1       0.211  12.216  21.194  0.00  0.00    +0.000 A 
ENDBRANCH   5   8
ENDBRANCH   3   4
BRANCH   2  14
ATOM     14  C   UNL     1       2.548   6.836  18.741  0.00  0.00    +0.000 C 
ATOM     15  O   UNL     1       3.418   6.879  17.876  0.00  0.00    +0.000 OA
ATOM     16  N   UNL     1       2.068   5.708  19.375  0.00  0.00    +0.000 N 
ATOM     17  H   UNL     1       1.255   5.835  19.973  0.00  0.00    +0.000 HD
BRANCH  16  18
ATOM     18  C   UNL     1       2.540   4.392  19.127  0.00  0.00    +0.000 A 
ATOM     19  C   UNL     1       3.652   3.850  19.793  0.00  0.00    +0.000 A 
ATOM     20  C   UNL     1       4.130   2.574  19.489  0.00  0.00    +0.000 A 
ATOM     21  C   UNL     1       3.494   1.825  18.515  0.00  0.00    +0.000 A 
ATOM     22  F   UNL     1       3.962   0.609  18.207  0.00  0.00    +0.000 F 
ATOM     23  C   UNL     1       2.374   2.323  17.858  0.00  0.00    +0.000 A 
ATOM     24  C   UNL     1       1.886   3.601  18.175  0.00  0.00    +0.000 A 
ENDBRANCH  16  18
ENDBRANCH   2  14
TORSDOF 4
ENDMDL
MODEL 6
REMARK VINA RESULT:      -6.7      6.211      7.795
REMARK  Name = 
REMARK  5 active torsions:
REMARK  status: ('A' for Active; 'I' for Inactive)
REMARK    1  A    between atoms: C_1  and  C_2
REMARK    2  A    between atoms: C_2  and  C_13
REMARK    3  A    between atoms: N_3  and  N_4
REMARK    4  A    between atoms: C_5  and  C_7
REMARK    5  A    between atoms: N_15  and  C_16
REMARK                            x       y       z     vdW  Elec       q    Type
REMARK                         _______ _______ _______ _____ _____    ______ ____
ROOT
ATOM      1  C   UNL     1       1.713   9.129  17.911  0.00  0.00    +0.000 C 
ATOM      2  C   UNL     1       1.873   8.210  19.104  0.00  0.00    +0.000 C 
ATOM      3  N   UNL     1       1.502   8.444  20.333  0.00  0.00    +0.000 NA
ENDROOT
BRANCH   3   4
ATOM      4  N   UNL     1       0.939   9.666  20.617  0.00  0.00    +0.000 N 
ATOM      5  C   UNL     1       0.289   9.897  21.824  0.00  0.00    +0.000 C 
ATOM      6  O   UNL     1       0.154   9.073  22.721  0.00  0.00    +0.000 OA
ATOM      7  H   UNL     1       1.137  10.458  20.023  0.00  0.00    +0.000 HD
BRANCH   5   8
ATOM      8  C   UNL     1      -0.248  11.280  22.009  0.00  0.00    +0.000 A 
ATOM      9  C   UNL     1       0.213  12.371  21.265  0.00  0.00    +0.000 A 
ATOM     10  C   UNL     1      -0.351  13.613  21.507  0.00  0.00    +0.000 A 
ATOM     11  N   UNL     1      -1.319  13.831  22.421  0.00  0.00    +0.000 NA
ATOM     12  C   UNL     1      -1.763  12.760  23.113  0.00  0.00    +0.000 A 
ATOM     13  C   UNL     1      -1.267  11.478  22.943  0.00  0.00    +0.000 A 
ENDBRANCH   5   8
ENDBRANCH   3   4
BRANCH   2  14
ATOM     14  C   UNL     1       2.531   6.878  18.751  0.00  0.00    +0.000 C 
ATOM     15  O   UNL     1       3.450   6.935  17.938  0.00  0.00    +0.000 OA
ATOM     16  N   UNL     1       2.013   5.739  19.334  0.00  0.00    +0.000 N 
ATOM     17  H   UNL     1       1.167   5.856  19.887  0.00  0.00    +0.000 HD
BRANCH  16  18
ATOM     18  C   UNL     1       2.497   4.426  19.089  0.00  0.00    +0.000 A 
ATOM     19  C   UNL     1       3.548   3.858  19.828  0.00  0.00    +0.000 A 
ATOM     20  C   UNL     1       4.043   2.587  19.528  0.00  0.00    +0.000 A 
ATOM     21  C   UNL     1       3.485   1.870  18.485  0.00  0.00    +0.000 A 
ATOM     22  F   UNL     1       3.970   0.660  18.182  0.00  0.00    +0.000 F 
ATOM     23  C   UNL     1       2.425   2.395  17.753  0.00  0.00    +0.000 A 
ATOM     24  C   UNL     1       1.920   3.667  18.064  0.00  0.00    +0.000 A 
ENDBRANCH  16  18
ENDBRANCH   2  14
TORSDOF 4
ENDMDL
MODEL 7
REMARK VINA RESULT:      -6.7      6.049      7.743
REMARK  Name = 
REMARK  5 active torsions:
REMARK  status: ('A' for Active; 'I' for Inactive)
REMARK    1  A    between atoms: C_1  and  C_2
REMARK    2  A    between atoms: C_2  and  C_13
REMARK    3  A    between atoms: N_3  and  N_4
REMARK    4  A    between atoms: C_5  and  C_7
REMARK    5  A    between atoms: N_15  and  C_16
REMARK                            x       y       z     vdW  Elec       q    Type
REMARK                         _______ _______ _______ _____ _____    ______ ____
ROOT
ATOM      1  C   UNL     1       1.989   9.469  17.838  0.00  0.00    +0.000 C 
ATOM      2  C   UNL     1       1.889   8.406  18.912  0.00  0.00    +0.000 C 
ATOM      3  N   UNL     1       1.305   8.515  20.074  0.00  0.00    +0.000 NA
ENDROOT
BRANCH   3   4
ATOM      4  N   UNL     1       0.747   9.727  20.407  0.00  0.00    +0.000 N 
ATOM      5  C   UNL     1       0.372  10.012  21.714  0.00  0.00    +0.000 C 
ATOM      6  O   UNL     1       0.494   9.249  22.665  0.00  0.00    +0.000 OA
ATOM      7  H   UNL     1       0.757  10.482  19.738  0.00  0.00    +0.000 HD
BRANCH   5   8
ATOM      8  C   UNL     1      -0.193  11.379  21.936  0.00  0.00    +0.000 A 
ATOM      9  C   UNL     1      -1.133  11.651  22.935  0.00  0.00    +0.000 A 
ATOM     10  C   UNL     1      -1.592  12.952  23.064  0.00  0.00    +0.000 A 
ATOM     11  N   UNL     1      -1.184  13.972  22.281  0.00  0.00    +0.000 NA
ATOM     12  C   UNL     1      -0.260  13.690  21.337  0.00  0.00    +0.000 A 
ATOM     13  C   UNL     1       0.262  12.425  21.129  0.00  0.00    +0.000 A 
ENDBRANCH   5   8
ENDBRANCH   3   4
BRANCH   2  14
ATOM     14  C   UNL     1       2.549   7.088  18.515  0.00  0.00    +0.000 C 
ATOM     15  O   UNL     1       3.418   7.165  17.651  0.00  0.00    +0.000 OA
ATOM     16  N   UNL     1       2.087   5.937  19.121  0.00  0.00    +0.000 N 
ATOM     17  H   UNL     1       1.272   6.038  19.722  0.00  0.00    +0.000 HD
BRANCH  16  18
ATOM     18  C   UNL     1       2.578   4.635  18.842  0.00  0.00    +0.000 A 
ATOM     19  C   UNL     1       2.017   3.813  17.850  0.00  0.00    +0.000 A 
ATOM     20  C   UNL     1       2.483   2.514  17.634  0.00  0.00    +0.000 A 
ATOM     21  C   UNL     1       3.520   2.028  18.409  0.00  0.00    +0.000 A 
ATOM     22  F   UNL     1       3.956   0.776  18.218  0.00  0.00    +0.000 F 
ATOM     23  C   UNL     1       4.114   2.827  19.380  0.00  0.00    +0.000 A 
ATOM     24  C   UNL     1       3.654   4.138  19.586  0.00  0.00    +0.000 A 
ENDBRANCH  16  18
ENDBRANCH   2  14
TORSDOF 4
ENDMDL
MODEL 8
REMARK VINA RESULT:      -6.6      6.184      8.477
REMARK  Name = 
REMARK  5 active torsions:
REMARK  status: ('A' for Active; 'I' for Inactive)
REMARK    1  A    between atoms: C_1  and  C_2
REMARK    2  A    between atoms: C_2  and  C_13
REMARK    3  A    between atoms: N_3  and  N_4
REMARK    4  A    between atoms: C_5  and  C_7
REMARK    5  A    between atoms: N_15  and  C_16
REMARK                            x       y       z     vdW  Elec       q    Type
REMARK                         _______ _______ _______ _____ _____    ______ ____
ROOT
ATOM      1  C   UNL     1       1.400   9.175  18.008  0.00  0.00    +0.000 C 
ATOM      2  C   UNL     1       1.806   8.329  19.197  0.00  0.00    +0.000 C 
ATOM      3  N   UNL     1       1.360   8.426  20.420  0.00  0.00    +0.000 NA
ENDROOT
BRANCH   3   4
ATOM      4  N   UNL     1       0.454   9.421  20.701  0.00  0.00    +0.000 N 
ATOM      5  C   UNL     1       0.382   9.993  21.966  0.00  0.00    +0.000 C 
ATOM      6  O   UNL     1       1.086   9.685  22.920  0.00  0.00    +0.000 OA
ATOM      7  H   UNL     1      -0.053   9.863  19.948  0.00  0.00    +0.000 HD
BRANCH   5   8
ATOM      8  C   UNL     1      -0.627  11.085  22.119  0.00  0.00    +0.000 A 
ATOM      9  C   UNL     1      -1.542  11.121  23.177  0.00  0.00    +0.000 A 
ATOM     10  C   UNL     1      -2.435  12.179  23.234  0.00  0.00    +0.000 A 
ATOM     11  N   UNL     1      -2.474  13.176  22.327  0.00  0.00    +0.000 NA
ATOM     12  C   UNL     1      -1.568  13.133  21.327  0.00  0.00    +0.000 A 
ATOM     13  C   UNL     1      -0.633  12.121  21.183  0.00  0.00    +0.000 A 
ENDBRANCH   5   8
ENDBRANCH   3   4
BRANCH   2  14
ATOM     14  C   UNL     1       2.836   7.258  18.848  0.00  0.00    +0.000 C 
ATOM     15  O   UNL     1       2.923   6.323  19.639  0.00  0.00    +0.000 OA
ATOM     16  N   UNL     1       3.599   7.454  17.714  0.00  0.00    +0.000 N 
ATOM     17  H   UNL     1       3.487   8.348  17.241  0.00  0.00    +0.000 HD
BRANCH  16  18
ATOM     18  C   UNL     1       4.614   6.565  17.271  0.00  0.00    +0.000 A 
ATOM     19  C   UNL     1       4.340   5.249  16.864  0.00  0.00    +0.000 A 
ATOM     20  C   UNL     1       5.363   4.377  16.487  0.00  0.00    +0.000 A 
ATOM     21  C   UNL     1       6.674   4.818  16.512  0.00  0.00    +0.000 A 
ATOM     22  F   UNL     1       7.659   3.978  16.170  0.00  0.00    +0.000 F 
ATOM     23  C   UNL     1       6.975   6.124  16.884  0.00  0.00    +0.000 A 
ATOM     24  C   UNL     1       5.943   7.004  17.249  0.00  0.00    +0.000 A 
ENDBRANCH  16  18
ENDBRANCH   2  14
TORSDOF 4
ENDMDL
MODEL 9
REMARK VINA RESULT:      -6.6      6.787      8.615
REMARK  Name = 
REMARK  5 active torsions:
REMARK  status: ('A' for Active; 'I' for Inactive)
REMARK    1  A    between atoms: C_1  and  C_2
REMARK    2  A    between atoms: C_2  and  C_13
REMARK    3  A    between atoms: N_3  and  N_4
REMARK    4  A    between atoms: C_5  and  C_7
REMARK    5  A    between atoms: N_15  and  C_16
REMARK                            x       y       z     vdW  Elec       q    Type
REMARK                         _______ _______ _______ _____ _____    ______ ____
ROOT
ATOM      1  C   UNL     1       1.090   9.727  18.680  0.00  0.00    +0.000 C 
ATOM      2  C   UNL     1       1.231   8.801  19.870  0.00  0.00    +0.000 C 
ATOM      3  N   UNL     1       0.724   8.967  21.061  0.00  0.00    +0.000 NA
ENDROOT
BRANCH   3   4
ATOM      4  N   UNL     1       0.013  10.118  21.307  0.00  0.00    +0.000 N 
ATOM      5  C   UNL     1      -0.270  10.526  22.605  0.00  0.00    +0.000 C 
ATOM      6  O   UNL     1       0.067   9.930  23.621  0.00  0.00    +0.000 OA
ATOM      7  H   UNL     1      -0.165  10.766  20.553  0.00  0.00    +0.000 HD
BRANCH   5   8
ATOM      8  C   UNL     1      -1.022  11.813  22.723  0.00  0.00    +0.000 A 
ATOM      9  C   UNL     1      -0.505  13.031  22.267  0.00  0.00    +0.000 A 
ATOM     10  C   UNL     1      -1.282  14.168  22.417  0.00  0.00    +0.000 A 
ATOM     11  N   UNL     1      -2.509  14.169  22.979  0.00  0.00    +0.000 NA
ATOM     12  C   UNL     1      -2.996  12.980  23.392  0.00  0.00    +0.000 A 
ATOM     13  C   UNL     1      -2.301  11.787  23.284  0.00  0.00    +0.000 A 
ENDBRANCH   5   8
ENDBRANCH   3   4
BRANCH   2  14
ATOM     14  C   UNL     1       2.053   7.551  19.563  0.00  0.00    +0.000 C 
ATOM     15  O   UNL     1       2.671   7.566  18.502  0.00  0.00    +0.000 OA
ATOM     16  N   UNL     1       1.994   6.513  20.470  0.00  0.00    +0.000 N 
ATOM     17  H   UNL     1       1.331   6.616  21.235  0.00  0.00    +0.000 HD
BRANCH  16  18
ATOM     18  C   UNL     1       2.679   5.278  20.316  0.00  0.00    +0.000 A 
ATOM     19  C   UNL     1       3.872   5.163  19.583  0.00  0.00    +0.000 A 
ATOM     20  C   UNL     1       4.494   3.927  19.399  0.00  0.00    +0.000 A 
ATOM     21  C   UNL     1       3.928   2.792  19.951  0.00  0.00    +0.000 A 
ATOM     22  F   UNL     1       4.511   1.603  19.759  0.00  0.00    +0.000 F 
ATOM     23  C   UNL     1       2.761   2.879  20.704  0.00  0.00    +0.000 A 
ATOM     24  C   UNL     1       2.144   4.124  20.901  0.00  0.00    +0.000 A 
ENDBRANCH  16  18
ENDBRANCH   2  14
TORSDOF 4
ENDMDL
