MODEL 1
REMARK VINA RESULT:      -8.6      0.000      0.000
REMARK  Name = 
REMARK  5 active torsions:
REMARK  status: ('A' for Active; 'I' for Inactive)
REMARK    1  A    between atoms: O_1  and  C_2
REMARK    2  A    between atoms: C_2  and  C_3
REMARK    3  A    between atoms: C_2  and  C_10
REMARK    4  A    between atoms: C_3  and  C_4
REMARK    5  A    between atoms: C_12  and  C_13
REMARK                            x       y       z     vdW  Elec       q    Type
REMARK                         _______ _______ _______ _____ _____    ______ ____
ROOT
ATOM      1  C   UNL     1       5.198   4.534  16.086  0.00  0.00    +0.000 A 
ATOM      2  C   UNL     1       5.748   5.479  16.969  0.00  0.00    +0.000 A 
ATOM      3  C   UNL     1       6.880   6.197  16.610  0.00  0.00    +0.000 A 
ATOM      4  N   UNL     1       7.466   6.027  15.395  0.00  0.00    +0.000 NA
ATOM      5  C   UNL     1       6.938   5.153  14.511  0.00  0.00    +0.000 A 
ATOM      6  C   UNL     1       7.558   4.973  13.273  0.00  0.00    +0.000 A 
ATOM      7  F   UNL     1       8.678   5.656  12.982  0.00  0.00    +0.000 F 
ATOM      8  C   UNL     1       7.074   4.094  12.307  0.00  0.00    +0.000 A 
ATOM      9  C   UNL     1       5.922   3.370  12.564  0.00  0.00    +0.000 A 
ATOM     10  C   UNL     1       5.280   3.515  13.795  0.00  0.00    +0.000 A 
ATOM     11  C   UNL     1       5.779   4.389  14.796  0.00  0.00    +0.000 A 
ENDROOT
BRANCH   3  12
ATOM     12  C   UNL     1       7.516   7.153  17.612  0.00  0.00    +0.000 C 
ATOM     13  F   UNL     1       8.444   7.985  17.048  0.00  0.00    +0.000 F 
ATOM     14  F   UNL     1       6.611   7.982  18.209  0.00  0.00    +0.000 F 
ATOM     15  F   UNL     1       8.173   6.517  18.623  0.00  0.00    +0.000 F 
ENDBRANCH   3  12
BRANCH   1  16
ATOM     16  C   UNL     1       4.060   3.657  16.586  0.00  0.00    +0.000 C 
BRANCH  16  17
ATOM     17  O   UNL     1       4.638   2.539  17.270  0.00  0.00    +0.000 OA
ATOM     18  H   UNL     1       4.592   2.727  18.224  0.00  0.00    +0.000 HD
ENDBRANCH  16  17
BRANCH  16  19
ATOM     19  C   UNL     1       3.104   4.381  17.546  0.00  0.00    +0.000 C 
BRANCH  19  20
ATOM     20  C   UNL     1       2.647   3.496  18.731  0.00  0.00    +0.000 C 
ATOM     21  C   UNL     1       1.324   3.986  19.345  0.00  0.00    +0.000 C 
ATOM     22  C   UNL     1       0.925   3.153  20.561  0.00  0.00    +0.000 C 
ATOM     23  C   UNL     1       2.069   3.084  21.563  0.00  0.00    +0.000 C 
ATOM     24  C   UNL     1       3.355   2.619  20.887  0.00  0.00    +0.000 C 
ATOM     25  N   UNL     1       3.705   3.485  19.758  0.00  0.00    +0.000 NA
ATOM     26  H   UNL     1       4.572   3.141  19.342  0.00  0.00    +0.000 HD
ENDBRANCH  19  20
ENDBRANCH  16  19
ENDBRANCH   1  16
TORSDOF 5
ENDMDL
MODEL 2
REMARK VINA RESULT:      -7.9      4.280      6.044
REMARK  Name = 
REMARK  5 active torsions:
REMARK  status: ('A' for Active; 'I' for Inactive)
REMARK    1  A    between atoms: O_1  and  C_2
REMARK    2  A    between atoms: C_2  and  C_3
REMARK    3  A    between atoms: C_2  and  C_10
REMARK    4  A    between atoms: C_3  and  C_4
REMARK    5  A    between atoms: C_12  and  C_13
REMARK                            x       y       z     vdW  Elec       q    Type
REMARK                         _______ _______ _______ _____ _____    ______ ____
ROOT
ATOM      1  C   UNL     1       2.955   5.869  18.121  0.00  0.00    +0.000 A 
ATOM      2  C   UNL     1       4.098   6.080  17.331  0.00  0.00    +0.000 A 
ATOM      3  C   UNL     1       4.837   5.001  16.867  0.00  0.00    +0.000 A 
ATOM      4  N   UNL     1       4.463   3.722  17.138  0.00  0.00    +0.000 NA
ATOM      5  C   UNL     1       3.348   3.488  17.864  0.00  0.00    +0.000 A 
ATOM      6  C   UNL     1       2.984   2.171  18.152  0.00  0.00    +0.000 A 
ATOM      7  F   UNL     1       3.751   1.156  17.720  0.00  0.00    +0.000 F 
ATOM      8  C   UNL     1       1.848   1.846  18.892  0.00  0.00    +0.000 A 
ATOM      9  C   UNL     1       1.028   2.860  19.356  0.00  0.00    +0.000 A 
ATOM     10  C   UNL     1       1.366   4.190  19.097  0.00  0.00    +0.000 A 
ATOM     11  C   UNL     1       2.534   4.532  18.367  0.00  0.00    +0.000 A 
ENDROOT
BRANCH   3  12
ATOM     12  C   UNL     1       6.121   5.247  16.085  0.00  0.00    +0.000 C 
ATOM     13  F   UNL     1       7.013   4.213  16.174  0.00  0.00    +0.000 F 
ATOM     14  F   UNL     1       5.910   5.420  14.749  0.00  0.00    +0.000 F 
ATOM     15  F   UNL     1       6.807   6.348  16.507  0.00  0.00    +0.000 F 
ENDBRANCH   3  12
BRANCH   1  16
ATOM     16  C   UNL     1       2.274   7.079  18.742  0.00  0.00    +0.000 C 
BRANCH  16  17
ATOM     17  O   UNL     1       2.742   7.199  20.091  0.00  0.00    +0.000 OA
ATOM     18  H   UNL     1       2.036   7.627  20.606  0.00  0.00    +0.000 HD
ENDBRANCH  16  17
BRANCH  16  19
ATOM     19  C   UNL     1       2.565   8.393  18.002  0.00  0.00    +0.000 C 
BRANCH  19  20
ATOM     20  C   UNL     1       1.509   9.491  18.275  0.00  0.00    +0.000 C 
ATOM     21  C   UNL     1       2.117  10.905  18.238  0.00  0.00    +0.000 C 
ATOM     22  C   UNL     1       1.083  11.973  18.587  0.00  0.00    +0.000 C 
ATOM     23  C   UNL     1       0.396  11.644  19.905  0.00  0.00    +0.000 C 
ATOM     24  C   UNL     1      -0.160  10.223  19.888  0.00  0.00    +0.000 C 
ATOM     25  N   UNL     1       0.890   9.245  19.591  0.00  0.00    +0.000 NA
ATOM     26  H   UNL     1       0.475   8.312  19.597  0.00  0.00    +0.000 HD
ENDBRANCH  19  20
ENDBRANCH  16  19
ENDBRANCH   1  16
TORSDOF 5
ENDMDL
MODEL 3
REMARK VINA RESULT:      -7.9      1.053      1.374
REMARK  Name = 
REMARK  5 active torsions:
REMARK  status: ('A' for Active; 'I' for Inactive)
REMARK    1  A    between atoms: O_1  and  C_2
REMARK    2  A    between atoms: C_2  and  C_3
REMARK    3  A    between atoms: C_2  and  C_10
REMARK    4  A    between atoms: C_3  and  C_4
REMARK    5  A    between atoms: C_12  and  C_13
REMARK                            x       y       z     vdW  Elec       q    Type
REMARK                         _______ _______ _______ _____ _____    ______ ____
ROOT
ATOM      1  C   UNL     1       5.205   3.993  16.116  0.00  0.00    +0.000 A 
ATOM      2  C   UNL     1       5.767   4.713  17.185  0.00  0.00    +0.000 A 
ATOM      3  C   UNL     1       6.913   5.472  16.992  0.00  0.00    +0.000 A 
ATOM      4  N   UNL     1       7.500   5.562  15.769  0.00  0.00    +0.000 NA
ATOM      5  C   UNL     1       6.962   4.912  14.715  0.00  0.00    +0.000 A 
ATOM      6  C   UNL     1       7.584   4.997  13.468  0.00  0.00    +0.000 A 
ATOM      7  F   UNL     1       8.716   5.708  13.334  0.00  0.00    +0.000 F 
ATOM      8  C   UNL     1       7.090   4.359  12.332  0.00  0.00    +0.000 A 
ATOM      9  C   UNL     1       5.924   3.616  12.424  0.00  0.00    +0.000 A 
ATOM     10  C   UNL     1       5.280   3.500  13.657  0.00  0.00    +0.000 A 
ATOM     11  C   UNL     1       5.790   4.124  14.825  0.00  0.00    +0.000 A 
ENDROOT
BRANCH   3  12
ATOM     12  C   UNL     1       7.560   6.175  18.179  0.00  0.00    +0.000 C 
ATOM     13  F   UNL     1       6.679   6.445  19.191  0.00  0.00    +0.000 F 
ATOM     14  F   UNL     1       8.553   5.441  18.759  0.00  0.00    +0.000 F 
ATOM     15  F   UNL     1       8.115   7.377  17.857  0.00  0.00    +0.000 F 
ENDBRANCH   3  12
BRANCH   1  16
ATOM     16  C   UNL     1       4.051   3.048  16.411  0.00  0.00    +0.000 C 
BRANCH  16  17
ATOM     17  O   UNL     1       4.458   2.179  17.474  0.00  0.00    +0.000 OA
ATOM     18  H   UNL     1       5.049   1.508  17.091  0.00  0.00    +0.000 HD
ENDBRANCH  16  17
BRANCH  16  19
ATOM     19  C   UNL     1       2.760   3.768  16.831  0.00  0.00    +0.000 C 
BRANCH  19  20
ATOM     20  C   UNL     1       2.521   3.744  18.360  0.00  0.00    +0.000 C 
ATOM     21  C   UNL     1       1.186   3.074  18.728  0.00  0.00    +0.000 C 
ATOM     22  C   UNL     1       0.925   3.127  20.232  0.00  0.00    +0.000 C 
ATOM     23  C   UNL     1       1.048   4.554  20.748  0.00  0.00    +0.000 C 
ATOM     24  C   UNL     1       2.378   5.171  20.326  0.00  0.00    +0.000 C 
ATOM     25  N   UNL     1       2.547   5.127  18.871  0.00  0.00    +0.000 NA
ATOM     26  H   UNL     1       3.444   5.555  18.636  0.00  0.00    +0.000 HD
ENDBRANCH  19  20
ENDBRANCH  16  19
ENDBRANCH   1  16
TORSDOF 5
ENDMDL
MODEL 4
REMARK VINA RESULT:      -7.9      4.355      6.161
REMARK  Name = 
REMARK  5 active torsions:
REMARK  status: ('A' for Active; 'I' for Inactive)
REMARK    1  A    between atoms: O_1  and  C_2
REMARK    2  A    between atoms: C_2  and  C_3
REMARK    3  A    between atoms: C_2  and  C_10
REMARK    4  A    between atoms: C_3  and  C_4
REMARK    5  A    between atoms: C_12  and  C_13
REMARK                            x       y       z     vdW  Elec       q    Type
REMARK                         _______ _______ _______ _____ _____    ______ ____
ROOT
ATOM      1  C   UNL     1       2.875   5.892  18.079  0.00  0.00    +0.000 A 
ATOM      2  C   UNL     1       4.038   6.110  17.320  0.00  0.00    +0.000 A 
ATOM      3  C   UNL     1       4.824   5.039  16.919  0.00  0.00    +0.000 A 
ATOM      4  N   UNL     1       4.478   3.759  17.223  0.00  0.00    +0.000 NA
ATOM      5  C   UNL     1       3.346   3.517  17.919  0.00  0.00    +0.000 A 
ATOM      6  C   UNL     1       3.011   2.200  18.242  0.00  0.00    +0.000 A 
ATOM      7  F   UNL     1       3.821   1.195  17.872  0.00  0.00    +0.000 F 
ATOM      8  C   UNL     1       1.860   1.867  18.954  0.00  0.00    +0.000 A 
ATOM      9  C   UNL     1       0.995   2.871  19.354  0.00  0.00    +0.000 A 
ATOM     10  C   UNL     1       1.303   4.201  19.059  0.00  0.00    +0.000 A 
ATOM     11  C   UNL     1       2.485   4.553  18.357  0.00  0.00    +0.000 A 
ENDROOT
BRANCH   3  12
ATOM     12  C   UNL     1       6.127   5.297  16.173  0.00  0.00    +0.000 C 
ATOM     13  F   UNL     1       6.755   6.447  16.567  0.00  0.00    +0.000 F 
ATOM     14  F   UNL     1       7.050   4.309  16.352  0.00  0.00    +0.000 F 
ATOM     15  F   UNL     1       5.961   5.423  14.826  0.00  0.00    +0.000 F 
ENDBRANCH   3  12
BRANCH   1  16
ATOM     16  C   UNL     1       2.139   7.102  18.633  0.00  0.00    +0.000 C 
BRANCH  16  17
ATOM     17  O   UNL     1       2.669   7.377  19.935  0.00  0.00    +0.000 OA
ATOM     18  H   UNL     1       1.915   7.555  20.524  0.00  0.00    +0.000 HD
ENDBRANCH  16  17
BRANCH  16  19
ATOM     19  C   UNL     1       2.288   8.361  17.766  0.00  0.00    +0.000 C 
BRANCH  19  20
ATOM     20  C   UNL     1       1.874   9.658  18.502  0.00  0.00    +0.000 C 
ATOM     21  C   UNL     1       0.357   9.725  18.752  0.00  0.00    +0.000 C 
ATOM     22  C   UNL     1      -0.049  11.043  19.408  0.00  0.00    +0.000 C 
ATOM     23  C   UNL     1       0.486  12.225  18.611  0.00  0.00    +0.000 C 
ATOM     24  C   UNL     1       1.986  12.085  18.373  0.00  0.00    +0.000 C 
ATOM     25  N   UNL     1       2.303  10.821  17.703  0.00  0.00    +0.000 NA
ATOM     26  H   UNL     1       3.313  10.775  17.559  0.00  0.00    +0.000 HD
ENDBRANCH  19  20
ENDBRANCH  16  19
ENDBRANCH   1  16
TORSDOF 5
ENDMDL
MODEL 5
REMARK VINA RESULT:      -7.7      5.131      6.567
REMARK  Name = 
REMARK  5 active torsions:
REMARK  status: ('A' for Active; 'I' for Inactive)
REMARK    1  A    between atoms: O_1  and  C_2
REMARK    2  A    between atoms: C_2  and  C_3
REMARK    3  A    between atoms: C_2  and  C_10
REMARK    4  A    between atoms: C_3  and  C_4
REMARK    5  A    between atoms: C_12  and  C_13
REMARK                            x       y       z     vdW  Elec       q    Type
REMARK                         _______ _______ _______ _____ _____    ______ ____
ROOT
ATOM      1  C   UNL     1       2.674   6.351  19.471  0.00  0.00    +0.000 A 
ATOM      2  C   UNL     1       2.236   5.269  20.254  0.00  0.00    +0.000 A 
ATOM      3  C   UNL     1       2.575   3.970  19.906  0.00  0.00    +0.000 A 
ATOM      4  N   UNL     1       3.355   3.712  18.822  0.00  0.00    +0.000 NA
ATOM      5  C   UNL     1       3.822   4.733  18.072  0.00  0.00    +0.000 A 
ATOM      6  C   UNL     1       4.608   4.455  16.951  0.00  0.00    +0.000 A 
ATOM      7  F   UNL     1       4.876   3.180  16.624  0.00  0.00    +0.000 F 
ATOM      8  C   UNL     1       5.129   5.452  16.129  0.00  0.00    +0.000 A 
ATOM      9  C   UNL     1       4.878   6.780  16.430  0.00  0.00    +0.000 A 
ATOM     10  C   UNL     1       4.087   7.096  17.536  0.00  0.00    +0.000 A 
ATOM     11  C   UNL     1       3.530   6.088  18.365  0.00  0.00    +0.000 A 
ENDROOT
BRANCH   3  12
ATOM     12  C   UNL     1       2.020   2.803  20.714  0.00  0.00    +0.000 C 
ATOM     13  F   UNL     1       0.820   3.082  21.309  0.00  0.00    +0.000 F 
ATOM     14  F   UNL     1       1.792   1.690  19.959  0.00  0.00    +0.000 F 
ATOM     15  F   UNL     1       2.841   2.412  21.730  0.00  0.00    +0.000 F 
ENDBRANCH   3  12
BRANCH   1  16
ATOM     16  C   UNL     1       2.144   7.738  19.796  0.00  0.00    +0.000 C 
BRANCH  16  17
ATOM     17  O   UNL     1       1.604   8.293  18.591  0.00  0.00    +0.000 OA
ATOM     18  H   UNL     1       2.350   8.467  17.992  0.00  0.00    +0.000 HD
ENDBRANCH  16  17
BRANCH  16  19
ATOM     19  C   UNL     1       1.048   7.739  20.872  0.00  0.00    +0.000 C 
BRANCH  19  20
ATOM     20  C   UNL     1       0.846   9.124  21.534  0.00  0.00    +0.000 C 
ATOM     21  C   UNL     1      -0.372   9.147  22.474  0.00  0.00    +0.000 C 
ATOM     22  C   UNL     1      -0.606  10.538  23.059  0.00  0.00    +0.000 C 
ATOM     23  C   UNL     1      -0.677  11.580  21.951  0.00  0.00    +0.000 C 
ATOM     24  C   UNL     1       0.543  11.487  21.039  0.00  0.00    +0.000 C 
ATOM     25  N   UNL     1       0.686  10.141  20.478  0.00  0.00    +0.000 NA
ATOM     26  H   UNL     1       1.508  10.128  19.872  0.00  0.00    +0.000 HD
ENDBRANCH  19  20
ENDBRANCH  16  19
ENDBRANCH   1  16
TORSDOF 5
ENDMDL
MODEL 6
REMARK VINA RESULT:      -7.7      1.342      1.700
REMARK  Name = 
REMARK  5 active torsions:
REMARK  status: ('A' for Active; 'I' for Inactive)
REMARK    1  A    between atoms: O_1  and  C_2
REMARK    2  A    between atoms: C_2  and  C_3
REMARK    3  A    between atoms: C_2  and  C_10
REMARK    4  A    between atoms: C_3  and  C_4
REMARK    5  A    between atoms: C_12  and  C_13
REMARK                            x       y       z     vdW  Elec       q    Type
REMARK                         _______ _______ _______ _____ _____    ______ ____
ROOT
ATOM      1  C   UNL     1       5.133   3.885  16.505  0.00  0.00    +0.000 A 
ATOM      2  C   UNL     1       5.768   4.501  17.598  0.00  0.00    +0.000 A 
ATOM      3  C   UNL     1       6.941   5.218  17.413  0.00  0.00    +0.000 A 
ATOM      4  N   UNL     1       7.489   5.367  16.177  0.00  0.00    +0.000 NA
ATOM      5  C   UNL     1       6.881   4.818  15.103  0.00  0.00    +0.000 A 
ATOM      6  C   UNL     1       7.462   4.962  13.841  0.00  0.00    +0.000 A 
ATOM      7  F   UNL     1       8.622   5.628  13.712  0.00  0.00    +0.000 F 
ATOM      8  C   UNL     1       6.896   4.429  12.685  0.00  0.00    +0.000 A 
ATOM      9  C   UNL     1       5.701   3.737  12.771  0.00  0.00    +0.000 A 
ATOM     10  C   UNL     1       5.096   3.563  14.017  0.00  0.00    +0.000 A 
ATOM     11  C   UNL     1       5.677   4.080  15.205  0.00  0.00    +0.000 A 
ENDROOT
BRANCH   3  12
ATOM     12  C   UNL     1       7.664   5.805  18.619  0.00  0.00    +0.000 C 
ATOM     13  F   UNL     1       8.728   5.048  19.031  0.00  0.00    +0.000 F 
ATOM     14  F   UNL     1       8.181   7.045  18.383  0.00  0.00    +0.000 F 
ATOM     15  F   UNL     1       6.867   5.929  19.718  0.00  0.00    +0.000 F 
ENDBRANCH   3  12
BRANCH   1  16
ATOM     16  C   UNL     1       3.946   2.975  16.780  0.00  0.00    +0.000 C 
BRANCH  16  17
ATOM     17  O   UNL     1       4.283   2.141  17.895  0.00  0.00    +0.000 OA
ATOM     18  H   UNL     1       5.250   2.033  17.894  0.00  0.00    +0.000 HD
ENDBRANCH  16  17
BRANCH  16  19
ATOM     19  C   UNL     1       2.653   3.736  17.108  0.00  0.00    +0.000 C 
BRANCH  19  20
ATOM     20  C   UNL     1       2.659   4.363  18.523  0.00  0.00    +0.000 C 
ATOM     21  C   UNL     1       1.538   3.797  19.413  0.00  0.00    +0.000 C 
ATOM     22  C   UNL     1       1.505   4.480  20.779  0.00  0.00    +0.000 C 
ATOM     23  C   UNL     1       1.448   5.993  20.622  0.00  0.00    +0.000 C 
ATOM     24  C   UNL     1       2.565   6.486  19.708  0.00  0.00    +0.000 C 
ATOM     25  N   UNL     1       2.515   5.825  18.401  0.00  0.00    +0.000 NA
ATOM     26  H   UNL     1       3.274   6.190  17.823  0.00  0.00    +0.000 HD
ENDBRANCH  19  20
ENDBRANCH  16  19
ENDBRANCH   1  16
TORSDOF 5
ENDMDL
MODEL 7
REMARK VINA RESULT:      -7.7      3.462      7.204
REMARK  Name = 
REMARK  5 active torsions:
REMARK  status: ('A' for Active; 'I' for Inactive)
REMARK    1  A    between atoms: O_1  and  C_2
REMARK    2  A    between atoms: C_2  and  C_3
REMARK    3  A    between atoms: C_2  and  C_10
REMARK    4  A    between atoms: C_3  and  C_4
REMARK    5  A    between atoms: C_12  and  C_13
REMARK                            x       y       z     vdW  Elec       q    Type
REMARK                         _______ _______ _______ _____ _____    ______ ____
ROOT
ATOM      1  C   UNL     1       4.133   5.834  17.549  0.00  0.00    +0.000 A 
ATOM      2  C   UNL     1       4.189   4.562  18.144  0.00  0.00    +0.000 A 
ATOM      3  C   UNL     1       3.471   4.298  19.302  0.00  0.00    +0.000 A 
ATOM      4  N   UNL     1       2.680   5.245  19.871  0.00  0.00    +0.000 NA
ATOM      5  C   UNL     1       2.577   6.465  19.302  0.00  0.00    +0.000 A 
ATOM      6  C   UNL     1       1.775   7.437  19.905  0.00  0.00    +0.000 A 
ATOM      7  F   UNL     1       1.131   7.153  21.050  0.00  0.00    +0.000 F 
ATOM      8  C   UNL     1       1.615   8.717  19.379  0.00  0.00    +0.000 A 
ATOM      9  C   UNL     1       2.260   9.052  18.200  0.00  0.00    +0.000 A 
ATOM     10  C   UNL     1       3.078   8.110  17.574  0.00  0.00    +0.000 A 
ATOM     11  C   UNL     1       3.269   6.812  18.115  0.00  0.00    +0.000 A 
ENDROOT
BRANCH   3  12
ATOM     12  C   UNL     1       3.611   2.942  19.983  0.00  0.00    +0.000 C 
ATOM     13  F   UNL     1       3.069   1.915  19.257  0.00  0.00    +0.000 F 
ATOM     14  F   UNL     1       4.909   2.580  20.193  0.00  0.00    +0.000 F 
ATOM     15  F   UNL     1       2.998   2.883  21.199  0.00  0.00    +0.000 F 
ENDBRANCH   3  12
BRANCH   1  16
ATOM     16  C   UNL     1       5.062   6.125  16.381  0.00  0.00    +0.000 C 
BRANCH  16  17
ATOM     17  O   UNL     1       6.016   7.102  16.813  0.00  0.00    +0.000 OA
ATOM     18  H   UNL     1       6.542   7.359  16.036  0.00  0.00    +0.000 HD
ENDBRANCH  16  17
BRANCH  16  19
ATOM     19  C   UNL     1       5.819   4.888  15.876  0.00  0.00    +0.000 C 
BRANCH  19  20
ATOM     20  C   UNL     1       6.047   4.898  14.345  0.00  0.00    +0.000 C 
ATOM     21  C   UNL     1       5.626   3.571  13.687  0.00  0.00    +0.000 C 
ATOM     22  C   UNL     1       5.929   3.565  12.190  0.00  0.00    +0.000 C 
ATOM     23  C   UNL     1       7.384   3.933  11.935  0.00  0.00    +0.000 C 
ATOM     24  C   UNL     1       7.744   5.239  12.635  0.00  0.00    +0.000 C 
ATOM     25  N   UNL     1       7.471   5.165  14.073  0.00  0.00    +0.000 NA
ATOM     26  H   UNL     1       7.733   6.055  14.499  0.00  0.00    +0.000 HD
ENDBRANCH  19  20
ENDBRANCH  16  19
ENDBRANCH   1  16
TORSDOF 5
ENDMDL
MODEL 8
REMARK VINA RESULT:      -7.6      4.730      6.744
REMARK  Name = 
REMARK  5 active torsions:
REMARK  status: ('A' for Active; 'I' for Inactive)
REMARK    1  A    between atoms: O_1  and  C_2
REMARK    2  A    between atoms: C_2  and  C_3
REMARK    3  A    between atoms: C_2  and  C_10
REMARK    4  A    between atoms: C_3  and  C_4
REMARK    5  A    between atoms: C_12  and  C_13
REMARK                            x       y       z     vdW  Elec       q    Type
REMARK                         _______ _______ _______ _____ _____    ______ ____
ROOT
ATOM      1  C   UNL     1       2.631   6.598  18.883  0.00  0.00    +0.000 A 
ATOM      2  C   UNL     1       3.604   6.825  17.893  0.00  0.00    +0.000 A 
ATOM      3  C   UNL     1       4.559   5.858  17.615  0.00  0.00    +0.000 A 
ATOM      4  N   UNL     1       4.563   4.664  18.266  0.00  0.00    +0.000 NA
ATOM      5  C   UNL     1       3.618   4.402  19.195  0.00  0.00    +0.000 A 
ATOM      6  C   UNL     1       3.643   3.180  19.870  0.00  0.00    +0.000 A 
ATOM      7  F   UNL     1       4.611   2.288  19.601  0.00  0.00    +0.000 F 
ATOM      8  C   UNL     1       2.704   2.834  20.839  0.00  0.00    +0.000 A 
ATOM      9  C   UNL     1       1.687   3.722  21.147  0.00  0.00    +0.000 A 
ATOM     10  C   UNL     1       1.637   4.958  20.501  0.00  0.00    +0.000 A 
ATOM     11  C   UNL     1       2.604   5.331  19.531  0.00  0.00    +0.000 A 
ENDROOT
BRANCH   3  12
ATOM     12  C   UNL     1       5.659   6.154  16.603  0.00  0.00    +0.000 C 
ATOM     13  F   UNL     1       6.423   7.238  16.939  0.00  0.00    +0.000 F 
ATOM     14  F   UNL     1       6.544   5.126  16.458  0.00  0.00    +0.000 F 
ATOM     15  F   UNL     1       5.183   6.424  15.354  0.00  0.00    +0.000 F 
ENDBRANCH   3  12
BRANCH   1  16
ATOM     16  C   UNL     1       1.711   7.746  19.267  0.00  0.00    +0.000 C 
BRANCH  16  17
ATOM     17  O   UNL     1       2.068   8.168  20.589  0.00  0.00    +0.000 OA
ATOM     18  H   UNL     1       2.788   8.816  20.502  0.00  0.00    +0.000 HD
ENDBRANCH  16  17
BRANCH  16  19
ATOM     19  C   UNL     1       1.809   8.953  18.322  0.00  0.00    +0.000 C 
BRANCH  19  20
ATOM     20  C   UNL     1       1.087  10.209  18.865  0.00  0.00    +0.000 C 
ATOM     21  C   UNL     1      -0.430  10.163  18.610  0.00  0.00    +0.000 C 
ATOM     22  C   UNL     1      -1.120  11.443  19.079  0.00  0.00    +0.000 C 
ATOM     23  C   UNL     1      -0.442  12.668  18.480  0.00  0.00    +0.000 C 
ATOM     24  C   UNL     1       1.060  12.640  18.742  0.00  0.00    +0.000 C 
ATOM     25  N   UNL     1       1.667  11.408  18.231  0.00  0.00    +0.000 NA
ATOM     26  H   UNL     1       2.670  11.436  18.422  0.00  0.00    +0.000 HD
ENDBRANCH  19  20
ENDBRANCH  16  19
ENDBRANCH   1  16
TORSDOF 5
ENDMDL
MODEL 9
REMARK VINA RESULT:      -7.5      4.311      6.199
REMARK  Name = 
REMARK  5 active torsions:
REMARK  status: ('A' for Active; 'I' for Inactive)
REMARK    1  A    between atoms: O_1  and  C_2
REMARK    2  A    between atoms: C_2  and  C_3
REMARK    3  A    between atoms: C_2  and  C_10
REMARK    4  A    between atoms: C_3  and  C_4
REMARK    5  A    between atoms: C_12  and  C_13
REMARK                            x       y       z     vdW  Elec       q    Type
REMARK                         _______ _______ _______ _____ _____    ______ ____
ROOT
ATOM      1  C   UNL     1       2.688   5.979  18.412  0.00  0.00    +0.000 A 
ATOM      2  C   UNL     1       3.721   6.210  17.487  0.00  0.00    +0.000 A 
ATOM      3  C   UNL     1       4.409   5.144  16.925  0.00  0.00    +0.000 A 
ATOM      4  N   UNL     1       4.089   3.859  17.231  0.00  0.00    +0.000 NA
ATOM      5  C   UNL     1       3.077   3.605  18.088  0.00  0.00    +0.000 A 
ATOM      6  C   UNL     1       2.768   2.281  18.409  0.00  0.00    +0.000 A 
ATOM      7  F   UNL     1       3.488   1.280  17.876  0.00  0.00    +0.000 F 
ATOM      8  C   UNL     1       1.738   1.936  19.282  0.00  0.00    +0.000 A 
ATOM      9  C   UNL     1       0.969   2.936  19.853  0.00  0.00    +0.000 A 
ATOM     10  C   UNL     1       1.256   4.272  19.564  0.00  0.00    +0.000 A 
ATOM     11  C   UNL     1       2.319   4.635  18.697  0.00  0.00    +0.000 A 
ENDROOT
BRANCH   3  12
ATOM     12  C   UNL     1       5.583   5.414  15.992  0.00  0.00    +0.000 C 
ATOM     13  F   UNL     1       6.631   6.040  16.610  0.00  0.00    +0.000 F 
ATOM     14  F   UNL     1       6.115   4.276  15.459  0.00  0.00    +0.000 F 
ATOM     15  F   UNL     1       5.261   6.213  14.936  0.00  0.00    +0.000 F 
ENDBRANCH   3  12
BRANCH   1  16
ATOM     16  C   UNL     1       2.076   7.175  19.123  0.00  0.00    +0.000 C 
BRANCH  16  17
ATOM     17  O   UNL     1       2.701   7.288  20.407  0.00  0.00    +0.000 OA
ATOM     18  H   UNL     1       3.351   6.568  20.478  0.00  0.00    +0.000 HD
ENDBRANCH  16  17
BRANCH  16  19
ATOM     19  C   UNL     1       2.261   8.499  18.367  0.00  0.00    +0.000 C 
BRANCH  19  20
ATOM     20  C   UNL     1       1.348   9.632  18.892  0.00  0.00    +0.000 C 
ATOM     21  C   UNL     1       0.622   9.238  20.191  0.00  0.00    +0.000 C 
ATOM     22  C   UNL     1      -0.335  10.334  20.656  0.00  0.00    +0.000 C 
ATOM     23  C   UNL     1      -1.281  10.733  19.532  0.00  0.00    +0.000 C 
ATOM     24  C   UNL     1      -0.502  11.084  18.267  0.00  0.00    +0.000 C 
ATOM     25  N   UNL     1       0.363   9.977  17.851  0.00  0.00    +0.000 NA
ATOM     26  H   UNL     1       0.857  10.254  17.001  0.00  0.00    +0.000 HD
ENDBRANCH  19  20
ENDBRANCH  16  19
ENDBRANCH   1  16
TORSDOF 5
ENDMDL
