MODEL 1
REMARK VINA RESULT:      -7.4      0.000      0.000
REMARK  Name = 
REMARK  11 active torsions:
REMARK  status: ('A' for Active; 'I' for Inactive)
REMARK    1  A    between atoms: C_1  and  O_2
REMARK    2  A    between atoms: O_2  and  C_3
REMARK    3  A    between atoms: C_6  and  N_7
REMARK    4  A    between atoms: C_9  and  C_10
REMARK    5  A    between atoms: C_13  and  C_14
REMARK    6  A    between atoms: C_14  and  O_16
REMARK    7  A    between atoms: C_17  and  C_18
REMARK    8  A    between atoms: C_18  and  O_19
REMARK    9  A    between atoms: C_23  and  C_24
REMARK   10  A    between atoms: C_27  and  C_28
REMARK   11  A    between atoms: C_28  and  O_30
REMARK                            x       y       z     vdW  Elec       q    Type
REMARK                         _______ _______ _______ _____ _____    ______ ____
ROOT
ATOM      1  N   UNL     1      -1.317  11.168  18.356  0.00  0.00    +0.000 N 
ATOM      2  C   UNL     1      -0.776   9.899  18.484  0.00  0.00    +0.000 A 
ATOM      3  C   UNL     1       0.590   9.990  18.641  0.00  0.00    +0.000 A 
ATOM      4  C   UNL     1       0.904  11.374  18.606  0.00  0.00    +0.000 A 
ATOM      5  C   UNL     1       2.089  12.109  18.739  0.00  0.00    +0.000 A 
ATOM      6  C   UNL     1       2.056  13.505  18.731  0.00  0.00    +0.000 A 
ATOM      7  C   UNL     1       0.802  14.085  18.531  0.00  0.00    +0.000 A 
ATOM      8  N   UNL     1      -0.379  13.437  18.363  0.00  0.00    +0.000 NA
ATOM      9  C   UNL     1      -0.276  12.089  18.410  0.00  0.00    +0.000 A 
ENDROOT
BRANCH   1  13
ATOM     10  C   UNL     1      -5.424  12.009  17.887  0.00  0.00    +0.000 A 
ATOM     11  C   UNL     1      -4.684  11.503  16.821  0.00  0.00    +0.000 A 
ATOM     12  C   UNL     1      -3.327  11.214  16.981  0.00  0.00    +0.000 A 
ATOM     13  C   UNL     1      -2.704  11.438  18.217  0.00  0.00    +0.000 A 
ATOM     14  C   UNL     1      -3.447  11.940  19.288  0.00  0.00    +0.000 A 
ATOM     15  C   UNL     1      -4.802  12.241  19.113  0.00  0.00    +0.000 A 
BRANCH  10  17
ATOM     16  C   UNL     1      -6.990  13.541  17.016  0.00  0.00    +0.000 C 
ATOM     17  O   UNL     1      -6.739  12.272  17.611  0.00  0.00    +0.000 OA
ENDBRANCH  10  17
ENDBRANCH   1  13
BRANCH   3  18
ATOM     18  C   UNL     1       1.461   8.840  18.839  0.00  0.00    +0.000 A 
ATOM     19  C   UNL     1       1.413   8.101  20.011  0.00  0.00    +0.000 A 
ATOM     20  C   UNL     1       2.265   7.006  20.180  0.00  0.00    +0.000 A 
ATOM     21  C   UNL     1       3.182   6.586  19.186  0.00  0.00    +0.000 A 
ATOM     22  C   UNL     1       3.258   7.349  17.999  0.00  0.00    +0.000 A 
ATOM     23  C   UNL     1       2.380   8.456  17.851  0.00  0.00    +0.000 A 
BRANCH  21  24
ATOM     24  C   UNL     1       3.943   5.338  19.553  0.00  0.00    +0.000 C 
ATOM     25  O   UNL     1       3.350   4.271  19.711  0.00  0.00    +0.000 OA
BRANCH  24  26
ATOM     26  O   UNL     1       5.278   5.372  19.655  0.00  0.00    +0.000 OA
ATOM     27  H   UNL     1       5.646   5.756  20.480  0.00  0.00    +0.000 HD
ENDBRANCH  24  26
ENDBRANCH  21  24
BRANCH  22  28
ATOM     28  C   UNL     1       4.157   7.082  16.823  0.00  0.00    +0.000 C 
BRANCH  28  29
ATOM     29  O   UNL     1       5.523   7.057  17.210  0.00  0.00    +0.000 OA
ATOM     30  H   UNL     1       5.872   7.963  17.099  0.00  0.00    +0.000 HD
ENDBRANCH  28  29
ENDBRANCH  22  28
ENDBRANCH   3  18
BRANCH   6  31
ATOM     31  C   UNL     1       3.290  14.271  18.978  0.00  0.00    +0.000 A 
ATOM     32  C   UNL     1       4.146  14.619  17.915  0.00  0.00    +0.000 A 
ATOM     33  C   UNL     1       5.357  15.276  18.139  0.00  0.00    +0.000 A 
ATOM     34  C   UNL     1       5.729  15.632  19.437  0.00  0.00    +0.000 A 
ATOM     35  C   UNL     1       4.891  15.312  20.506  0.00  0.00    +0.000 A 
ATOM     36  C   UNL     1       3.690  14.628  20.276  0.00  0.00    +0.000 A 
BRANCH  34  37
ATOM     37  C   UNL     1       6.987  16.404  19.591  0.00  0.00    +0.000 C 
ATOM     38  O   UNL     1       7.887  16.039  20.330  0.00  0.00    +0.000 OA
BRANCH  37  39
ATOM     39  O   UNL     1       7.043  17.551  18.885  0.00  0.00    +0.000 OA
ATOM     40  H   UNL     1       7.614  18.251  19.246  0.00  0.00    +0.000 HD
ENDBRANCH  37  39
ENDBRANCH  34  37
ENDBRANCH   6  31
TORSDOF 10
ENDMDL
MODEL 2
REMARK VINA RESULT:      -7.3      2.390      3.173
REMARK  Name = 
REMARK  11 active torsions:
REMARK  status: ('A' for Active; 'I' for Inactive)
REMARK    1  A    between atoms: C_1  and  O_2
REMARK    2  A    between atoms: O_2  and  C_3
REMARK    3  A    between atoms: C_6  and  N_7
REMARK    4  A    between atoms: C_9  and  C_10
REMARK    5  A    between atoms: C_13  and  C_14
REMARK    6  A    between atoms: C_14  and  O_16
REMARK    7  A    between atoms: C_17  and  C_18
REMARK    8  A    between atoms: C_18  and  O_19
REMARK    9  A    between atoms: C_23  and  C_24
REMARK   10  A    between atoms: C_27  and  C_28
REMARK   11  A    between atoms: C_28  and  O_30
REMARK                            x       y       z     vdW  Elec       q    Type
REMARK                         _______ _______ _______ _____ _____    ______ ____
ROOT
ATOM      1  N   UNL     1      -0.959  11.929  20.973  0.00  0.00    +0.000 N 
ATOM      2  C   UNL     1      -0.625  10.645  20.571  0.00  0.00    +0.000 A 
ATOM      3  C   UNL     1       0.607  10.658  19.952  0.00  0.00    +0.000 A 
ATOM      4  C   UNL     1       1.047  12.007  19.970  0.00  0.00    +0.000 A 
ATOM      5  C   UNL     1       2.208  12.660  19.534  0.00  0.00    +0.000 A 
ATOM      6  C   UNL     1       2.378  14.026  19.770  0.00  0.00    +0.000 A 
ATOM      7  C   UNL     1       1.313  14.674  20.400  0.00  0.00    +0.000 A 
ATOM      8  N   UNL     1       0.150  14.114  20.818  0.00  0.00    +0.000 NA
ATOM      9  C   UNL     1       0.066  12.783  20.583  0.00  0.00    +0.000 A 
ENDROOT
BRANCH   1  13
ATOM     10  C   UNL     1      -4.486  12.861  23.092  0.00  0.00    +0.000 A 
ATOM     11  C   UNL     1      -3.364  12.383  23.768  0.00  0.00    +0.000 A 
ATOM     12  C   UNL     1      -2.194  12.086  23.067  0.00  0.00    +0.000 A 
ATOM     13  C   UNL     1      -2.146  12.264  21.677  0.00  0.00    +0.000 A 
ATOM     14  C   UNL     1      -3.267  12.749  20.999  0.00  0.00    +0.000 A 
ATOM     15  C   UNL     1      -4.440  13.029  21.708  0.00  0.00    +0.000 A 
BRANCH  10  17
ATOM     16  C   UNL     1      -6.763  13.463  23.172  0.00  0.00    +0.000 C 
ATOM     17  O   UNL     1      -5.580  13.102  23.877  0.00  0.00    +0.000 OA
ENDBRANCH  10  17
ENDBRANCH   1  13
BRANCH   3  18
ATOM     18  C   UNL     1       1.269   9.466  19.442  0.00  0.00    +0.000 A 
ATOM     19  C   UNL     1       1.778   9.429  18.152  0.00  0.00    +0.000 A 
ATOM     20  C   UNL     1       2.403   8.270  17.682  0.00  0.00    +0.000 A 
ATOM     21  C   UNL     1       2.569   7.111  18.479  0.00  0.00    +0.000 A 
ATOM     22  C   UNL     1       2.030   7.130  19.785  0.00  0.00    +0.000 A 
ATOM     23  C   UNL     1       1.402   8.320  20.239  0.00  0.00    +0.000 A 
BRANCH  21  24
ATOM     24  C   UNL     1       3.338   6.012  17.793  0.00  0.00    +0.000 C 
ATOM     25  O   UNL     1       2.899   4.863  17.772  0.00  0.00    +0.000 OA
BRANCH  24  26
ATOM     26  O   UNL     1       4.481   6.292  17.152  0.00  0.00    +0.000 OA
ATOM     27  H   UNL     1       4.502   7.126  16.636  0.00  0.00    +0.000 HD
ENDBRANCH  24  26
ENDBRANCH  21  24
BRANCH  22  28
ATOM     28  C   UNL     1       2.094   6.014  20.792  0.00  0.00    +0.000 C 
BRANCH  28  29
ATOM     29  O   UNL     1       1.279   4.918  20.402  0.00  0.00    +0.000 OA
ATOM     30  H   UNL     1       0.354   5.234  20.392  0.00  0.00    +0.000 HD
ENDBRANCH  28  29
ENDBRANCH  22  28
ENDBRANCH   3  18
BRANCH   6  31
ATOM     31  C   UNL     1       3.644  14.683  19.405  0.00  0.00    +0.000 A 
ATOM     32  C   UNL     1       4.134  14.621  18.085  0.00  0.00    +0.000 A 
ATOM     33  C   UNL     1       5.369  15.171  17.739  0.00  0.00    +0.000 A 
ATOM     34  C   UNL     1       6.137  15.827  18.703  0.00  0.00    +0.000 A 
ATOM     35  C   UNL     1       5.668  15.916  20.015  0.00  0.00    +0.000 A 
ATOM     36  C   UNL     1       4.438  15.338  20.361  0.00  0.00    +0.000 A 
BRANCH  34  37
ATOM     37  C   UNL     1       7.397  16.462  18.245  0.00  0.00    +0.000 C 
ATOM     38  O   UNL     1       7.641  17.641  18.446  0.00  0.00    +0.000 OA
BRANCH  37  39
ATOM     39  O   UNL     1       8.230  15.651  17.563  0.00  0.00    +0.000 OA
ATOM     40  H   UNL     1       8.964  16.085  17.095  0.00  0.00    +0.000 HD
ENDBRANCH  37  39
ENDBRANCH  34  37
ENDBRANCH   6  31
TORSDOF 10
ENDMDL
MODEL 3
REMARK VINA RESULT:      -7.3      3.997      7.440
REMARK  Name = 
REMARK  11 active torsions:
REMARK  status: ('A' for Active; 'I' for Inactive)
REMARK    1  A    between atoms: C_1  and  O_2
REMARK    2  A    between atoms: O_2  and  C_3
REMARK    3  A    between atoms: C_6  and  N_7
REMARK    4  A    between atoms: C_9  and  C_10
REMARK    5  A    between atoms: C_13  and  C_14
REMARK    6  A    between atoms: C_14  and  O_16
REMARK    7  A    between atoms: C_17  and  C_18
REMARK    8  A    between atoms: C_18  and  O_19
REMARK    9  A    between atoms: C_23  and  C_24
REMARK   10  A    between atoms: C_27  and  C_28
REMARK   11  A    between atoms: C_28  and  O_30
REMARK                            x       y       z     vdW  Elec       q    Type
REMARK                         _______ _______ _______ _____ _____    ______ ____
ROOT
ATOM      1  N   UNL     1      -0.453  11.544  20.725  0.00  0.00    +0.000 N 
ATOM      2  C   UNL     1       0.578  10.618  20.683  0.00  0.00    +0.000 A 
ATOM      3  C   UNL     1       0.468   9.855  19.540  0.00  0.00    +0.000 A 
ATOM      4  C   UNL     1      -0.680  10.328  18.853  0.00  0.00    +0.000 A 
ATOM      5  C   UNL     1      -1.297   9.995  17.640  0.00  0.00    +0.000 A 
ATOM      6  C   UNL     1      -2.405  10.717  17.192  0.00  0.00    +0.000 A 
ATOM      7  C   UNL     1      -2.863  11.723  18.045  0.00  0.00    +0.000 A 
ATOM      8  N   UNL     1      -2.337  12.078  19.245  0.00  0.00    +0.000 NA
ATOM      9  C   UNL     1      -1.250  11.355  19.602  0.00  0.00    +0.000 A 
ENDROOT
BRANCH   1  13
ATOM     10  C   UNL     1      -1.006  14.425  23.757  0.00  0.00    +0.000 A 
ATOM     11  C   UNL     1      -1.696  13.215  23.802  0.00  0.00    +0.000 A 
ATOM     12  C   UNL     1      -1.503  12.258  22.804  0.00  0.00    +0.000 A 
ATOM     13  C   UNL     1      -0.616  12.514  21.750  0.00  0.00    +0.000 A 
ATOM     14  C   UNL     1       0.081  13.725  21.707  0.00  0.00    +0.000 A 
ATOM     15  C   UNL     1      -0.131  14.684  22.703  0.00  0.00    +0.000 A 
BRANCH  10  17
ATOM     16  C   UNL     1      -2.662  15.382  25.135  0.00  0.00    +0.000 C 
ATOM     17  O   UNL     1      -1.287  15.294  24.777  0.00  0.00    +0.000 OA
ENDBRANCH  10  17
ENDBRANCH   1  13
BRANCH   3  18
ATOM     18  C   UNL     1       1.414   8.811  19.170  0.00  0.00    +0.000 A 
ATOM     19  C   UNL     1       2.196   8.928  18.030  0.00  0.00    +0.000 A 
ATOM     20  C   UNL     1       3.091   7.910  17.692  0.00  0.00    +0.000 A 
ATOM     21  C   UNL     1       3.263   6.746  18.480  0.00  0.00    +0.000 A 
ATOM     22  C   UNL     1       2.452   6.604  19.627  0.00  0.00    +0.000 A 
ATOM     23  C   UNL     1       1.552   7.655  19.951  0.00  0.00    +0.000 A 
BRANCH  21  24
ATOM     24  C   UNL     1       4.335   5.820  17.965  0.00  0.00    +0.000 C 
ATOM     25  O   UNL     1       4.046   4.693  17.566  0.00  0.00    +0.000 OA
BRANCH  24  26
ATOM     26  O   UNL     1       5.604   6.242  17.886  0.00  0.00    +0.000 OA
ATOM     27  H   UNL     1       6.300   5.551  17.924  0.00  0.00    +0.000 HD
ENDBRANCH  24  26
ENDBRANCH  21  24
BRANCH  22  28
ATOM     28  C   UNL     1       2.471   5.455  20.598  0.00  0.00    +0.000 C 
BRANCH  28  29
ATOM     29  O   UNL     1       2.040   4.250  19.982  0.00  0.00    +0.000 OA
ATOM     30  H   UNL     1       1.895   3.596  20.694  0.00  0.00    +0.000 HD
ENDBRANCH  28  29
ENDBRANCH  22  28
ENDBRANCH   3  18
BRANCH   6  31
ATOM     31  C   UNL     1      -2.983  10.432  15.868  0.00  0.00    +0.000 A 
ATOM     32  C   UNL     1      -2.243   9.732  14.895  0.00  0.00    +0.000 A 
ATOM     33  C   UNL     1      -2.744   9.521  13.610  0.00  0.00    +0.000 A 
ATOM     34  C   UNL     1      -4.018   9.981  13.272  0.00  0.00    +0.000 A 
ATOM     35  C   UNL     1      -4.778  10.665  14.223  0.00  0.00    +0.000 A 
ATOM     36  C   UNL     1      -4.257  10.896  15.503  0.00  0.00    +0.000 A 
BRANCH  34  37
ATOM     37  C   UNL     1      -4.520   9.646  11.917  0.00  0.00    +0.000 C 
ATOM     38  O   UNL     1      -5.661   9.257  11.725  0.00  0.00    +0.000 OA
BRANCH  37  39
ATOM     39  O   UNL     1      -3.615   9.768  10.926  0.00  0.00    +0.000 OA
ATOM     40  H   UNL     1      -3.767  10.490  10.292  0.00  0.00    +0.000 HD
ENDBRANCH  37  39
ENDBRANCH  34  37
ENDBRANCH   6  31
TORSDOF 10
ENDMDL
MODEL 4
REMARK VINA RESULT:      -7.3      0.226      1.132
REMARK  Name = 
REMARK  11 active torsions:
REMARK  status: ('A' for Active; 'I' for Inactive)
REMARK    1  A    between atoms: C_1  and  O_2
REMARK    2  A    between atoms: O_2  and  C_3
REMARK    3  A    between atoms: C_6  and  N_7
REMARK    4  A    between atoms: C_9  and  C_10
REMARK    5  A    between atoms: C_13  and  C_14
REMARK    6  A    between atoms: C_14  and  O_16
REMARK    7  A    between atoms: C_17  and  C_18
REMARK    8  A    between atoms: C_18  and  O_19
REMARK    9  A    between atoms: C_23  and  C_24
REMARK   10  A    between atoms: C_27  and  C_28
REMARK   11  A    between atoms: C_28  and  O_30
REMARK                            x       y       z     vdW  Elec       q    Type
REMARK                         _______ _______ _______ _____ _____    ______ ____
ROOT
ATOM      1  N   UNL     1      -1.324  11.288  18.384  0.00  0.00    +0.000 N 
ATOM      2  C   UNL     1      -0.803  10.011  18.518  0.00  0.00    +0.000 A 
ATOM      3  C   UNL     1       0.564  10.082  18.678  0.00  0.00    +0.000 A 
ATOM      4  C   UNL     1       0.899  11.460  18.637  0.00  0.00    +0.000 A 
ATOM      5  C   UNL     1       2.096  12.178  18.769  0.00  0.00    +0.000 A 
ATOM      6  C   UNL     1       2.084  13.573  18.756  0.00  0.00    +0.000 A 
ATOM      7  C   UNL     1       0.840  14.172  18.551  0.00  0.00    +0.000 A 
ATOM      8  N   UNL     1      -0.350  13.542  18.383  0.00  0.00    +0.000 NA
ATOM      9  C   UNL     1      -0.269  12.192  18.436  0.00  0.00    +0.000 A 
ENDROOT
BRANCH   1  13
ATOM     10  C   UNL     1      -5.446  12.109  18.013  0.00  0.00    +0.000 A 
ATOM     11  C   UNL     1      -4.789  12.334  19.222  0.00  0.00    +0.000 A 
ATOM     12  C   UNL     1      -3.423  12.073  19.340  0.00  0.00    +0.000 A 
ATOM     13  C   UNL     1      -2.707  11.578  18.241  0.00  0.00    +0.000 A 
ATOM     14  C   UNL     1      -3.363  11.358  17.027  0.00  0.00    +0.000 A 
ATOM     15  C   UNL     1      -4.735  11.607  16.923  0.00  0.00    +0.000 A 
BRANCH  10  17
ATOM     16  C   UNL     1      -7.199  13.403  17.115  0.00  0.00    +0.000 C 
ATOM     17  O   UNL     1      -6.786  12.383  18.019  0.00  0.00    +0.000 OA
ENDBRANCH  10  17
ENDBRANCH   1  13
BRANCH   3  18
ATOM     18  C   UNL     1       1.417   8.919  18.882  0.00  0.00    +0.000 A 
ATOM     19  C   UNL     1       1.370   8.198  20.065  0.00  0.00    +0.000 A 
ATOM     20  C   UNL     1       2.204   7.090  20.240  0.00  0.00    +0.000 A 
ATOM     21  C   UNL     1       3.101   6.640  19.241  0.00  0.00    +0.000 A 
ATOM     22  C   UNL     1       3.177   7.384  18.043  0.00  0.00    +0.000 A 
ATOM     23  C   UNL     1       2.317   8.504  17.889  0.00  0.00    +0.000 A 
BRANCH  21  24
ATOM     24  C   UNL     1       3.844   5.384  19.618  0.00  0.00    +0.000 C 
ATOM     25  O   UNL     1       3.229   4.346  19.861  0.00  0.00    +0.000 OA
BRANCH  24  26
ATOM     26  O   UNL     1       5.183   5.375  19.635  0.00  0.00    +0.000 OA
ATOM     27  H   UNL     1       5.610   5.013  20.441  0.00  0.00    +0.000 HD
ENDBRANCH  24  26
ENDBRANCH  21  24
BRANCH  22  28
ATOM     28  C   UNL     1       4.056   7.084  16.860  0.00  0.00    +0.000 C 
BRANCH  28  29
ATOM     29  O   UNL     1       5.431   7.128  17.212  0.00  0.00    +0.000 OA
ATOM     30  H   UNL     1       5.813   6.253  17.003  0.00  0.00    +0.000 HD
ENDBRANCH  28  29
ENDBRANCH  22  28
ENDBRANCH   3  18
BRANCH   6  31
ATOM     31  C   UNL     1       3.329  14.322  19.002  0.00  0.00    +0.000 A 
ATOM     32  C   UNL     1       3.524  15.018  20.211  0.00  0.00    +0.000 A 
ATOM     33  C   UNL     1       4.662  15.795  20.429  0.00  0.00    +0.000 A 
ATOM     34  C   UNL     1       5.654  15.873  19.451  0.00  0.00    +0.000 A 
ATOM     35  C   UNL     1       5.493  15.180  18.249  0.00  0.00    +0.000 A 
ATOM     36  C   UNL     1       4.335  14.423  18.026  0.00  0.00    +0.000 A 
BRANCH  34  37
ATOM     37  C   UNL     1       6.875  16.647  19.786  0.00  0.00    +0.000 C 
ATOM     38  O   UNL     1       7.805  16.157  20.406  0.00  0.00    +0.000 OA
BRANCH  37  39
ATOM     39  O   UNL     1       6.862  17.934  19.387  0.00  0.00    +0.000 OA
ATOM     40  H   UNL     1       7.655  18.247  18.919  0.00  0.00    +0.000 HD
ENDBRANCH  37  39
ENDBRANCH  34  37
ENDBRANCH   6  31
TORSDOF 10
ENDMDL
MODEL 5
REMARK VINA RESULT:      -7.3      1.034      2.055
REMARK  Name = 
REMARK  11 active torsions:
REMARK  status: ('A' for Active; 'I' for Inactive)
REMARK    1  A    between atoms: C_1  and  O_2
REMARK    2  A    between atoms: O_2  and  C_3
REMARK    3  A    between atoms: C_6  and  N_7
REMARK    4  A    between atoms: C_9  and  C_10
REMARK    5  A    between atoms: C_13  and  C_14
REMARK    6  A    between atoms: C_14  and  O_16
REMARK    7  A    between atoms: C_17  and  C_18
REMARK    8  A    between atoms: C_18  and  O_19
REMARK    9  A    between atoms: C_23  and  C_24
REMARK   10  A    between atoms: C_27  and  C_28
REMARK   11  A    between atoms: C_28  and  O_30
REMARK                            x       y       z     vdW  Elec       q    Type
REMARK                         _______ _______ _______ _____ _____    ______ ____
ROOT
ATOM      1  N   UNL     1      -1.324  11.582  18.887  0.00  0.00    +0.000 N 
ATOM      2  C   UNL     1      -0.814  10.293  18.843  0.00  0.00    +0.000 A 
ATOM      3  C   UNL     1       0.560  10.342  18.743  0.00  0.00    +0.000 A 
ATOM      4  C   UNL     1       0.910  11.717  18.722  0.00  0.00    +0.000 A 
ATOM      5  C   UNL     1       2.124  12.414  18.666  0.00  0.00    +0.000 A 
ATOM      6  C   UNL     1       2.140  13.807  18.738  0.00  0.00    +0.000 A 
ATOM      7  C   UNL     1       0.892  14.429  18.811  0.00  0.00    +0.000 A 
ATOM      8  N   UNL     1      -0.321  13.822  18.836  0.00  0.00    +0.000 NA
ATOM      9  C   UNL     1      -0.259  12.471  18.792  0.00  0.00    +0.000 A 
ENDROOT
BRANCH   1  13
ATOM     10  C   UNL     1      -5.420  12.472  19.366  0.00  0.00    +0.000 A 
ATOM     11  C   UNL     1      -4.504  12.815  20.360  0.00  0.00    +0.000 A 
ATOM     12  C   UNL     1      -3.148  12.530  20.195  0.00  0.00    +0.000 A 
ATOM     13  C   UNL     1      -2.702  11.893  19.028  0.00  0.00    +0.000 A 
ATOM     14  C   UNL     1      -3.619  11.554  18.029  0.00  0.00    +0.000 A 
ATOM     15  C   UNL     1      -4.978  11.829  18.210  0.00  0.00    +0.000 A 
BRANCH  10  17
ATOM     16  C   UNL     1      -7.577  12.877  18.508  0.00  0.00    +0.000 C 
ATOM     17  O   UNL     1      -6.724  12.783  19.643  0.00  0.00    +0.000 OA
ENDBRANCH  10  17
ENDBRANCH   1  13
BRANCH   3  18
ATOM     18  C   UNL     1       1.411   9.161  18.710  0.00  0.00    +0.000 A 
ATOM     19  C   UNL     1       2.293   8.946  17.662  0.00  0.00    +0.000 A 
ATOM     20  C   UNL     1       3.095   7.800  17.649  0.00  0.00    +0.000 A 
ATOM     21  C   UNL     1       3.070   6.835  18.685  0.00  0.00    +0.000 A 
ATOM     22  C   UNL     1       2.156   7.031  19.743  0.00  0.00    +0.000 A 
ATOM     23  C   UNL     1       1.354   8.204  19.735  0.00  0.00    +0.000 A 
BRANCH  21  24
ATOM     24  C   UNL     1       4.072   5.725  18.500  0.00  0.00    +0.000 C 
ATOM     25  O   UNL     1       4.030   5.009  17.500  0.00  0.00    +0.000 OA
BRANCH  24  26
ATOM     26  O   UNL     1       5.050   5.547  19.397  0.00  0.00    +0.000 OA
ATOM     27  H   UNL     1       5.029   6.124  20.190  0.00  0.00    +0.000 HD
ENDBRANCH  24  26
ENDBRANCH  21  24
BRANCH  22  28
ATOM     28  C   UNL     1       1.966   6.135  20.937  0.00  0.00    +0.000 C 
BRANCH  28  29
ATOM     29  O   UNL     1       1.274   4.946  20.587  0.00  0.00    +0.000 OA
ATOM     30  H   UNL     1       1.351   4.840  19.618  0.00  0.00    +0.000 HD
ENDBRANCH  28  29
ENDBRANCH  22  28
ENDBRANCH   3  18
BRANCH   6  31
ATOM     31  C   UNL     1       3.424  14.527  18.787  0.00  0.00    +0.000 A 
ATOM     32  C   UNL     1       3.611  15.609  19.670  0.00  0.00    +0.000 A 
ATOM     33  C   UNL     1       4.792  16.351  19.675  0.00  0.00    +0.000 A 
ATOM     34  C   UNL     1       5.835  16.010  18.812  0.00  0.00    +0.000 A 
ATOM     35  C   UNL     1       5.682  14.934  17.937  0.00  0.00    +0.000 A 
ATOM     36  C   UNL     1       4.483  14.209  17.920  0.00  0.00    +0.000 A 
BRANCH  34  37
ATOM     37  C   UNL     1       7.093  16.789  18.932  0.00  0.00    +0.000 C 
ATOM     38  O   UNL     1       8.188  16.286  18.739  0.00  0.00    +0.000 OA
BRANCH  37  39
ATOM     39  O   UNL     1       6.936  18.075  19.303  0.00  0.00    +0.000 OA
ATOM     40  H   UNL     1       7.238  18.746  18.667  0.00  0.00    +0.000 HD
ENDBRANCH  37  39
ENDBRANCH  34  37
ENDBRANCH   6  31
TORSDOF 10
ENDMDL
MODEL 6
REMARK VINA RESULT:      -7.2      1.859      2.625
REMARK  Name = 
REMARK  11 active torsions:
REMARK  status: ('A' for Active; 'I' for Inactive)
REMARK    1  A    between atoms: C_1  and  O_2
REMARK    2  A    between atoms: O_2  and  C_3
REMARK    3  A    between atoms: C_6  and  N_7
REMARK    4  A    between atoms: C_9  and  C_10
REMARK    5  A    between atoms: C_13  and  C_14
REMARK    6  A    between atoms: C_14  and  O_16
REMARK    7  A    between atoms: C_17  and  C_18
REMARK    8  A    between atoms: C_18  and  O_19
REMARK    9  A    between atoms: C_23  and  C_24
REMARK   10  A    between atoms: C_27  and  C_28
REMARK   11  A    between atoms: C_28  and  O_30
REMARK                            x       y       z     vdW  Elec       q    Type
REMARK                         _______ _______ _______ _____ _____    ______ ____
ROOT
ATOM      1  N   UNL     1      -1.169  12.010  20.191  0.00  0.00    +0.000 N 
ATOM      2  C   UNL     1      -0.760  10.714  19.920  0.00  0.00    +0.000 A 
ATOM      3  C   UNL     1       0.534  10.726  19.447  0.00  0.00    +0.000 A 
ATOM      4  C   UNL     1       0.937  12.086  19.423  0.00  0.00    +0.000 A 
ATOM      5  C   UNL     1       2.125  12.746  19.080  0.00  0.00    +0.000 A 
ATOM      6  C   UNL     1       2.234  14.128  19.239  0.00  0.00    +0.000 A 
ATOM      7  C   UNL     1       1.088  14.782  19.696  0.00  0.00    +0.000 A 
ATOM      8  N   UNL     1      -0.102  14.214  20.015  0.00  0.00    +0.000 NA
ATOM      9  C   UNL     1      -0.126  12.869  19.865  0.00  0.00    +0.000 A 
ENDROOT
BRANCH   1  13
ATOM     10  C   UNL     1      -4.940  13.087  21.749  0.00  0.00    +0.000 A 
ATOM     11  C   UNL     1      -4.759  12.950  20.374  0.00  0.00    +0.000 A 
ATOM     12  C   UNL     1      -3.514  12.582  19.860  0.00  0.00    +0.000 A 
ATOM     13  C   UNL     1      -2.438  12.354  20.729  0.00  0.00    +0.000 A 
ATOM     14  C   UNL     1      -2.619  12.485  22.109  0.00  0.00    +0.000 A 
ATOM     15  C   UNL     1      -3.866  12.870  22.612  0.00  0.00    +0.000 A 
BRANCH  10  17
ATOM     16  C   UNL     1      -7.137  12.408  22.262  0.00  0.00    +0.000 C 
ATOM     17  O   UNL     1      -6.196  13.468  22.137  0.00  0.00    +0.000 OA
ENDBRANCH  10  17
ENDBRANCH   1  13
BRANCH   3  18
ATOM     18  C   UNL     1       1.280   9.524  19.100  0.00  0.00    +0.000 A 
ATOM     19  C   UNL     1       1.924   9.412  17.876  0.00  0.00    +0.000 A 
ATOM     20  C   UNL     1       2.627   8.246  17.563  0.00  0.00    +0.000 A 
ATOM     21  C   UNL     1       2.740   7.154  18.458  0.00  0.00    +0.000 A 
ATOM     22  C   UNL     1       2.066   7.247  19.696  0.00  0.00    +0.000 A 
ATOM     23  C   UNL     1       1.360   8.444  19.992  0.00  0.00    +0.000 A 
BRANCH  21  24
ATOM     24  C   UNL     1       3.608   6.036  17.941  0.00  0.00    +0.000 C 
ATOM     25  O   UNL     1       3.277   4.862  18.106  0.00  0.00    +0.000 OA
BRANCH  24  26
ATOM     26  O   UNL     1       4.720   6.316  17.248  0.00  0.00    +0.000 OA
ATOM     27  H   UNL     1       4.916   7.265  17.097  0.00  0.00    +0.000 HD
ENDBRANCH  24  26
ENDBRANCH  21  24
BRANCH  22  28
ATOM     28  C   UNL     1       2.053   6.210  20.786  0.00  0.00    +0.000 C 
BRANCH  28  29
ATOM     29  O   UNL     1       1.258   5.090  20.426  0.00  0.00    +0.000 OA
ATOM     30  H   UNL     1       1.755   4.288  20.680  0.00  0.00    +0.000 HD
ENDBRANCH  28  29
ENDBRANCH  22  28
ENDBRANCH   3  18
BRANCH   6  31
ATOM     31  C   UNL     1       3.518  14.800  18.978  0.00  0.00    +0.000 A 
ATOM     32  C   UNL     1       4.472  14.222  18.117  0.00  0.00    +0.000 A 
ATOM     33  C   UNL     1       5.724  14.805  17.919  0.00  0.00    +0.000 A 
ATOM     34  C   UNL     1       6.046  16.004  18.558  0.00  0.00    +0.000 A 
ATOM     35  C   UNL     1       5.114  16.605  19.405  0.00  0.00    +0.000 A 
ATOM     36  C   UNL     1       3.868  16.000  19.619  0.00  0.00    +0.000 A 
BRANCH  34  37
ATOM     37  C   UNL     1       7.361  16.610  18.234  0.00  0.00    +0.000 C 
ATOM     38  O   UNL     1       7.654  17.745  18.574  0.00  0.00    +0.000 OA
BRANCH  37  39
ATOM     39  O   UNL     1       8.186  15.830  17.508  0.00  0.00    +0.000 OA
ATOM     40  H   UNL     1       8.064  14.870  17.604  0.00  0.00    +0.000 HD
ENDBRANCH  37  39
ENDBRANCH  34  37
ENDBRANCH   6  31
TORSDOF 10
ENDMDL
MODEL 7
REMARK VINA RESULT:      -7.2      2.128      3.095
REMARK  Name = 
REMARK  11 active torsions:
REMARK  status: ('A' for Active; 'I' for Inactive)
REMARK    1  A    between atoms: C_1  and  O_2
REMARK    2  A    between atoms: O_2  and  C_3
REMARK    3  A    between atoms: C_6  and  N_7
REMARK    4  A    between atoms: C_9  and  C_10
REMARK    5  A    between atoms: C_13  and  C_14
REMARK    6  A    between atoms: C_14  and  O_16
REMARK    7  A    between atoms: C_17  and  C_18
REMARK    8  A    between atoms: C_18  and  O_19
REMARK    9  A    between atoms: C_23  and  C_24
REMARK   10  A    between atoms: C_27  and  C_28
REMARK   11  A    between atoms: C_28  and  O_30
REMARK                            x       y       z     vdW  Elec       q    Type
REMARK                         _______ _______ _______ _____ _____    ______ ____
ROOT
ATOM      1  N   UNL     1      -1.041  11.944  20.702  0.00  0.00    +0.000 N 
ATOM      2  C   UNL     1      -0.694  10.658  20.321  0.00  0.00    +0.000 A 
ATOM      3  C   UNL     1       0.578  10.658  19.789  0.00  0.00    +0.000 A 
ATOM      4  C   UNL     1       1.030  12.002  19.842  0.00  0.00    +0.000 A 
ATOM      5  C   UNL     1       2.226  12.643  19.490  0.00  0.00    +0.000 A 
ATOM      6  C   UNL     1       2.394  14.006  19.740  0.00  0.00    +0.000 A 
ATOM      7  C   UNL     1       1.296  14.665  20.297  0.00  0.00    +0.000 A 
ATOM      8  N   UNL     1       0.100  14.117  20.631  0.00  0.00    +0.000 NA
ATOM      9  C   UNL     1       0.018  12.788  20.387  0.00  0.00    +0.000 A 
ENDROOT
BRANCH   1  13
ATOM     10  C   UNL     1      -4.692  13.039  22.512  0.00  0.00    +0.000 A 
ATOM     11  C   UNL     1      -4.557  13.069  21.125  0.00  0.00    +0.000 A 
ATOM     12  C   UNL     1      -3.352  12.695  20.527  0.00  0.00    +0.000 A 
ATOM     13  C   UNL     1      -2.270  12.292  21.322  0.00  0.00    +0.000 A 
ATOM     14  C   UNL     1      -2.406  12.256  22.713  0.00  0.00    +0.000 A 
ATOM     15  C   UNL     1      -3.612  12.647  23.304  0.00  0.00    +0.000 A 
BRANCH  10  17
ATOM     16  C   UNL     1      -6.449  12.636  24.030  0.00  0.00    +0.000 C 
ATOM     17  O   UNL     1      -5.910  13.442  22.988  0.00  0.00    +0.000 OA
ENDBRANCH  10  17
ENDBRANCH   1  13
BRANCH   3  18
ATOM     18  C   UNL     1       1.261   9.460  19.324  0.00  0.00    +0.000 A 
ATOM     19  C   UNL     1       1.799   9.396  18.047  0.00  0.00    +0.000 A 
ATOM     20  C   UNL     1       2.444   8.231  17.620  0.00  0.00    +0.000 A 
ATOM     21  C   UNL     1       2.601   7.093  18.448  0.00  0.00    +0.000 A 
ATOM     22  C   UNL     1       2.032   7.139  19.740  0.00  0.00    +0.000 A 
ATOM     23  C   UNL     1       1.384   8.334  20.151  0.00  0.00    +0.000 A 
BRANCH  21  24
ATOM     24  C   UNL     1       3.394   5.984  17.807  0.00  0.00    +0.000 C 
ATOM     25  O   UNL     1       4.565   6.167  17.476  0.00  0.00    +0.000 OA
BRANCH  24  26
ATOM     26  O   UNL     1       2.845   4.774  17.644  0.00  0.00    +0.000 OA
ATOM     27  H   UNL     1       2.855   4.178  18.424  0.00  0.00    +0.000 HD
ENDBRANCH  24  26
ENDBRANCH  21  24
BRANCH  22  28
ATOM     28  C   UNL     1       2.081   6.048  20.775  0.00  0.00    +0.000 C 
BRANCH  28  29
ATOM     29  O   UNL     1       1.348   4.906  20.359  0.00  0.00    +0.000 OA
ATOM     30  H   UNL     1       1.963   4.332  19.861  0.00  0.00    +0.000 HD
ENDBRANCH  28  29
ENDBRANCH  22  28
ENDBRANCH   3  18
BRANCH   6  31
ATOM     31  C   UNL     1       3.690  14.650  19.467  0.00  0.00    +0.000 A 
ATOM     32  C   UNL     1       4.390  15.323  20.487  0.00  0.00    +0.000 A 
ATOM     33  C   UNL     1       5.580  16.005  20.229  0.00  0.00    +0.000 A 
ATOM     34  C   UNL     1       6.119  16.006  18.941  0.00  0.00    +0.000 A 
ATOM     35  C   UNL     1       5.453  15.334  17.915  0.00  0.00    +0.000 A 
ATOM     36  C   UNL     1       4.245  14.674  18.176  0.00  0.00    +0.000 A 
BRANCH  34  37
ATOM     37  C   UNL     1       7.430  16.677  18.759  0.00  0.00    +0.000 C 
ATOM     38  O   UNL     1       7.521  17.822  18.346  0.00  0.00    +0.000 OA
BRANCH  37  39
ATOM     39  O   UNL     1       8.505  15.918  19.047  0.00  0.00    +0.000 OA
ATOM     40  H   UNL     1       9.300  16.076  18.509  0.00  0.00    +0.000 HD
ENDBRANCH  37  39
ENDBRANCH  34  37
ENDBRANCH   6  31
TORSDOF 10
ENDMDL
MODEL 8
REMARK VINA RESULT:      -7.2      1.258      2.080
REMARK  Name = 
REMARK  11 active torsions:
REMARK  status: ('A' for Active; 'I' for Inactive)
REMARK    1  A    between atoms: C_1  and  O_2
REMARK    2  A    between atoms: O_2  and  C_3
REMARK    3  A    between atoms: C_6  and  N_7
REMARK    4  A    between atoms: C_9  and  C_10
REMARK    5  A    between atoms: C_13  and  C_14
REMARK    6  A    between atoms: C_14  and  O_16
REMARK    7  A    between atoms: C_17  and  C_18
REMARK    8  A    between atoms: C_18  and  O_19
REMARK    9  A    between atoms: C_23  and  C_24
REMARK   10  A    between atoms: C_27  and  C_28
REMARK   11  A    between atoms: C_28  and  O_30
REMARK                            x       y       z     vdW  Elec       q    Type
REMARK                         _______ _______ _______ _____ _____    ______ ____
ROOT
ATOM      1  N   UNL     1      -1.309  11.770  19.252  0.00  0.00    +0.000 N 
ATOM      2  C   UNL     1      -0.819  10.479  19.137  0.00  0.00    +0.000 A 
ATOM      3  C   UNL     1       0.541  10.517  18.917  0.00  0.00    +0.000 A 
ATOM      4  C   UNL     1       0.902  11.889  18.891  0.00  0.00    +0.000 A 
ATOM      5  C   UNL     1       2.114  12.576  18.741  0.00  0.00    +0.000 A 
ATOM      6  C   UNL     1       2.151  13.968  18.838  0.00  0.00    +0.000 A 
ATOM      7  C   UNL     1       0.921  14.599  19.034  0.00  0.00    +0.000 A 
ATOM      8  N   UNL     1      -0.292  14.002  19.154  0.00  0.00    +0.000 NA
ATOM      9  C   UNL     1      -0.248  12.652  19.079  0.00  0.00    +0.000 A 
ENDROOT
BRANCH   1  13
ATOM     10  C   UNL     1      -5.344  12.757  19.989  0.00  0.00    +0.000 A 
ATOM     11  C   UNL     1      -4.981  12.121  18.804  0.00  0.00    +0.000 A 
ATOM     12  C   UNL     1      -3.647  11.784  18.566  0.00  0.00    +0.000 A 
ATOM     13  C   UNL     1      -2.667  12.090  19.520  0.00  0.00    +0.000 A 
ATOM     14  C   UNL     1      -3.031  12.723  20.712  0.00  0.00    +0.000 A 
ATOM     15  C   UNL     1      -4.367  13.071  20.933  0.00  0.00    +0.000 A 
BRANCH  10  17
ATOM     16  C   UNL     1      -7.551  12.207  19.371  0.00  0.00    +0.000 C 
ATOM     17  O   UNL     1      -6.675  13.055  20.106  0.00  0.00    +0.000 OA
ENDBRANCH  10  17
ENDBRANCH   1  13
BRANCH   3  18
ATOM     18  C   UNL     1       1.374   9.330  18.786  0.00  0.00    +0.000 A 
ATOM     19  C   UNL     1       2.198   9.153  17.684  0.00  0.00    +0.000 A 
ATOM     20  C   UNL     1       2.982   8.001  17.578  0.00  0.00    +0.000 A 
ATOM     21  C   UNL     1       2.998   6.989  18.568  0.00  0.00    +0.000 A 
ATOM     22  C   UNL     1       2.142   7.147  19.681  0.00  0.00    +0.000 A 
ATOM     23  C   UNL     1       1.357   8.327  19.767  0.00  0.00    +0.000 A 
BRANCH  21  24
ATOM     24  C   UNL     1       3.974   5.878  18.280  0.00  0.00    +0.000 C 
ATOM     25  O   UNL     1       3.583   4.716  18.180  0.00  0.00    +0.000 OA
BRANCH  24  26
ATOM     26  O   UNL     1       5.268   6.157  18.076  0.00  0.00    +0.000 OA
ATOM     27  H   UNL     1       5.550   7.082  18.244  0.00  0.00    +0.000 HD
ENDBRANCH  24  26
ENDBRANCH  21  24
BRANCH  22  28
ATOM     28  C   UNL     1       2.003   6.198  20.841  0.00  0.00    +0.000 C 
BRANCH  28  29
ATOM     29  O   UNL     1       1.428   4.965  20.435  0.00  0.00    +0.000 OA
ATOM     30  H   UNL     1       2.064   4.534  19.830  0.00  0.00    +0.000 HD
ENDBRANCH  28  29
ENDBRANCH  22  28
ENDBRANCH   3  18
BRANCH   6  31
ATOM     31  C   UNL     1       3.442  14.676  18.787  0.00  0.00    +0.000 A 
ATOM     32  C   UNL     1       3.618  15.902  19.457  0.00  0.00    +0.000 A 
ATOM     33  C   UNL     1       4.808  16.624  19.355  0.00  0.00    +0.000 A 
ATOM     34  C   UNL     1       5.869  16.121  18.599  0.00  0.00    +0.000 A 
ATOM     35  C   UNL     1       5.725  14.901  17.937  0.00  0.00    +0.000 A 
ATOM     36  C   UNL     1       4.518  14.194  18.023  0.00  0.00    +0.000 A 
BRANCH  34  37
ATOM     37  C   UNL     1       7.132  16.899  18.606  0.00  0.00    +0.000 C 
ATOM     38  O   UNL     1       7.217  17.994  19.140  0.00  0.00    +0.000 OA
BRANCH  37  39
ATOM     39  O   UNL     1       8.160  16.325  17.952  0.00  0.00    +0.000 OA
ATOM     40  H   UNL     1       8.730  16.922  17.437  0.00  0.00    +0.000 HD
ENDBRANCH  37  39
ENDBRANCH  34  37
ENDBRANCH   6  31
TORSDOF 10
ENDMDL
MODEL 9
REMARK VINA RESULT:      -7.2      0.773      1.627
REMARK  Name = 
REMARK  11 active torsions:
REMARK  status: ('A' for Active; 'I' for Inactive)
REMARK    1  A    between atoms: C_1  and  O_2
REMARK    2  A    between atoms: O_2  and  C_3
REMARK    3  A    between atoms: C_6  and  N_7
REMARK    4  A    between atoms: C_9  and  C_10
REMARK    5  A    between atoms: C_13  and  C_14
REMARK    6  A    between atoms: C_14  and  O_16
REMARK    7  A    between atoms: C_17  and  C_18
REMARK    8  A    between atoms: C_18  and  O_19
REMARK    9  A    between atoms: C_23  and  C_24
REMARK   10  A    between atoms: C_27  and  C_28
REMARK   11  A    between atoms: C_28  and  O_30
REMARK                            x       y       z     vdW  Elec       q    Type
REMARK                         _______ _______ _______ _____ _____    ______ ____
ROOT
ATOM      1  N   UNL     1      -1.282  11.185  18.316  0.00  0.00    +0.000 N 
ATOM      2  C   UNL     1      -0.729   9.914  18.337  0.00  0.00    +0.000 A 
ATOM      3  C   UNL     1       0.642  10.007  18.435  0.00  0.00    +0.000 A 
ATOM      4  C   UNL     1       0.946  11.393  18.472  0.00  0.00    +0.000 A 
ATOM      5  C   UNL     1       2.133  12.128  18.595  0.00  0.00    +0.000 A 
ATOM      6  C   UNL     1       2.093  13.521  18.677  0.00  0.00    +0.000 A 
ATOM      7  C   UNL     1       0.827  14.102  18.575  0.00  0.00    +0.000 A 
ATOM      8  N   UNL     1      -0.357  13.456  18.422  0.00  0.00    +0.000 NA
ATOM      9  C   UNL     1      -0.245  12.108  18.379  0.00  0.00    +0.000 A 
ENDROOT
BRANCH   1  13
ATOM     10  C   UNL     1      -5.413  12.017  18.094  0.00  0.00    +0.000 A 
ATOM     11  C   UNL     1      -4.737  11.506  16.987  0.00  0.00    +0.000 A 
ATOM     12  C   UNL     1      -3.373  11.220  17.066  0.00  0.00    +0.000 A 
ATOM     13  C   UNL     1      -2.676  11.451  18.260  0.00  0.00    +0.000 A 
ATOM     14  C   UNL     1      -3.353  11.958  19.372  0.00  0.00    +0.000 A 
ATOM     15  C   UNL     1      -4.717  12.256  19.279  0.00  0.00    +0.000 A 
BRANCH  10  17
ATOM     16  C   UNL     1      -7.509  12.433  19.086  0.00  0.00    +0.000 C 
ATOM     17  O   UNL     1      -6.742  12.275  17.897  0.00  0.00    +0.000 OA
ENDBRANCH  10  17
ENDBRANCH   1  13
BRANCH   3  18
ATOM     18  C   UNL     1       1.528   8.854  18.517  0.00  0.00    +0.000 A 
ATOM     19  C   UNL     1       2.536   8.660  17.585  0.00  0.00    +0.000 A 
ATOM     20  C   UNL     1       3.369   7.542  17.680  0.00  0.00    +0.000 A 
ATOM     21  C   UNL     1       3.250   6.583  18.716  0.00  0.00    +0.000 A 
ATOM     22  C   UNL     1       2.208   6.756  19.654  0.00  0.00    +0.000 A 
ATOM     23  C   UNL     1       1.377   7.902  19.537  0.00  0.00    +0.000 A 
BRANCH  21  24
ATOM     24  C   UNL     1       4.301   5.504  18.663  0.00  0.00    +0.000 C 
ATOM     25  O   UNL     1       5.235   5.506  19.463  0.00  0.00    +0.000 OA
BRANCH  24  26
ATOM     26  O   UNL     1       4.192   4.503  17.779  0.00  0.00    +0.000 OA
ATOM     27  H   UNL     1       3.774   4.721  16.918  0.00  0.00    +0.000 HD
ENDBRANCH  24  26
ENDBRANCH  21  24
BRANCH  22  28
ATOM     28  C   UNL     1       1.904   5.862  20.825  0.00  0.00    +0.000 C 
BRANCH  28  29
ATOM     29  O   UNL     1       1.321   4.637  20.404  0.00  0.00    +0.000 OA
ATOM     30  H   UNL     1       0.830   4.273  21.166  0.00  0.00    +0.000 HD
ENDBRANCH  28  29
ENDBRANCH  22  28
ENDBRANCH   3  18
BRANCH   6  31
ATOM     31  C   UNL     1       3.333  14.280  18.913  0.00  0.00    +0.000 A 
ATOM     32  C   UNL     1       4.191  14.608  17.845  0.00  0.00    +0.000 A 
ATOM     33  C   UNL     1       5.407  15.258  18.060  0.00  0.00    +0.000 A 
ATOM     34  C   UNL     1       5.784  15.626  19.353  0.00  0.00    +0.000 A 
ATOM     35  C   UNL     1       4.945  15.326  20.427  0.00  0.00    +0.000 A 
ATOM     36  C   UNL     1       3.737  14.650  20.207  0.00  0.00    +0.000 A 
BRANCH  34  37
ATOM     37  C   UNL     1       7.048  16.390  19.496  0.00  0.00    +0.000 C 
ATOM     38  O   UNL     1       8.005  15.952  20.113  0.00  0.00    +0.000 OA
BRANCH  37  39
ATOM     39  O   UNL     1       7.044  17.611  18.926  0.00  0.00    +0.000 OA
ATOM     40  H   UNL     1       6.508  18.291  19.369  0.00  0.00    +0.000 HD
ENDBRANCH  37  39
ENDBRANCH  34  37
ENDBRANCH   6  31
TORSDOF 10
ENDMDL
