MODEL 1
REMARK VINA RESULT:      -7.0      0.000      0.000
REMARK  Name = 
REMARK  6 active torsions:
REMARK  status: ('A' for Active; 'I' for Inactive)
REMARK    1  A    between atoms: C_1  and  N_2
REMARK    2  A    between atoms: C_4  and  C_5
REMARK    3  A    between atoms: C_9  and  C_10
REMARK    4  A    between atoms: C_10  and  N_11
REMARK    5  A    between atoms: C_15  and  C_16
REMARK    6  A    between atoms: C_16  and  N_17
REMARK                            x       y       z     vdW  Elec       q    Type
REMARK                         _______ _______ _______ _____ _____    ______ ____
ROOT
ATOM      1  N   UNL     1       3.151   3.014  20.730  0.00  0.00    +0.000 NA
ATOM      2  C   UNL     1       1.811   2.417  20.760  0.00  0.00    +0.000 C 
ATOM      3  C   UNL     1       0.725   3.176  19.987  0.00  0.00    +0.000 C 
ATOM      4  O   UNL     1       0.662   4.548  20.382  0.00  0.00    +0.000 OA
ATOM      5  C   UNL     1       1.914   5.208  20.144  0.00  0.00    +0.000 C 
ATOM      6  C   UNL     1       3.115   4.489  20.803  0.00  0.00    +0.000 C 
ENDROOT
BRANCH   1   7
ATOM      7  C   UNL     1       4.045   2.454  19.716  0.00  0.00    +0.000 C 
BRANCH   7  13
ATOM      8  C   UNL     1       2.992   3.664  17.018  0.00  0.00    +0.000 C 
ATOM      9  N   UNL     1       4.191   4.034  17.724  0.00  0.00    +0.000 N 
ATOM     10  N   UNL     1       5.044   4.911  17.163  0.00  0.00    +0.000 NA
ATOM     11  C   UNL     1       6.082   4.855  18.001  0.00  0.00    +0.000 A 
ATOM     12  N   UNL     1       5.890   4.057  19.097  0.00  0.00    +0.000 NA
ATOM     13  C   UNL     1       4.698   3.529  18.892  0.00  0.00    +0.000 A 
BRANCH  11  14
ATOM     14  C   UNL     1       7.384   5.585  17.694  0.00  0.00    +0.000 C 
ATOM     15  C   UNL     1       7.388   7.080  17.496  0.00  0.00    +0.000 C 
ATOM     16  C   UNL     1       7.945   6.510  18.755  0.00  0.00    +0.000 C 
ENDBRANCH  11  14
ENDBRANCH   7  13
ENDBRANCH   1   7
BRANCH   5  17
ATOM     17  C   UNL     1       1.813   6.679  20.585  0.00  0.00    +0.000 C 
BRANCH  17  18
ATOM     18  N   UNL     1       1.798   7.663  19.516  0.00  0.00    +0.000 N 
ATOM     19  C   UNL     1       2.494   7.598  18.337  0.00  0.00    +0.000 A 
ATOM     20  C   UNL     1       2.355   8.824  17.728  0.00  0.00    +0.000 A 
ATOM     21  C   UNL     1       1.544   9.561  18.613  0.00  0.00    +0.000 A 
ATOM     22  N   UNL     1       1.219   8.868  19.708  0.00  0.00    +0.000 NA
ENDBRANCH  17  18
ENDBRANCH   5  17
TORSDOF 5
ENDMDL
MODEL 2
REMARK VINA RESULT:      -6.7      1.928      5.039
REMARK  Name = 
REMARK  6 active torsions:
REMARK  status: ('A' for Active; 'I' for Inactive)
REMARK    1  A    between atoms: C_1  and  N_2
REMARK    2  A    between atoms: C_4  and  C_5
REMARK    3  A    between atoms: C_9  and  C_10
REMARK    4  A    between atoms: C_10  and  N_11
REMARK    5  A    between atoms: C_15  and  C_16
REMARK    6  A    between atoms: C_16  and  N_17
REMARK                            x       y       z     vdW  Elec       q    Type
REMARK                         _______ _______ _______ _____ _____    ______ ____
ROOT
ATOM      1  N   UNL     1       3.087   2.867  17.655  0.00  0.00    +0.000 NA
ATOM      2  C   UNL     1       3.526   2.198  18.885  0.00  0.00    +0.000 C 
ATOM      3  C   UNL     1       4.557   2.959  19.728  0.00  0.00    +0.000 C 
ATOM      4  O   UNL     1       5.690   3.344  18.947  0.00  0.00    +0.000 OA
ATOM      5  C   UNL     1       5.297   4.195  17.859  0.00  0.00    +0.000 C 
ATOM      6  C   UNL     1       4.190   3.576  16.973  0.00  0.00    +0.000 C 
ENDROOT
BRANCH   1   7
ATOM      7  C   UNL     1       1.838   3.618  17.782  0.00  0.00    +0.000 C 
BRANCH   7  13
ATOM      8  C   UNL     1       1.366   4.159  20.836  0.00  0.00    +0.000 C 
ATOM      9  N   UNL     1       1.830   5.101  19.851  0.00  0.00    +0.000 N 
ATOM     10  N   UNL     1       1.996   6.392  20.197  0.00  0.00    +0.000 NA
ATOM     11  C   UNL     1       2.244   6.961  19.014  0.00  0.00    +0.000 A 
ATOM     12  N   UNL     1       2.326   6.085  17.965  0.00  0.00    +0.000 NA
ATOM     13  C   UNL     1       2.039   4.918  18.510  0.00  0.00    +0.000 A 
BRANCH  11  14
ATOM     14  C   UNL     1       2.357   8.474  18.876  0.00  0.00    +0.000 C 
ATOM     15  C   UNL     1       1.747   9.176  17.689  0.00  0.00    +0.000 C 
ATOM     16  C   UNL     1       1.092   9.295  19.021  0.00  0.00    +0.000 C 
ENDBRANCH  11  14
ENDBRANCH   7  13
ENDBRANCH   1   7
BRANCH   5  17
ATOM     17  C   UNL     1       6.539   4.585  17.037  0.00  0.00    +0.000 C 
BRANCH  17  18
ATOM     18  N   UNL     1       7.206   5.812  17.439  0.00  0.00    +0.000 N 
ATOM     19  C   UNL     1       7.891   6.023  18.607  0.00  0.00    +0.000 A 
ATOM     20  C   UNL     1       8.167   7.370  18.665  0.00  0.00    +0.000 A 
ATOM     21  C   UNL     1       7.618   7.888  17.477  0.00  0.00    +0.000 A 
ATOM     22  N   UNL     1       7.018   6.950  16.738  0.00  0.00    +0.000 NA
ENDBRANCH  17  18
ENDBRANCH   5  17
TORSDOF 5
ENDMDL
MODEL 3
REMARK VINA RESULT:      -6.6      0.903      1.289
REMARK  Name = 
REMARK  6 active torsions:
REMARK  status: ('A' for Active; 'I' for Inactive)
REMARK    1  A    between atoms: C_1  and  N_2
REMARK    2  A    between atoms: C_4  and  C_5
REMARK    3  A    between atoms: C_9  and  C_10
REMARK    4  A    between atoms: C_10  and  N_11
REMARK    5  A    between atoms: C_15  and  C_16
REMARK    6  A    between atoms: C_16  and  N_17
REMARK                            x       y       z     vdW  Elec       q    Type
REMARK                         _______ _______ _______ _____ _____    ______ ____
ROOT
ATOM      1  N   UNL     1       2.742   3.043  21.421  0.00  0.00    +0.000 NA
ATOM      2  C   UNL     1       1.400   2.498  21.181  0.00  0.00    +0.000 C 
ATOM      3  C   UNL     1       0.566   3.223  20.117  0.00  0.00    +0.000 C 
ATOM      4  O   UNL     1       0.488   4.626  20.379  0.00  0.00    +0.000 OA
ATOM      5  C   UNL     1       1.795   5.218  20.391  0.00  0.00    +0.000 C 
ATOM      6  C   UNL     1       2.770   4.520  21.368  0.00  0.00    +0.000 C 
ENDROOT
BRANCH   1   7
ATOM      7  C   UNL     1       3.814   2.366  20.691  0.00  0.00    +0.000 C 
BRANCH   7  13
ATOM      8  C   UNL     1       2.784   2.002  17.749  0.00  0.00    +0.000 C 
ATOM      9  N   UNL     1       3.756   2.957  18.215  0.00  0.00    +0.000 N 
ATOM     10  N   UNL     1       4.402   3.731  17.324  0.00  0.00    +0.000 NA
ATOM     11  C   UNL     1       5.318   4.326  18.092  0.00  0.00    +0.000 A 
ATOM     12  N   UNL     1       5.224   4.030  19.426  0.00  0.00    +0.000 NA
ATOM     13  C   UNL     1       4.246   3.145  19.481  0.00  0.00    +0.000 A 
BRANCH  11  14
ATOM     14  C   UNL     1       6.404   5.206  17.487  0.00  0.00    +0.000 C 
ATOM     15  C   UNL     1       7.600   5.612  18.310  0.00  0.00    +0.000 C 
ATOM     16  C   UNL     1       7.765   4.586  17.243  0.00  0.00    +0.000 C 
ENDBRANCH  11  14
ENDBRANCH   7  13
ENDBRANCH   1   7
BRANCH   5  17
ATOM     17  C   UNL     1       1.674   6.726  20.681  0.00  0.00    +0.000 C 
BRANCH  17  18
ATOM     18  N   UNL     1       2.011   7.612  19.580  0.00  0.00    +0.000 N 
ATOM     19  C   UNL     1       1.489   8.857  19.345  0.00  0.00    +0.000 A 
ATOM     20  C   UNL     1       1.924   9.239  18.097  0.00  0.00    +0.000 A 
ATOM     21  C   UNL     1       2.717   8.160  17.661  0.00  0.00    +0.000 A 
ATOM     22  N   UNL     1       2.759   7.163  18.550  0.00  0.00    +0.000 NA
ENDBRANCH  17  18
ENDBRANCH   5  17
TORSDOF 5
ENDMDL
MODEL 4
REMARK VINA RESULT:      -6.6      2.401      4.649
REMARK  Name = 
REMARK  6 active torsions:
REMARK  status: ('A' for Active; 'I' for Inactive)
REMARK    1  A    between atoms: C_1  and  N_2
REMARK    2  A    between atoms: C_4  and  C_5
REMARK    3  A    between atoms: C_9  and  C_10
REMARK    4  A    between atoms: C_10  and  N_11
REMARK    5  A    between atoms: C_15  and  C_16
REMARK    6  A    between atoms: C_16  and  N_17
REMARK                            x       y       z     vdW  Elec       q    Type
REMARK                         _______ _______ _______ _____ _____    ______ ____
ROOT
ATOM      1  N   UNL     1       3.310   6.696  17.709  0.00  0.00    +0.000 NA
ATOM      2  C   UNL     1       2.319   7.744  17.981  0.00  0.00    +0.000 C 
ATOM      3  C   UNL     1       2.062   8.052  19.461  0.00  0.00    +0.000 C 
ATOM      4  O   UNL     1       1.739   6.868  20.194  0.00  0.00    +0.000 OA
ATOM      5  C   UNL     1       2.809   5.913  20.123  0.00  0.00    +0.000 C 
ATOM      6  C   UNL     1       3.229   5.578  18.672  0.00  0.00    +0.000 C 
ENDROOT
BRANCH   1   7
ATOM      7  C   UNL     1       4.658   7.190  17.429  0.00  0.00    +0.000 C 
BRANCH   7  13
ATOM      8  C   UNL     1       7.619   6.485  18.193  0.00  0.00    +0.000 C 
ATOM      9  N   UNL     1       6.810   5.853  17.183  0.00  0.00    +0.000 N 
ATOM     10  N   UNL     1       7.363   4.925  16.379  0.00  0.00    +0.000 NA
ATOM     11  C   UNL     1       6.387   4.720  15.489  0.00  0.00    +0.000 A 
ATOM     12  N   UNL     1       5.229   5.404  15.744  0.00  0.00    +0.000 NA
ATOM     13  C   UNL     1       5.523   6.132  16.805  0.00  0.00    +0.000 A 
BRANCH  11  14
ATOM     14  C   UNL     1       6.608   3.838  14.267  0.00  0.00    +0.000 C 
ATOM     15  C   UNL     1       5.598   3.823  13.148  0.00  0.00    +0.000 C 
ATOM     16  C   UNL     1       6.900   4.518  12.945  0.00  0.00    +0.000 C 
ENDBRANCH  11  14
ENDBRANCH   7  13
ENDBRANCH   1   7
BRANCH   5  17
ATOM     17  C   UNL     1       2.427   4.650  20.916  0.00  0.00    +0.000 C 
BRANCH  17  18
ATOM     18  N   UNL     1       2.017   3.503  20.123  0.00  0.00    +0.000 N 
ATOM     19  C   UNL     1       2.825   2.494  19.669  0.00  0.00    +0.000 A 
ATOM     20  C   UNL     1       2.071   1.748  18.793  0.00  0.00    +0.000 A 
ATOM     21  C   UNL     1       0.813   2.380  18.793  0.00  0.00    +0.000 A 
ATOM     22  N   UNL     1       0.780   3.457  19.584  0.00  0.00    +0.000 NA
ENDBRANCH  17  18
ENDBRANCH   5  17
TORSDOF 5
ENDMDL
MODEL 5
REMARK VINA RESULT:      -6.5      2.768      5.154
REMARK  Name = 
REMARK  6 active torsions:
REMARK  status: ('A' for Active; 'I' for Inactive)
REMARK    1  A    between atoms: C_1  and  N_2
REMARK    2  A    between atoms: C_4  and  C_5
REMARK    3  A    between atoms: C_9  and  C_10
REMARK    4  A    between atoms: C_10  and  N_11
REMARK    5  A    between atoms: C_15  and  C_16
REMARK    6  A    between atoms: C_16  and  N_17
REMARK                            x       y       z     vdW  Elec       q    Type
REMARK                         _______ _______ _______ _____ _____    ______ ____
ROOT
ATOM      1  N   UNL     1       4.147   5.984  18.118  0.00  0.00    +0.000 NA
ATOM      2  C   UNL     1       5.236   6.006  19.101  0.00  0.00    +0.000 C 
ATOM      3  C   UNL     1       6.093   4.736  19.176  0.00  0.00    +0.000 C 
ATOM      4  O   UNL     1       5.287   3.570  19.360  0.00  0.00    +0.000 OA
ATOM      5  C   UNL     1       4.361   3.412  18.276  0.00  0.00    +0.000 C 
ATOM      6  C   UNL     1       3.486   4.665  18.035  0.00  0.00    +0.000 C 
ENDROOT
BRANCH   1   7
ATOM      7  C   UNL     1       4.472   6.607  16.834  0.00  0.00    +0.000 C 
BRANCH   7  13
ATOM      8  C   UNL     1       7.581   7.025  16.791  0.00  0.00    +0.000 C 
ATOM      9  N   UNL     1       6.832   6.018  16.085  0.00  0.00    +0.000 N 
ATOM     10  N   UNL     1       7.468   5.208  15.219  0.00  0.00    +0.000 NA
ATOM     11  C   UNL     1       6.447   4.564  14.648  0.00  0.00    +0.000 A 
ATOM     12  N   UNL     1       5.218   4.866  15.171  0.00  0.00    +0.000 NA
ATOM     13  C   UNL     1       5.480   5.804  16.062  0.00  0.00    +0.000 A 
BRANCH  11  14
ATOM     14  C   UNL     1       6.666   3.624  13.470  0.00  0.00    +0.000 C 
ATOM     15  C   UNL     1       5.631   3.517  12.379  0.00  0.00    +0.000 C 
ATOM     16  C   UNL     1       6.905   4.240  12.106  0.00  0.00    +0.000 C 
ENDBRANCH  11  14
ENDBRANCH   7  13
ENDBRANCH   1   7
BRANCH   5  17
ATOM     17  C   UNL     1       3.506   2.152  18.509  0.00  0.00    +0.000 C 
BRANCH  17  18
ATOM     18  N   UNL     1       2.361   2.316  19.389  0.00  0.00    +0.000 N 
ATOM     19  C   UNL     1       1.061   2.518  19.008  0.00  0.00    +0.000 A 
ATOM     20  C   UNL     1       0.359   2.832  20.149  0.00  0.00    +0.000 A 
ATOM     21  C   UNL     1       1.322   2.781  21.174  0.00  0.00    +0.000 A 
ATOM     22  N   UNL     1       2.543   2.486  20.716  0.00  0.00    +0.000 NA
ENDBRANCH  17  18
ENDBRANCH   5  17
TORSDOF 5
ENDMDL
MODEL 6
REMARK VINA RESULT:      -6.4      2.750      4.938
REMARK  Name = 
REMARK  6 active torsions:
REMARK  status: ('A' for Active; 'I' for Inactive)
REMARK    1  A    between atoms: C_1  and  N_2
REMARK    2  A    between atoms: C_4  and  C_5
REMARK    3  A    between atoms: C_9  and  C_10
REMARK    4  A    between atoms: C_10  and  N_11
REMARK    5  A    between atoms: C_15  and  C_16
REMARK    6  A    between atoms: C_16  and  N_17
REMARK                            x       y       z     vdW  Elec       q    Type
REMARK                         _______ _______ _______ _____ _____    ______ ____
ROOT
ATOM      1  N   UNL     1       5.830   5.427  17.616  0.00  0.00    +0.000 NA
ATOM      2  C   UNL     1       5.739   4.078  17.047  0.00  0.00    +0.000 C 
ATOM      3  C   UNL     1       4.378   3.696  16.450  0.00  0.00    +0.000 C 
ATOM      4  O   UNL     1       3.318   3.910  17.384  0.00  0.00    +0.000 OA
ATOM      5  C   UNL     1       3.253   5.288  17.780  0.00  0.00    +0.000 C 
ATOM      6  C   UNL     1       4.597   5.827  18.324  0.00  0.00    +0.000 C 
ENDROOT
BRANCH   1   7
ATOM      7  C   UNL     1       6.393   6.432  16.713  0.00  0.00    +0.000 C 
BRANCH   7  13
ATOM      8  C   UNL     1       8.110   5.788  19.259  0.00  0.00    +0.000 C 
ATOM      9  N   UNL     1       8.071   7.030  18.531  0.00  0.00    +0.000 N 
ATOM     10  N   UNL     1       8.742   8.096  19.006  0.00  0.00    +0.000 NA
ATOM     11  C   UNL     1       8.324   9.067  18.190  0.00  0.00    +0.000 A 
ATOM     12  N   UNL     1       7.499   8.649  17.181  0.00  0.00    +0.000 NA
ATOM     13  C   UNL     1       7.332   7.363  17.427  0.00  0.00    +0.000 A 
BRANCH  11  14
ATOM     14  C   UNL     1       8.707  10.521  18.433  0.00  0.00    +0.000 C 
ATOM     15  C   UNL     1       9.784  10.867  19.430  0.00  0.00    +0.000 C 
ATOM     16  C   UNL     1      10.077  10.979  17.973  0.00  0.00    +0.000 C 
ENDBRANCH  11  14
ENDBRANCH   7  13
ENDBRANCH   1   7
BRANCH   5  17
ATOM     17  C   UNL     1       2.107   5.481  18.789  0.00  0.00    +0.000 C 
BRANCH  17  18
ATOM     18  N   UNL     1       1.965   4.441  19.795  0.00  0.00    +0.000 N 
ATOM     19  C   UNL     1       1.026   3.443  19.811  0.00  0.00    +0.000 A 
ATOM     20  C   UNL     1       1.124   2.828  21.037  0.00  0.00    +0.000 A 
ATOM     21  C   UNL     1       2.164   3.518  21.690  0.00  0.00    +0.000 A 
ATOM     22  N   UNL     1       2.665   4.510  20.947  0.00  0.00    +0.000 NA
ENDBRANCH  17  18
ENDBRANCH   5  17
TORSDOF 5
ENDMDL
MODEL 7
REMARK VINA RESULT:      -6.3      2.127      2.989
REMARK  Name = 
REMARK  6 active torsions:
REMARK  status: ('A' for Active; 'I' for Inactive)
REMARK    1  A    between atoms: C_1  and  N_2
REMARK    2  A    between atoms: C_4  and  C_5
REMARK    3  A    between atoms: C_9  and  C_10
REMARK    4  A    between atoms: C_10  and  N_11
REMARK    5  A    between atoms: C_15  and  C_16
REMARK    6  A    between atoms: C_16  and  N_17
REMARK                            x       y       z     vdW  Elec       q    Type
REMARK                         _______ _______ _______ _____ _____    ______ ____
ROOT
ATOM      1  N   UNL     1       3.970   4.612  19.640  0.00  0.00    +0.000 NA
ATOM      2  C   UNL     1       2.672   4.000  19.334  0.00  0.00    +0.000 C 
ATOM      3  C   UNL     1       2.039   4.412  17.998  0.00  0.00    +0.000 C 
ATOM      4  O   UNL     1       1.955   5.833  17.874  0.00  0.00    +0.000 OA
ATOM      5  C   UNL     1       3.258   6.432  17.946  0.00  0.00    +0.000 C 
ATOM      6  C   UNL     1       4.044   6.025  19.215  0.00  0.00    +0.000 C 
ENDROOT
BRANCH   1   7
ATOM      7  C   UNL     1       5.129   3.789  19.294  0.00  0.00    +0.000 C 
BRANCH   7  13
ATOM      8  C   UNL     1       7.628   5.672  19.065  0.00  0.00    +0.000 C 
ATOM      9  N   UNL     1       6.892   5.074  17.982  0.00  0.00    +0.000 N 
ATOM     10  N   UNL     1       7.198   5.404  16.713  0.00  0.00    +0.000 NA
ATOM     11  C   UNL     1       6.212   4.813  16.033  0.00  0.00    +0.000 A 
ATOM     12  N   UNL     1       5.360   4.064  16.798  0.00  0.00    +0.000 NA
ATOM     13  C   UNL     1       5.792   4.259  18.030  0.00  0.00    +0.000 A 
BRANCH  11  14
ATOM     14  C   UNL     1       6.046   5.033  14.535  0.00  0.00    +0.000 C 
ATOM     15  C   UNL     1       7.222   4.862  13.607  0.00  0.00    +0.000 C 
ATOM     16  C   UNL     1       6.152   3.825  13.626  0.00  0.00    +0.000 C 
ENDBRANCH  11  14
ENDBRANCH   7  13
ENDBRANCH   1   7
BRANCH   5  17
ATOM     17  C   UNL     1       3.130   7.960  17.816  0.00  0.00    +0.000 C 
BRANCH  17  18
ATOM     18  N   UNL     1       1.990   8.561  18.488  0.00  0.00    +0.000 N 
ATOM     19  C   UNL     1       1.128   9.488  17.962  0.00  0.00    +0.000 A 
ATOM     20  C   UNL     1       0.344   9.932  19.001  0.00  0.00    +0.000 A 
ATOM     21  C   UNL     1       0.800   9.204  20.117  0.00  0.00    +0.000 A 
ATOM     22  N   UNL     1       1.812   8.384  19.814  0.00  0.00    +0.000 NA
ENDBRANCH  17  18
ENDBRANCH   5  17
TORSDOF 5
ENDMDL
MODEL 8
REMARK VINA RESULT:      -6.3      3.771      6.066
REMARK  Name = 
REMARK  6 active torsions:
REMARK  status: ('A' for Active; 'I' for Inactive)
REMARK    1  A    between atoms: C_1  and  N_2
REMARK    2  A    between atoms: C_4  and  C_5
REMARK    3  A    between atoms: C_9  and  C_10
REMARK    4  A    between atoms: C_10  and  N_11
REMARK    5  A    between atoms: C_15  and  C_16
REMARK    6  A    between atoms: C_16  and  N_17
REMARK                            x       y       z     vdW  Elec       q    Type
REMARK                         _______ _______ _______ _____ _____    ______ ____
ROOT
ATOM      1  N   UNL     1       5.272   4.757  16.050  0.00  0.00    +0.000 NA
ATOM      2  C   UNL     1       4.974   6.123  16.493  0.00  0.00    +0.000 C 
ATOM      3  C   UNL     1       5.316   6.441  17.955  0.00  0.00    +0.000 C 
ATOM      4  O   UNL     1       4.727   5.494  18.848  0.00  0.00    +0.000 OA
ATOM      5  C   UNL     1       5.192   4.165  18.566  0.00  0.00    +0.000 C 
ATOM      6  C   UNL     1       4.983   3.749  17.091  0.00  0.00    +0.000 C 
ENDROOT
BRANCH   1   7
ATOM      7  C   UNL     1       6.556   4.605  15.365  0.00  0.00    +0.000 C 
BRANCH   7  13
ATOM      8  C   UNL     1       8.309   5.433  12.898  0.00  0.00    +0.000 C 
ATOM      9  N   UNL     1       7.182   4.537  12.898  0.00  0.00    +0.000 N 
ATOM     10  N   UNL     1       6.721   4.054  11.729  0.00  0.00    +0.000 NA
ATOM     11  C   UNL     1       5.600   3.437  12.112  0.00  0.00    +0.000 A 
ATOM     12  N   UNL     1       5.383   3.436  13.464  0.00  0.00    +0.000 NA
ATOM     13  C   UNL     1       6.380   4.156  13.941  0.00  0.00    +0.000 A 
BRANCH  11  14
ATOM     14  C   UNL     1       4.635   2.849  11.091  0.00  0.00    +0.000 C 
ATOM     15  C   UNL     1       3.150   2.874  11.346  0.00  0.00    +0.000 C 
ATOM     16  C   UNL     1       3.731   3.805  10.339  0.00  0.00    +0.000 C 
ENDBRANCH  11  14
ENDBRANCH   7  13
ENDBRANCH   1   7
BRANCH   5  17
ATOM     17  C   UNL     1       4.534   3.172  19.541  0.00  0.00    +0.000 C 
BRANCH  17  18
ATOM     18  N   UNL     1       3.095   3.012  19.410  0.00  0.00    +0.000 N 
ATOM     19  C   UNL     1       2.440   1.954  18.835  0.00  0.00    +0.000 A 
ATOM     20  C   UNL     1       1.117   2.316  18.735  0.00  0.00    +0.000 A 
ATOM     21  C   UNL     1       1.068   3.609  19.290  0.00  0.00    +0.000 A 
ATOM     22  N   UNL     1       2.269   4.044  19.684  0.00  0.00    +0.000 NA
ENDBRANCH  17  18
ENDBRANCH   5  17
TORSDOF 5
ENDMDL
MODEL 9
REMARK VINA RESULT:      -6.3      2.094      6.563
REMARK  Name = 
REMARK  6 active torsions:
REMARK  status: ('A' for Active; 'I' for Inactive)
REMARK    1  A    between atoms: C_1  and  N_2
REMARK    2  A    between atoms: C_4  and  C_5
REMARK    3  A    between atoms: C_9  and  C_10
REMARK    4  A    between atoms: C_10  and  N_11
REMARK    5  A    between atoms: C_15  and  C_16
REMARK    6  A    between atoms: C_16  and  N_17
REMARK                            x       y       z     vdW  Elec       q    Type
REMARK                         _______ _______ _______ _____ _____    ______ ____
ROOT
ATOM      1  N   UNL     1       1.819   6.489  20.027  0.00  0.00    +0.000 NA
ATOM      2  C   UNL     1       1.175   5.262  20.511  0.00  0.00    +0.000 C 
ATOM      3  C   UNL     1       2.120   4.176  21.039  0.00  0.00    +0.000 C 
ATOM      4  O   UNL     1       3.135   3.855  20.086  0.00  0.00    +0.000 OA
ATOM      5  C   UNL     1       3.926   5.011  19.771  0.00  0.00    +0.000 C 
ATOM      6  C   UNL     1       3.079   6.218  19.304  0.00  0.00    +0.000 C 
ENDROOT
BRANCH   1   7
ATOM      7  C   UNL     1       1.874   7.574  21.006  0.00  0.00    +0.000 C 
BRANCH   7  13
ATOM      8  C   UNL     1       0.175   9.445  22.867  0.00  0.00    +0.000 C 
ATOM      9  N   UNL     1       0.325   9.548  21.438  0.00  0.00    +0.000 N 
ATOM     10  N   UNL     1      -0.399  10.459  20.762  0.00  0.00    +0.000 NA
ATOM     11  C   UNL     1      -0.134  10.131  19.495  0.00  0.00    +0.000 A 
ATOM     12  N   UNL     1       0.780   9.124  19.345  0.00  0.00    +0.000 NA
ATOM     13  C   UNL     1       1.041   8.752  20.584  0.00  0.00    +0.000 A 
BRANCH  11  14
ATOM     14  C   UNL     1      -0.860  10.806  18.337  0.00  0.00    +0.000 C 
ATOM     15  C   UNL     1      -1.555   9.976  17.288  0.00  0.00    +0.000 C 
ATOM     16  C   UNL     1      -2.371  10.709  18.296  0.00  0.00    +0.000 C 
ENDBRANCH  11  14
ENDBRANCH   7  13
ENDBRANCH   1   7
BRANCH   5  17
ATOM     17  C   UNL     1       5.004   4.633  18.739  0.00  0.00    +0.000 C 
BRANCH  17  18
ATOM     18  N   UNL     1       6.136   5.539  18.643  0.00  0.00    +0.000 N 
ATOM     19  C   UNL     1       6.434   6.365  17.591  0.00  0.00    +0.000 A 
ATOM     20  C   UNL     1       7.689   6.873  17.831  0.00  0.00    +0.000 A 
ATOM     21  C   UNL     1       8.065   6.304  19.063  0.00  0.00    +0.000 A 
ATOM     22  N   UNL     1       7.133   5.479  19.551  0.00  0.00    +0.000 NA
ENDBRANCH  17  18
ENDBRANCH   5  17
TORSDOF 5
ENDMDL
