MODEL 1
REMARK VINA RESULT:      -7.3      0.000      0.000
REMARK  Name = 
REMARK  7 active torsions:
REMARK  status: ('A' for Active; 'I' for Inactive)
REMARK    1  A    between atoms: C_1  and  S_2
REMARK    2  A    between atoms: S_2  and  N_5
REMARK    3  A    between atoms: N_5  and  C_6
REMARK    4  A    between atoms: C_12  and  O_13
REMARK    5  A    between atoms: O_13  and  C_14
REMARK    6  A    between atoms: C_19  and  C_20
REMARK    7  A    between atoms: C_20  and  O_22
REMARK                            x       y       z     vdW  Elec       q    Type
REMARK                         _______ _______ _______ _____ _____    ______ ____
ROOT
ATOM      1  C   UNL     1       2.685   5.570  19.526  0.00  0.00    +0.000 A 
ATOM      2  C   UNL     1       2.137   6.730  20.086  0.00  0.00    +0.000 A 
ATOM      3  C   UNL     1       2.018   7.892  19.327  0.00  0.00    +0.000 A 
ATOM      4 CL   UNL     1       1.319   9.297  20.031  0.00  0.00    +0.000 Cl
ATOM      5  C   UNL     1       2.455   7.918  18.009  0.00  0.00    +0.000 A 
ATOM      6  C   UNL     1       2.999   6.763  17.440  0.00  0.00    +0.000 A 
ATOM      7  C   UNL     1       3.124   5.579  18.185  0.00  0.00    +0.000 A 
ENDROOT
BRANCH   1   8
ATOM      8  N   UNL     1       2.780   4.462  20.416  0.00  0.00    +0.000 N 
ATOM      9  H   UNL     1       3.674   4.257  20.859  0.00  0.00    +0.000 HD
BRANCH   8  11
ATOM     10  C   UNL     1       1.589   2.544  21.804  0.00  0.00    +0.000 C 
ATOM     11  S   UNL     1       1.886   3.079  20.128  0.00  0.00    +0.000 S 
ATOM     12  O   UNL     1       2.807   2.135  19.529  0.00  0.00    +0.000 OA
ATOM     13  O   UNL     1       0.639   3.432  19.490  0.00  0.00    +0.000 OA
ENDBRANCH   8  11
ENDBRANCH   1   8
BRANCH   7  14
ATOM     14  O   UNL     1       3.597   4.516  17.436  0.00  0.00    +0.000 OA
BRANCH  14  15
ATOM     15  C   UNL     1       4.802   4.572  16.779  0.00  0.00    +0.000 A 
ATOM     16  C   UNL     1       4.886   4.526  15.380  0.00  0.00    +0.000 A 
ATOM     17  C   UNL     1       6.099   4.763  14.737  0.00  0.00    +0.000 A 
ATOM     18  C   UNL     1       7.257   4.944  15.483  0.00  0.00    +0.000 A 
ATOM     19  C   UNL     1       7.210   4.832  16.873  0.00  0.00    +0.000 A 
ATOM     20  C   UNL     1       5.988   4.631  17.535  0.00  0.00    +0.000 A 
BRANCH  20  21
ATOM     21  C   UNL     1       6.079   4.403  19.008  0.00  0.00    +0.000 C 
ATOM     22  O   UNL     1       6.650   5.186  19.753  0.00  0.00    +0.000 OA
BRANCH  21  23
ATOM     23  O   UNL     1       5.491   3.281  19.463  0.00  0.00    +0.000 OA
ATOM     24  H   UNL     1       4.607   3.107  19.081  0.00  0.00    +0.000 HD
ENDBRANCH  21  23
ENDBRANCH  20  21
ENDBRANCH  14  15
ENDBRANCH   7  14
TORSDOF 6
ENDMDL
MODEL 2
REMARK VINA RESULT:      -7.3      0.836      1.043
REMARK  Name = 
REMARK  7 active torsions:
REMARK  status: ('A' for Active; 'I' for Inactive)
REMARK    1  A    between atoms: C_1  and  S_2
REMARK    2  A    between atoms: S_2  and  N_5
REMARK    3  A    between atoms: N_5  and  C_6
REMARK    4  A    between atoms: C_12  and  O_13
REMARK    5  A    between atoms: O_13  and  C_14
REMARK    6  A    between atoms: C_19  and  C_20
REMARK    7  A    between atoms: C_20  and  O_22
REMARK                            x       y       z     vdW  Elec       q    Type
REMARK                         _______ _______ _______ _____ _____    ______ ____
ROOT
ATOM      1  C   UNL     1       2.686   5.494  19.673  0.00  0.00    +0.000 A 
ATOM      2  C   UNL     1       2.130   6.629  20.276  0.00  0.00    +0.000 A 
ATOM      3  C   UNL     1       1.950   7.800  19.545  0.00  0.00    +0.000 A 
ATOM      4 CL   UNL     1       1.244   9.174  20.302  0.00  0.00    +0.000 Cl
ATOM      5  C   UNL     1       2.332   7.861  18.211  0.00  0.00    +0.000 A 
ATOM      6  C   UNL     1       2.883   6.732  17.598  0.00  0.00    +0.000 A 
ATOM      7  C   UNL     1       3.069   5.539  18.316  0.00  0.00    +0.000 A 
ENDROOT
BRANCH   1   8
ATOM      8  N   UNL     1       2.846   4.373  20.538  0.00  0.00    +0.000 N 
ATOM      9  H   UNL     1       3.766   3.948  20.632  0.00  0.00    +0.000 HD
BRANCH   8  11
ATOM     10  C   UNL     1       2.137   2.041  19.496  0.00  0.00    +0.000 C 
ATOM     11  S   UNL     1       1.613   3.254  20.694  0.00  0.00    +0.000 S 
ATOM     12  O   UNL     1       0.428   3.901  20.168  0.00  0.00    +0.000 OA
ATOM     13  O   UNL     1       1.640   2.686  22.022  0.00  0.00    +0.000 OA
ENDBRANCH   8  11
ENDBRANCH   1   8
BRANCH   7  14
ATOM     14  O   UNL     1       3.538   4.502  17.529  0.00  0.00    +0.000 OA
BRANCH  14  15
ATOM     15  C   UNL     1       4.729   4.590  16.849  0.00  0.00    +0.000 A 
ATOM     16  C   UNL     1       4.786   4.581  15.448  0.00  0.00    +0.000 A 
ATOM     17  C   UNL     1       5.982   4.849  14.787  0.00  0.00    +0.000 A 
ATOM     18  C   UNL     1       7.153   5.027  15.515  0.00  0.00    +0.000 A 
ATOM     19  C   UNL     1       7.136   4.879  16.902  0.00  0.00    +0.000 A 
ATOM     20  C   UNL     1       5.930   4.645  17.583  0.00  0.00    +0.000 A 
BRANCH  20  21
ATOM     21  C   UNL     1       6.053   4.382  19.048  0.00  0.00    +0.000 C 
ATOM     22  O   UNL     1       6.642   5.145  19.798  0.00  0.00    +0.000 OA
BRANCH  21  23
ATOM     23  O   UNL     1       5.474   3.249  19.489  0.00  0.00    +0.000 OA
ATOM     24  H   UNL     1       4.840   3.381  20.223  0.00  0.00    +0.000 HD
ENDBRANCH  21  23
ENDBRANCH  20  21
ENDBRANCH  14  15
ENDBRANCH   7  14
TORSDOF 6
ENDMDL
MODEL 3
REMARK VINA RESULT:      -6.9      1.259      1.483
REMARK  Name = 
REMARK  7 active torsions:
REMARK  status: ('A' for Active; 'I' for Inactive)
REMARK    1  A    between atoms: C_1  and  S_2
REMARK    2  A    between atoms: S_2  and  N_5
REMARK    3  A    between atoms: N_5  and  C_6
REMARK    4  A    between atoms: C_12  and  O_13
REMARK    5  A    between atoms: O_13  and  C_14
REMARK    6  A    between atoms: C_19  and  C_20
REMARK    7  A    between atoms: C_20  and  O_22
REMARK                            x       y       z     vdW  Elec       q    Type
REMARK                         _______ _______ _______ _____ _____    ______ ____
ROOT
ATOM      1  C   UNL     1       2.939   5.857  19.942  0.00  0.00    +0.000 A 
ATOM      2  C   UNL     1       2.096   6.970  20.046  0.00  0.00    +0.000 A 
ATOM      3  C   UNL     1       2.058   7.924  19.032  0.00  0.00    +0.000 A 
ATOM      4 CL   UNL     1       0.997   9.271  19.173  0.00  0.00    +0.000 Cl
ATOM      5  C   UNL     1       2.867   7.790  17.911  0.00  0.00    +0.000 A 
ATOM      6  C   UNL     1       3.708   6.680  17.796  0.00  0.00    +0.000 A 
ATOM      7  C   UNL     1       3.758   5.703  18.804  0.00  0.00    +0.000 A 
ENDROOT
BRANCH   1   8
ATOM      8  N   UNL     1       2.907   4.974  21.060  0.00  0.00    +0.000 N 
ATOM      9  H   UNL     1       3.661   5.013  21.743  0.00  0.00    +0.000 HD
BRANCH   8  11
ATOM     10  C   UNL     1       0.894   3.770  19.826  0.00  0.00    +0.000 C 
ATOM     11  S   UNL     1       2.285   3.432  20.890  0.00  0.00    +0.000 S 
ATOM     12  O   UNL     1       1.758   3.076  22.193  0.00  0.00    +0.000 OA
ATOM     13  O   UNL     1       3.243   2.596  20.206  0.00  0.00    +0.000 OA
ENDBRANCH   8  11
ENDBRANCH   1   8
BRANCH   7  14
ATOM     14  O   UNL     1       4.574   4.633  18.481  0.00  0.00    +0.000 OA
BRANCH  14  15
ATOM     15  C   UNL     1       5.366   4.640  17.358  0.00  0.00    +0.000 A 
ATOM     16  C   UNL     1       4.989   3.980  16.180  0.00  0.00    +0.000 A 
ATOM     17  C   UNL     1       5.722   4.151  15.008  0.00  0.00    +0.000 A 
ATOM     18  C   UNL     1       6.895   4.897  15.026  0.00  0.00    +0.000 A 
ATOM     19  C   UNL     1       7.364   5.423  16.229  0.00  0.00    +0.000 A 
ATOM     20  C   UNL     1       6.614   5.290  17.410  0.00  0.00    +0.000 A 
BRANCH  20  21
ATOM     21  C   UNL     1       7.274   5.784  18.655  0.00  0.00    +0.000 C 
ATOM     22  O   UNL     1       8.028   6.746  18.653  0.00  0.00    +0.000 OA
BRANCH  21  23
ATOM     23  O   UNL     1       6.984   5.103  19.780  0.00  0.00    +0.000 OA
ATOM     24  H   UNL     1       7.554   5.328  20.544  0.00  0.00    +0.000 HD
ENDBRANCH  21  23
ENDBRANCH  20  21
ENDBRANCH  14  15
ENDBRANCH   7  14
TORSDOF 6
ENDMDL
MODEL 4
REMARK VINA RESULT:      -6.9      1.278      1.529
REMARK  Name = 
REMARK  7 active torsions:
REMARK  status: ('A' for Active; 'I' for Inactive)
REMARK    1  A    between atoms: C_1  and  S_2
REMARK    2  A    between atoms: S_2  and  N_5
REMARK    3  A    between atoms: N_5  and  C_6
REMARK    4  A    between atoms: C_12  and  O_13
REMARK    5  A    between atoms: O_13  and  C_14
REMARK    6  A    between atoms: C_19  and  C_20
REMARK    7  A    between atoms: C_20  and  O_22
REMARK                            x       y       z     vdW  Elec       q    Type
REMARK                         _______ _______ _______ _____ _____    ______ ____
ROOT
ATOM      1  C   UNL     1       3.013   5.932  19.765  0.00  0.00    +0.000 A 
ATOM      2  C   UNL     1       2.139   7.023  19.837  0.00  0.00    +0.000 A 
ATOM      3  C   UNL     1       2.138   7.993  18.839  0.00  0.00    +0.000 A 
ATOM      4 CL   UNL     1       1.039   9.313  18.938  0.00  0.00    +0.000 Cl
ATOM      5  C   UNL     1       3.014   7.897  17.765  0.00  0.00    +0.000 A 
ATOM      6  C   UNL     1       3.886   6.808  17.681  0.00  0.00    +0.000 A 
ATOM      7  C   UNL     1       3.901   5.816  18.674  0.00  0.00    +0.000 A 
ENDROOT
BRANCH   1   8
ATOM      8  N   UNL     1       2.937   5.029  20.864  0.00  0.00    +0.000 N 
ATOM      9  H   UNL     1       3.750   4.912  21.466  0.00  0.00    +0.000 HD
BRANCH   8  11
ATOM     10  C   UNL     1       3.272   2.528  20.054  0.00  0.00    +0.000 C 
ATOM     11  S   UNL     1       2.039   3.624  20.733  0.00  0.00    +0.000 S 
ATOM     12  O   UNL     1       1.064   3.879  19.693  0.00  0.00    +0.000 OA
ATOM     13  O   UNL     1       1.646   3.176  22.049  0.00  0.00    +0.000 OA
ENDBRANCH   8  11
ENDBRANCH   1   8
BRANCH   7  14
ATOM     14  O   UNL     1       4.759   4.771  18.382  0.00  0.00    +0.000 OA
BRANCH  14  15
ATOM     15  C   UNL     1       5.452   4.712  17.197  0.00  0.00    +0.000 A 
ATOM     16  C   UNL     1       4.949   4.036  16.076  0.00  0.00    +0.000 A 
ATOM     17  C   UNL     1       5.585   4.143  14.842  0.00  0.00    +0.000 A 
ATOM     18  C   UNL     1       6.784   4.838  14.736  0.00  0.00    +0.000 A 
ATOM     19  C   UNL     1       7.374   5.378  15.879  0.00  0.00    +0.000 A 
ATOM     20  C   UNL     1       6.724   5.310  17.122  0.00  0.00    +0.000 A 
BRANCH  20  21
ATOM     21  C   UNL     1       7.508   5.811  18.291  0.00  0.00    +0.000 C 
ATOM     22  O   UNL     1       7.975   6.940  18.324  0.00  0.00    +0.000 OA
BRANCH  21  23
ATOM     23  O   UNL     1       7.666   4.940  19.305  0.00  0.00    +0.000 OA
ATOM     24  H   UNL     1       7.477   5.315  20.190  0.00  0.00    +0.000 HD
ENDBRANCH  21  23
ENDBRANCH  20  21
ENDBRANCH  14  15
ENDBRANCH   7  14
TORSDOF 6
ENDMDL
MODEL 5
REMARK VINA RESULT:      -6.8      2.500      4.546
REMARK  Name = 
REMARK  7 active torsions:
REMARK  status: ('A' for Active; 'I' for Inactive)
REMARK    1  A    between atoms: C_1  and  S_2
REMARK    2  A    between atoms: S_2  and  N_5
REMARK    3  A    between atoms: N_5  and  C_6
REMARK    4  A    between atoms: C_12  and  O_13
REMARK    5  A    between atoms: O_13  and  C_14
REMARK    6  A    between atoms: C_19  and  C_20
REMARK    7  A    between atoms: C_20  and  O_22
REMARK                            x       y       z     vdW  Elec       q    Type
REMARK                         _______ _______ _______ _____ _____    ______ ____
ROOT
ATOM      1  C   UNL     1       3.142   6.584  18.169  0.00  0.00    +0.000 A 
ATOM      2  C   UNL     1       2.897   7.871  17.674  0.00  0.00    +0.000 A 
ATOM      3  C   UNL     1       2.240   8.815  18.457  0.00  0.00    +0.000 A 
ATOM      4 CL   UNL     1       1.972  10.396  17.834  0.00  0.00    +0.000 Cl
ATOM      5  C   UNL     1       1.806   8.488  19.736  0.00  0.00    +0.000 A 
ATOM      6  C   UNL     1       2.050   7.208  20.241  0.00  0.00    +0.000 A 
ATOM      7  C   UNL     1       2.716   6.241  19.470  0.00  0.00    +0.000 A 
ENDROOT
BRANCH   1   8
ATOM      8  N   UNL     1       3.793   5.704  17.257  0.00  0.00    +0.000 N 
ATOM      9  H   UNL     1       3.656   4.700  17.355  0.00  0.00    +0.000 HD
BRANCH   8  11
ATOM     10  C   UNL     1       5.828   4.478  16.082  0.00  0.00    +0.000 C 
ATOM     11  S   UNL     1       5.313   6.081  16.672  0.00  0.00    +0.000 S 
ATOM     12  O   UNL     1       6.115   6.392  17.838  0.00  0.00    +0.000 OA
ATOM     13  O   UNL     1       5.192   7.002  15.566  0.00  0.00    +0.000 OA
ENDBRANCH   8  11
ENDBRANCH   1   8
BRANCH   7  14
ATOM     14  O   UNL     1       2.951   5.066  20.161  0.00  0.00    +0.000 OA
BRANCH  14  15
ATOM     15  C   UNL     1       2.394   3.872  19.770  0.00  0.00    +0.000 A 
ATOM     16  C   UNL     1       1.006   3.696  19.679  0.00  0.00    +0.000 A 
ATOM     17  C   UNL     1       0.476   2.539  19.113  0.00  0.00    +0.000 A 
ATOM     18  C   UNL     1       1.321   1.504  18.728  0.00  0.00    +0.000 A 
ATOM     19  C   UNL     1       2.692   1.606  18.963  0.00  0.00    +0.000 A 
ATOM     20  C   UNL     1       3.242   2.782  19.499  0.00  0.00    +0.000 A 
BRANCH  20  21
ATOM     21  C   UNL     1       4.700   2.728  19.820  0.00  0.00    +0.000 C 
ATOM     22  O   UNL     1       5.177   1.853  20.528  0.00  0.00    +0.000 OA
BRANCH  21  23
ATOM     23  O   UNL     1       5.455   3.703  19.280  0.00  0.00    +0.000 OA
ATOM     24  H   UNL     1       4.941   4.438  18.888  0.00  0.00    +0.000 HD
ENDBRANCH  21  23
ENDBRANCH  20  21
ENDBRANCH  14  15
ENDBRANCH   7  14
TORSDOF 6
ENDMDL
MODEL 6
REMARK VINA RESULT:      -6.7      1.408      2.485
REMARK  Name = 
REMARK  7 active torsions:
REMARK  status: ('A' for Active; 'I' for Inactive)
REMARK    1  A    between atoms: C_1  and  S_2
REMARK    2  A    between atoms: S_2  and  N_5
REMARK    3  A    between atoms: N_5  and  C_6
REMARK    4  A    between atoms: C_12  and  O_13
REMARK    5  A    between atoms: O_13  and  C_14
REMARK    6  A    between atoms: C_19  and  C_20
REMARK    7  A    between atoms: C_20  and  O_22
REMARK                            x       y       z     vdW  Elec       q    Type
REMARK                         _______ _______ _______ _____ _____    ______ ____
ROOT
ATOM      1  C   UNL     1       2.478   6.354  19.818  0.00  0.00    +0.000 A 
ATOM      2  C   UNL     1       1.683   7.372  20.359  0.00  0.00    +0.000 A 
ATOM      3  C   UNL     1       1.462   8.548  19.648  0.00  0.00    +0.000 A 
ATOM      4 CL   UNL     1       0.463   9.774  20.324  0.00  0.00    +0.000 Cl
ATOM      5  C   UNL     1       2.039   8.732  18.398  0.00  0.00    +0.000 A 
ATOM      6  C   UNL     1       2.830   7.720  17.847  0.00  0.00    +0.000 A 
ATOM      7  C   UNL     1       3.062   6.523  18.545  0.00  0.00    +0.000 A 
ENDROOT
BRANCH   1   8
ATOM      8  N   UNL     1       2.651   5.217  20.660  0.00  0.00    +0.000 N 
ATOM      9  H   UNL     1       3.477   5.161  21.252  0.00  0.00    +0.000 HD
BRANCH   8  11
ATOM     10  C   UNL     1       1.599   3.020  21.703  0.00  0.00    +0.000 C 
ATOM     11  S   UNL     1       2.135   3.712  20.149  0.00  0.00    +0.000 S 
ATOM     12  O   UNL     1       3.333   3.002  19.748  0.00  0.00    +0.000 OA
ATOM     13  O   UNL     1       1.008   3.862  19.257  0.00  0.00    +0.000 OA
ENDBRANCH   8  11
ENDBRANCH   1   8
BRANCH   7  14
ATOM     14  O   UNL     1       3.788   5.602  17.813  0.00  0.00    +0.000 OA
BRANCH  14  15
ATOM     15  C   UNL     1       5.149   5.475  17.953  0.00  0.00    +0.000 A 
ATOM     16  C   UNL     1       5.771   5.504  19.210  0.00  0.00    +0.000 A 
ATOM     17  C   UNL     1       7.124   5.197  19.337  0.00  0.00    +0.000 A 
ATOM     18  C   UNL     1       7.891   4.960  18.202  0.00  0.00    +0.000 A 
ATOM     19  C   UNL     1       7.316   5.087  16.938  0.00  0.00    +0.000 A 
ATOM     20  C   UNL     1       5.945   5.359  16.798  0.00  0.00    +0.000 A 
BRANCH  20  21
ATOM     21  C   UNL     1       5.471   5.595  15.401  0.00  0.00    +0.000 C 
ATOM     22  O   UNL     1       5.450   4.706  14.563  0.00  0.00    +0.000 OA
BRANCH  21  23
ATOM     23  O   UNL     1       5.068   6.849  15.125  0.00  0.00    +0.000 OA
ATOM     24  H   UNL     1       5.747   7.403  14.690  0.00  0.00    +0.000 HD
ENDBRANCH  21  23
ENDBRANCH  20  21
ENDBRANCH  14  15
ENDBRANCH   7  14
TORSDOF 6
ENDMDL
MODEL 7
REMARK VINA RESULT:      -6.6      3.287      5.569
REMARK  Name = 
REMARK  7 active torsions:
REMARK  status: ('A' for Active; 'I' for Inactive)
REMARK    1  A    between atoms: C_1  and  S_2
REMARK    2  A    between atoms: S_2  and  N_5
REMARK    3  A    between atoms: N_5  and  C_6
REMARK    4  A    between atoms: C_12  and  O_13
REMARK    5  A    between atoms: O_13  and  C_14
REMARK    6  A    between atoms: C_19  and  C_20
REMARK    7  A    between atoms: C_20  and  O_22
REMARK                            x       y       z     vdW  Elec       q    Type
REMARK                         _______ _______ _______ _____ _____    ______ ____
ROOT
ATOM      1  C   UNL     1       6.642   4.275  16.458  0.00  0.00    +0.000 A 
ATOM      2  C   UNL     1       7.490   4.902  15.537  0.00  0.00    +0.000 A 
ATOM      3  C   UNL     1       7.170   4.920  14.182  0.00  0.00    +0.000 A 
ATOM      4 CL   UNL     1       8.217   5.716  13.073  0.00  0.00    +0.000 Cl
ATOM      5  C   UNL     1       6.011   4.305  13.726  0.00  0.00    +0.000 A 
ATOM      6  C   UNL     1       5.155   3.682  14.638  0.00  0.00    +0.000 A 
ATOM      7  C   UNL     1       5.456   3.656  16.010  0.00  0.00    +0.000 A 
ENDROOT
BRANCH   1   8
ATOM      8  N   UNL     1       7.100   4.299  17.807  0.00  0.00    +0.000 N 
ATOM      9  H   UNL     1       7.014   3.458  18.374  0.00  0.00    +0.000 HD
BRANCH   8  11
ATOM     10  C   UNL     1       6.299   6.805  17.483  0.00  0.00    +0.000 C 
ATOM     11  S   UNL     1       6.949   5.693  18.718  0.00  0.00    +0.000 S 
ATOM     12  O   UNL     1       8.303   6.117  19.013  0.00  0.00    +0.000 OA
ATOM     13  O   UNL     1       5.974   5.486  19.763  0.00  0.00    +0.000 OA
ENDBRANCH   8  11
ENDBRANCH   1   8
BRANCH   7  14
ATOM     14  O   UNL     1       4.456   3.080  16.772  0.00  0.00    +0.000 OA
BRANCH  14  15
ATOM     15  C   UNL     1       3.784   3.787  17.740  0.00  0.00    +0.000 A 
ATOM     16  C   UNL     1       3.292   5.080  17.506  0.00  0.00    +0.000 A 
ATOM     17  C   UNL     1       2.465   5.700  18.440  0.00  0.00    +0.000 A 
ATOM     18  C   UNL     1       2.206   5.082  19.658  0.00  0.00    +0.000 A 
ATOM     19  C   UNL     1       2.822   3.869  19.963  0.00  0.00    +0.000 A 
ATOM     20  C   UNL     1       3.627   3.215  19.017  0.00  0.00    +0.000 A 
BRANCH  20  21
ATOM     21  C   UNL     1       4.330   1.989  19.500  0.00  0.00    +0.000 C 
ATOM     22  O   UNL     1       4.944   1.966  20.557  0.00  0.00    +0.000 OA
BRANCH  21  23
ATOM     23  O   UNL     1       4.245   0.911  18.698  0.00  0.00    +0.000 OA
ATOM     24  H   UNL     1       5.000   0.807  18.083  0.00  0.00    +0.000 HD
ENDBRANCH  21  23
ENDBRANCH  20  21
ENDBRANCH  14  15
ENDBRANCH   7  14
TORSDOF 6
ENDMDL
MODEL 8
REMARK VINA RESULT:      -6.6      3.453      6.186
REMARK  Name = 
REMARK  7 active torsions:
REMARK  status: ('A' for Active; 'I' for Inactive)
REMARK    1  A    between atoms: C_1  and  S_2
REMARK    2  A    between atoms: S_2  and  N_5
REMARK    3  A    between atoms: N_5  and  C_6
REMARK    4  A    between atoms: C_12  and  O_13
REMARK    5  A    between atoms: O_13  and  C_14
REMARK    6  A    between atoms: C_19  and  C_20
REMARK    7  A    between atoms: C_20  and  O_22
REMARK                            x       y       z     vdW  Elec       q    Type
REMARK                         _______ _______ _______ _____ _____    ______ ____
ROOT
ATOM      1  C   UNL     1       3.142   5.436  18.908  0.00  0.00    +0.000 A 
ATOM      2  C   UNL     1       2.838   4.106  18.595  0.00  0.00    +0.000 A 
ATOM      3  C   UNL     1       1.820   3.437  19.269  0.00  0.00    +0.000 A 
ATOM      4 CL   UNL     1       1.450   1.810  18.850  0.00  0.00    +0.000 Cl
ATOM      5  C   UNL     1       1.101   4.078  20.270  0.00  0.00    +0.000 A 
ATOM      6  C   UNL     1       1.393   5.407  20.586  0.00  0.00    +0.000 A 
ATOM      7  C   UNL     1       2.414   6.102  19.916  0.00  0.00    +0.000 A 
ENDROOT
BRANCH   1   8
ATOM      8  N   UNL     1       4.225   5.994  18.169  0.00  0.00    +0.000 N 
ATOM      9  H   UNL     1       4.046   6.383  17.246  0.00  0.00    +0.000 HD
BRANCH   8  11
ATOM     10  C   UNL     1       6.733   6.660  17.632  0.00  0.00    +0.000 C 
ATOM     11  S   UNL     1       5.752   5.322  18.287  0.00  0.00    +0.000 S 
ATOM     12  O   UNL     1       5.782   4.247  17.316  0.00  0.00    +0.000 OA
ATOM     13  O   UNL     1       6.078   5.100  19.676  0.00  0.00    +0.000 OA
ENDBRANCH   8  11
ENDBRANCH   1   8
BRANCH   7  14
ATOM     14  O   UNL     1       2.501   7.431  20.293  0.00  0.00    +0.000 OA
BRANCH  14  15
ATOM     15  C   UNL     1       1.703   8.397  19.731  0.00  0.00    +0.000 A 
ATOM     16  C   UNL     1       1.775   8.719  18.368  0.00  0.00    +0.000 A 
ATOM     17  C   UNL     1       0.837   9.572  17.793  0.00  0.00    +0.000 A 
ATOM     18  C   UNL     1      -0.119  10.192  18.589  0.00  0.00    +0.000 A 
ATOM     19  C   UNL     1      -0.098  10.003  19.971  0.00  0.00    +0.000 A 
ATOM     20  C   UNL     1       0.820   9.117  20.559  0.00  0.00    +0.000 A 
BRANCH  20  21
ATOM     21  C   UNL     1       0.829   9.091  22.052  0.00  0.00    +0.000 C 
ATOM     22  O   UNL     1      -0.198   9.000  22.707  0.00  0.00    +0.000 OA
BRANCH  21  23
ATOM     23  O   UNL     1       2.042   9.174  22.631  0.00  0.00    +0.000 OA
ATOM     24  H   UNL     1       2.776   8.840  22.076  0.00  0.00    +0.000 HD
ENDBRANCH  21  23
ENDBRANCH  20  21
ENDBRANCH  14  15
ENDBRANCH   7  14
TORSDOF 6
ENDMDL
MODEL 9
REMARK VINA RESULT:      -6.6      3.502      6.233
REMARK  Name = 
REMARK  7 active torsions:
REMARK  status: ('A' for Active; 'I' for Inactive)
REMARK    1  A    between atoms: C_1  and  S_2
REMARK    2  A    between atoms: S_2  and  N_5
REMARK    3  A    between atoms: N_5  and  C_6
REMARK    4  A    between atoms: C_12  and  O_13
REMARK    5  A    between atoms: O_13  and  C_14
REMARK    6  A    between atoms: C_19  and  C_20
REMARK    7  A    between atoms: C_20  and  O_22
REMARK                            x       y       z     vdW  Elec       q    Type
REMARK                         _______ _______ _______ _____ _____    ______ ____
ROOT
ATOM      1  C   UNL     1       2.724   5.540  18.583  0.00  0.00    +0.000 A 
ATOM      2  C   UNL     1       2.341   4.219  18.325  0.00  0.00    +0.000 A 
ATOM      3  C   UNL     1       1.485   3.549  19.194  0.00  0.00    +0.000 A 
ATOM      4 CL   UNL     1       1.011   1.933  18.843  0.00  0.00    +0.000 Cl
ATOM      5  C   UNL     1       1.010   4.180  20.337  0.00  0.00    +0.000 A 
ATOM      6  C   UNL     1       1.382   5.501  20.601  0.00  0.00    +0.000 A 
ATOM      7  C   UNL     1       2.241   6.197  19.735  0.00  0.00    +0.000 A 
ENDROOT
BRANCH   1   8
ATOM      8  N   UNL     1       3.628   6.100  17.634  0.00  0.00    +0.000 N 
ATOM      9  H   UNL     1       3.353   6.142  16.655  0.00  0.00    +0.000 HD
BRANCH   8  11
ATOM     10  C   UNL     1       5.534   4.487  16.744  0.00  0.00    +0.000 C 
ATOM     11  S   UNL     1       5.276   5.886  17.821  0.00  0.00    +0.000 S 
ATOM     12  O   UNL     1       5.458   5.425  19.183  0.00  0.00    +0.000 OA
ATOM     13  O   UNL     1       5.975   7.042  17.311  0.00  0.00    +0.000 OA
ENDBRANCH   8  11
ENDBRANCH   1   8
BRANCH   7  14
ATOM     14  O   UNL     1       2.427   7.518  20.103  0.00  0.00    +0.000 OA
BRANCH  14  15
ATOM     15  C   UNL     1       1.596   8.517  19.658  0.00  0.00    +0.000 A 
ATOM     16  C   UNL     1       1.579   8.926  18.317  0.00  0.00    +0.000 A 
ATOM     17  C   UNL     1       0.606   9.812  17.861  0.00  0.00    +0.000 A 
ATOM     18  C   UNL     1      -0.293  10.379  18.757  0.00  0.00    +0.000 A 
ATOM     19  C   UNL     1      -0.180  10.102  20.119  0.00  0.00    +0.000 A 
ATOM     20  C   UNL     1       0.772   9.181  20.587  0.00  0.00    +0.000 A 
BRANCH  20  21
ATOM     21  C   UNL     1       0.880   9.060  22.072  0.00  0.00    +0.000 C 
ATOM     22  O   UNL     1      -0.101   8.911  22.785  0.00  0.00    +0.000 OA
BRANCH  21  23
ATOM     23  O   UNL     1       2.128   9.124  22.574  0.00  0.00    +0.000 OA
ATOM     24  H   UNL     1       2.813   8.722  22.002  0.00  0.00    +0.000 HD
ENDBRANCH  21  23
ENDBRANCH  20  21
ENDBRANCH  14  15
ENDBRANCH   7  14
TORSDOF 6
ENDMDL
