MODEL 1
REMARK VINA RESULT:      -8.5      0.000      0.000
REMARK  Name = 
REMARK  7 active torsions:
REMARK  status: ('A' for Active; 'I' for Inactive)
REMARK    1  A    between atoms: C_1  and  C_2
REMARK    2  A    between atoms: C_4  and  N_5
REMARK    3  A    between atoms: N_5  and  C_6
REMARK    4  A    between atoms: C_11  and  C_12
REMARK    5  A    between atoms: C_12  and  O_14
REMARK    6  A    between atoms: N_15  and  C_16
REMARK    7  A    between atoms: C_19  and  N_20
REMARK                            x       y       z     vdW  Elec       q    Type
REMARK                         _______ _______ _______ _____ _____    ______ ____
ROOT
ATOM      1  C   UNL     1       1.161   2.572  20.949  0.00  0.00    +0.000 C 
ATOM      2  C   UNL     1       1.947   3.754  20.521  0.00  0.00    +0.000 A 
ATOM      3  C   UNL     1       3.277   3.774  20.062  0.00  0.00    +0.000 A 
ATOM      4  C   UNL     1       3.549   5.087  19.743  0.00  0.00    +0.000 A 
ATOM      5  N   UNL     1       2.348   5.777  19.955  0.00  0.00    +0.000 N 
ATOM      6  N   UNL     1       1.416   4.981  20.545  0.00  0.00    +0.000 NA
ENDROOT
BRANCH   5   7
ATOM      7  C   UNL     1       2.051   7.141  19.675  0.00  0.00    +0.000 A 
ATOM      8  C   UNL     1       1.494   7.971  20.660  0.00  0.00    +0.000 A 
ATOM      9  C   UNL     1       1.121   9.279  20.350  0.00  0.00    +0.000 A 
ATOM     10  C   UNL     1       1.322   9.767  19.052  0.00  0.00    +0.000 A 
ATOM     11  C   UNL     1       1.926   8.962  18.075  0.00  0.00    +0.000 A 
ATOM     12  C   UNL     1       2.309   7.655  18.394  0.00  0.00    +0.000 A 
BRANCH  10  13
ATOM     13  N   UNL     1       0.889  11.129  18.717  0.00  0.00    +0.000 N 
ATOM     14  O   UNL     1      -0.325  11.376  18.763  0.00  0.00    +0.000 OA
ATOM     15  O   UNL     1       1.761  11.948  18.396  0.00  0.00    +0.000 OA
ENDBRANCH  10  13
ENDBRANCH   5   7
BRANCH   4  16
ATOM     16  N   UNL     1       4.718   5.679  19.335  0.00  0.00    +0.000 N 
ATOM     17  H   UNL     1       5.424   5.854  20.059  0.00  0.00    +0.000 HD
BRANCH  16  18
ATOM     18  C   UNL     1       5.412   5.287  18.152  0.00  0.00    +0.000 A 
ATOM     19  C   UNL     1       4.706   4.714  17.078  0.00  0.00    +0.000 A 
ATOM     20  C   UNL     1       5.367   4.288  15.927  0.00  0.00    +0.000 A 
ATOM     21  C   UNL     1       6.750   4.392  15.840  0.00  0.00    +0.000 A 
ATOM     22  C   UNL     1       7.477   4.892  16.921  0.00  0.00    +0.000 A 
ATOM     23  C   UNL     1       6.821   5.328  18.083  0.00  0.00    +0.000 A 
BRANCH  23  24
ATOM     24  C   UNL     1       7.690   5.813  19.194  0.00  0.00    +0.000 C 
ATOM     25  O   UNL     1       7.784   5.230  20.261  0.00  0.00    +0.000 OA
BRANCH  24  26
ATOM     26  O   UNL     1       8.383   6.937  18.914  0.00  0.00    +0.000 OA
ATOM     27  H   UNL     1       8.706   6.956  17.989  0.00  0.00    +0.000 HD
ENDBRANCH  24  26
ENDBRANCH  23  24
ENDBRANCH  16  18
ENDBRANCH   4  16
TORSDOF 6
ENDMDL
MODEL 2
REMARK VINA RESULT:      -8.2      0.452      1.245
REMARK  Name = 
REMARK  7 active torsions:
REMARK  status: ('A' for Active; 'I' for Inactive)
REMARK    1  A    between atoms: C_1  and  C_2
REMARK    2  A    between atoms: C_4  and  N_5
REMARK    3  A    between atoms: N_5  and  C_6
REMARK    4  A    between atoms: C_11  and  C_12
REMARK    5  A    between atoms: C_12  and  O_14
REMARK    6  A    between atoms: N_15  and  C_16
REMARK    7  A    between atoms: C_19  and  N_20
REMARK                            x       y       z     vdW  Elec       q    Type
REMARK                         _______ _______ _______ _____ _____    ______ ____
ROOT
ATOM      1  C   UNL     1       1.464   2.444  21.434  0.00  0.00    +0.000 C 
ATOM      2  C   UNL     1       2.193   3.599  20.856  0.00  0.00    +0.000 A 
ATOM      3  C   UNL     1       3.510   3.614  20.360  0.00  0.00    +0.000 A 
ATOM      4  C   UNL     1       3.723   4.893  19.890  0.00  0.00    +0.000 A 
ATOM      5  N   UNL     1       2.502   5.560  20.059  0.00  0.00    +0.000 N 
ATOM      6  N   UNL     1       1.616   4.801  20.760  0.00  0.00    +0.000 NA
ENDROOT
BRANCH   5   7
ATOM      7  C   UNL     1       2.146   6.873  19.640  0.00  0.00    +0.000 A 
ATOM      8  C   UNL     1       2.412   7.306  18.332  0.00  0.00    +0.000 A 
ATOM      9  C   UNL     1       2.146   8.623  17.957  0.00  0.00    +0.000 A 
ATOM     10  C   UNL     1       1.593   9.509  18.892  0.00  0.00    +0.000 A 
ATOM     11  C   UNL     1       1.275   9.072  20.186  0.00  0.00    +0.000 A 
ATOM     12  C   UNL     1       1.534   7.747  20.553  0.00  0.00    +0.000 A 
BRANCH  10  13
ATOM     13  N   UNL     1       1.354  10.905  18.508  0.00  0.00    +0.000 N 
ATOM     14  O   UNL     1       0.215  11.364  18.684  0.00  0.00    +0.000 OA
ATOM     15  O   UNL     1       2.299  11.540  18.020  0.00  0.00    +0.000 OA
ENDBRANCH  10  13
ENDBRANCH   5   7
BRANCH   4  16
ATOM     16  N   UNL     1       4.859   5.477  19.386  0.00  0.00    +0.000 N 
ATOM     17  H   UNL     1       5.664   5.542  20.019  0.00  0.00    +0.000 HD
BRANCH  16  18
ATOM     18  C   UNL     1       5.364   5.189  18.084  0.00  0.00    +0.000 A 
ATOM     19  C   UNL     1       4.581   4.462  17.169  0.00  0.00    +0.000 A 
ATOM     20  C   UNL     1       5.067   4.135  15.904  0.00  0.00    +0.000 A 
ATOM     21  C   UNL     1       6.360   4.495  15.542  0.00  0.00    +0.000 A 
ATOM     22  C   UNL     1       7.179   5.153  16.460  0.00  0.00    +0.000 A 
ATOM     23  C   UNL     1       6.697   5.491  17.734  0.00  0.00    +0.000 A 
BRANCH  23  24
ATOM     24  C   UNL     1       7.661   6.163  18.652  0.00  0.00    +0.000 C 
ATOM     25  O   UNL     1       8.180   7.236  18.394  0.00  0.00    +0.000 OA
BRANCH  24  26
ATOM     26  O   UNL     1       7.895   5.499  19.804  0.00  0.00    +0.000 OA
ATOM     27  H   UNL     1       7.480   4.611  19.814  0.00  0.00    +0.000 HD
ENDBRANCH  24  26
ENDBRANCH  23  24
ENDBRANCH  16  18
ENDBRANCH   4  16
TORSDOF 6
ENDMDL
MODEL 3
REMARK VINA RESULT:      -8.2      4.588      7.301
REMARK  Name = 
REMARK  7 active torsions:
REMARK  status: ('A' for Active; 'I' for Inactive)
REMARK    1  A    between atoms: C_1  and  C_2
REMARK    2  A    between atoms: C_4  and  N_5
REMARK    3  A    between atoms: N_5  and  C_6
REMARK    4  A    between atoms: C_11  and  C_12
REMARK    5  A    between atoms: C_12  and  O_14
REMARK    6  A    between atoms: N_15  and  C_16
REMARK    7  A    between atoms: C_19  and  N_20
REMARK                            x       y       z     vdW  Elec       q    Type
REMARK                         _______ _______ _______ _____ _____    ______ ____
ROOT
ATOM      1  C   UNL     1       8.307   8.465  18.070  0.00  0.00    +0.000 C 
ATOM      2  C   UNL     1       7.638   7.173  17.778  0.00  0.00    +0.000 A 
ATOM      3  C   UNL     1       6.963   6.338  18.687  0.00  0.00    +0.000 A 
ATOM      4  C   UNL     1       6.475   5.285  17.943  0.00  0.00    +0.000 A 
ATOM      5  N   UNL     1       6.817   5.577  16.616  0.00  0.00    +0.000 N 
ATOM      6  N   UNL     1       7.631   6.665  16.542  0.00  0.00    +0.000 NA
ENDROOT
BRANCH   5   7
ATOM      7  C   UNL     1       6.459   4.868  15.435  0.00  0.00    +0.000 A 
ATOM      8  C   UNL     1       7.342   4.793  14.347  0.00  0.00    +0.000 A 
ATOM      9  C   UNL     1       6.947   4.176  13.160  0.00  0.00    +0.000 A 
ATOM     10  C   UNL     1       5.666   3.615  13.065  0.00  0.00    +0.000 A 
ATOM     11  C   UNL     1       4.795   3.639  14.164  0.00  0.00    +0.000 A 
ATOM     12  C   UNL     1       5.201   4.249  15.356  0.00  0.00    +0.000 A 
BRANCH  10  13
ATOM     13  N   UNL     1       5.237   3.005  11.801  0.00  0.00    +0.000 N 
ATOM     14  O   UNL     1       4.269   3.512  11.215  0.00  0.00    +0.000 OA
ATOM     15  O   UNL     1       5.859   2.011  11.400  0.00  0.00    +0.000 OA
ENDBRANCH  10  13
ENDBRANCH   5   7
BRANCH   4  16
ATOM     16  N   UNL     1       5.820   4.145  18.340  0.00  0.00    +0.000 N 
ATOM     17  H   UNL     1       6.247   3.610  19.105  0.00  0.00    +0.000 HD
BRANCH  16  18
ATOM     18  C   UNL     1       4.406   4.087  18.518  0.00  0.00    +0.000 A 
ATOM     19  C   UNL     1       3.614   5.218  18.242  0.00  0.00    +0.000 A 
ATOM     20  C   UNL     1       2.235   5.198  18.444  0.00  0.00    +0.000 A 
ATOM     21  C   UNL     1       1.625   4.062  18.961  0.00  0.00    +0.000 A 
ATOM     22  C   UNL     1       2.400   2.955  19.309  0.00  0.00    +0.000 A 
ATOM     23  C   UNL     1       3.788   2.963  19.104  0.00  0.00    +0.000 A 
BRANCH  23  24
ATOM     24  C   UNL     1       4.531   1.745  19.539  0.00  0.00    +0.000 C 
ATOM     25  O   UNL     1       5.197   1.707  20.560  0.00  0.00    +0.000 OA
BRANCH  24  26
ATOM     26  O   UNL     1       4.385   0.678  18.725  0.00  0.00    +0.000 OA
ATOM     27  H   UNL     1       5.049   0.664  18.005  0.00  0.00    +0.000 HD
ENDBRANCH  24  26
ENDBRANCH  23  24
ENDBRANCH  16  18
ENDBRANCH   4  16
TORSDOF 6
ENDMDL
MODEL 4
REMARK VINA RESULT:      -8.1      0.480      1.236
REMARK  Name = 
REMARK  7 active torsions:
REMARK  status: ('A' for Active; 'I' for Inactive)
REMARK    1  A    between atoms: C_1  and  C_2
REMARK    2  A    between atoms: C_4  and  N_5
REMARK    3  A    between atoms: N_5  and  C_6
REMARK    4  A    between atoms: C_11  and  C_12
REMARK    5  A    between atoms: C_12  and  O_14
REMARK    6  A    between atoms: N_15  and  C_16
REMARK    7  A    between atoms: C_19  and  N_20
REMARK                            x       y       z     vdW  Elec       q    Type
REMARK                         _______ _______ _______ _____ _____    ______ ____
ROOT
ATOM      1  C   UNL     1       1.594   2.840  20.930  0.00  0.00    +0.000 C 
ATOM      2  C   UNL     1       2.208   4.081  20.397  0.00  0.00    +0.000 A 
ATOM      3  C   UNL     1       3.448   4.207  19.744  0.00  0.00    +0.000 A 
ATOM      4  C   UNL     1       3.561   5.537  19.398  0.00  0.00    +0.000 A 
ATOM      5  N   UNL     1       2.353   6.127  19.793  0.00  0.00    +0.000 N 
ATOM      6  N   UNL     1       1.588   5.260  20.510  0.00  0.00    +0.000 NA
ENDROOT
BRANCH   5   7
ATOM      7  C   UNL     1       1.908   7.461  19.571  0.00  0.00    +0.000 A 
ATOM      8  C   UNL     1       2.096   8.084  18.328  0.00  0.00    +0.000 A 
ATOM      9  C   UNL     1       1.741   9.421  18.148  0.00  0.00    +0.000 A 
ATOM     10  C   UNL     1       1.179  10.136  19.213  0.00  0.00    +0.000 A 
ATOM     11  C   UNL     1       0.939   9.508  20.445  0.00  0.00    +0.000 A 
ATOM     12  C   UNL     1       1.287   8.164  20.616  0.00  0.00    +0.000 A 
BRANCH  10  13
ATOM     13  N   UNL     1       0.846  11.554  19.035  0.00  0.00    +0.000 N 
ATOM     14  O   UNL     1       1.746  12.385  19.222  0.00  0.00    +0.000 OA
ATOM     15  O   UNL     1      -0.319  11.838  18.721  0.00  0.00    +0.000 OA
ENDBRANCH  10  13
ENDBRANCH   5   7
BRANCH   4  16
ATOM     16  N   UNL     1       4.604   6.220  18.824  0.00  0.00    +0.000 N 
ATOM     17  H   UNL     1       5.256   6.690  19.463  0.00  0.00    +0.000 HD
BRANCH  16  18
ATOM     18  C   UNL     1       5.375   5.692  17.746  0.00  0.00    +0.000 A 
ATOM     19  C   UNL     1       4.734   5.234  16.580  0.00  0.00    +0.000 A 
ATOM     20  C   UNL     1       5.461   4.678  15.528  0.00  0.00    +0.000 A 
ATOM     21  C   UNL     1       6.839   4.537  15.635  0.00  0.00    +0.000 A 
ATOM     22  C   UNL     1       7.487   4.920  16.810  0.00  0.00    +0.000 A 
ATOM     23  C   UNL     1       6.764   5.484  17.873  0.00  0.00    +0.000 A 
BRANCH  23  24
ATOM     24  C   UNL     1       7.543   5.828  19.097  0.00  0.00    +0.000 C 
ATOM     25  O   UNL     1       7.425   5.220  20.148  0.00  0.00    +0.000 OA
BRANCH  24  26
ATOM     26  O   UNL     1       8.409   6.852  18.942  0.00  0.00    +0.000 OA
ATOM     27  H   UNL     1       8.034   7.707  19.243  0.00  0.00    +0.000 HD
ENDBRANCH  24  26
ENDBRANCH  23  24
ENDBRANCH  16  18
ENDBRANCH   4  16
TORSDOF 6
ENDMDL
MODEL 5
REMARK VINA RESULT:      -8.1      0.750      1.040
REMARK  Name = 
REMARK  7 active torsions:
REMARK  status: ('A' for Active; 'I' for Inactive)
REMARK    1  A    between atoms: C_1  and  C_2
REMARK    2  A    between atoms: C_4  and  N_5
REMARK    3  A    between atoms: N_5  and  C_6
REMARK    4  A    between atoms: C_11  and  C_12
REMARK    5  A    between atoms: C_12  and  O_14
REMARK    6  A    between atoms: N_15  and  C_16
REMARK    7  A    between atoms: C_19  and  N_20
REMARK                            x       y       z     vdW  Elec       q    Type
REMARK                         _______ _______ _______ _____ _____    ______ ____
ROOT
ATOM      1  C   UNL     1       1.850   2.570  21.301  0.00  0.00    +0.000 C 
ATOM      2  C   UNL     1       2.473   3.760  20.670  0.00  0.00    +0.000 A 
ATOM      3  C   UNL     1       3.702   3.818  19.988  0.00  0.00    +0.000 A 
ATOM      4  C   UNL     1       3.828   5.118  19.546  0.00  0.00    +0.000 A 
ATOM      5  N   UNL     1       2.637   5.755  19.919  0.00  0.00    +0.000 N 
ATOM      6  N   UNL     1       1.873   4.954  20.710  0.00  0.00    +0.000 NA
ENDROOT
BRANCH   5   7
ATOM      7  C   UNL     1       2.209   7.077  19.611  0.00  0.00    +0.000 A 
ATOM      8  C   UNL     1       1.626   7.891  20.594  0.00  0.00    +0.000 A 
ATOM      9  C   UNL     1       1.125   9.149  20.262  0.00  0.00    +0.000 A 
ATOM     10  C   UNL     1       1.221   9.605  18.940  0.00  0.00    +0.000 A 
ATOM     11  C   UNL     1       1.849   8.821  17.961  0.00  0.00    +0.000 A 
ATOM     12  C   UNL     1       2.360   7.564  18.303  0.00  0.00    +0.000 A 
BRANCH  10  13
ATOM     13  N   UNL     1       0.655  10.911  18.583  0.00  0.00    +0.000 N 
ATOM     14  O   UNL     1       1.412  11.892  18.601  0.00  0.00    +0.000 OA
ATOM     15  O   UNL     1      -0.550  10.958  18.299  0.00  0.00    +0.000 OA
ENDBRANCH  10  13
ENDBRANCH   5   7
BRANCH   4  16
ATOM     16  N   UNL     1       4.871   5.741  18.906  0.00  0.00    +0.000 N 
ATOM     17  H   UNL     1       5.710   5.928  19.466  0.00  0.00    +0.000 HD
BRANCH  16  18
ATOM     18  C   UNL     1       5.306   5.374  17.598  0.00  0.00    +0.000 A 
ATOM     19  C   UNL     1       4.575   4.433  16.850  0.00  0.00    +0.000 A 
ATOM     20  C   UNL     1       5.001   4.030  15.585  0.00  0.00    +0.000 A 
ATOM     21  C   UNL     1       6.184   4.531  15.058  0.00  0.00    +0.000 A 
ATOM     22  C   UNL     1       6.962   5.411  15.812  0.00  0.00    +0.000 A 
ATOM     23  C   UNL     1       6.540   5.827  17.085  0.00  0.00    +0.000 A 
BRANCH  23  24
ATOM     24  C   UNL     1       7.457   6.742  17.823  0.00  0.00    +0.000 C 
ATOM     25  O   UNL     1       7.934   6.462  18.910  0.00  0.00    +0.000 OA
BRANCH  24  26
ATOM     26  O   UNL     1       7.738   7.894  17.179  0.00  0.00    +0.000 OA
ATOM     27  H   UNL     1       8.163   8.555  17.765  0.00  0.00    +0.000 HD
ENDBRANCH  24  26
ENDBRANCH  23  24
ENDBRANCH  16  18
ENDBRANCH   4  16
TORSDOF 6
ENDMDL
MODEL 6
REMARK VINA RESULT:      -7.9      4.504      7.446
REMARK  Name = 
REMARK  7 active torsions:
REMARK  status: ('A' for Active; 'I' for Inactive)
REMARK    1  A    between atoms: C_1  and  C_2
REMARK    2  A    between atoms: C_4  and  N_5
REMARK    3  A    between atoms: N_5  and  C_6
REMARK    4  A    between atoms: C_11  and  C_12
REMARK    5  A    between atoms: C_12  and  O_14
REMARK    6  A    between atoms: N_15  and  C_16
REMARK    7  A    between atoms: C_19  and  N_20
REMARK                            x       y       z     vdW  Elec       q    Type
REMARK                         _______ _______ _______ _____ _____    ______ ____
ROOT
ATOM      1  C   UNL     1       8.228   8.376  18.004  0.00  0.00    +0.000 C 
ATOM      2  C   UNL     1       7.535   7.117  17.636  0.00  0.00    +0.000 A 
ATOM      3  C   UNL     1       6.783   6.279  18.481  0.00  0.00    +0.000 A 
ATOM      4  C   UNL     1       6.303   5.265  17.679  0.00  0.00    +0.000 A 
ATOM      5  N   UNL     1       6.727   5.585  16.382  0.00  0.00    +0.000 N 
ATOM      6  N   UNL     1       7.578   6.646  16.386  0.00  0.00    +0.000 NA
ENDROOT
BRANCH   5   7
ATOM      7  C   UNL     1       6.411   4.924  15.161  0.00  0.00    +0.000 A 
ATOM      8  C   UNL     1       5.124   4.414  14.933  0.00  0.00    +0.000 A 
ATOM      9  C   UNL     1       4.849   3.687  13.775  0.00  0.00    +0.000 A 
ATOM     10  C   UNL     1       5.863   3.483  12.830  0.00  0.00    +0.000 A 
ATOM     11  C   UNL     1       7.139   4.033  13.023  0.00  0.00    +0.000 A 
ATOM     12  C   UNL     1       7.405   4.771  14.182  0.00  0.00    +0.000 A 
BRANCH  10  13
ATOM     13  N   UNL     1       5.583   2.681  11.632  0.00  0.00    +0.000 N 
ATOM     14  O   UNL     1       6.479   1.930  11.220  0.00  0.00    +0.000 OA
ATOM     15  O   UNL     1       4.474   2.813  11.096  0.00  0.00    +0.000 OA
ENDBRANCH  10  13
ENDBRANCH   5   7
BRANCH   4  16
ATOM     16  N   UNL     1       5.590   4.138  18.004  0.00  0.00    +0.000 N 
ATOM     17  H   UNL     1       6.007   3.514  18.704  0.00  0.00    +0.000 HD
BRANCH  16  18
ATOM     18  C   UNL     1       4.182   4.151  18.231  0.00  0.00    +0.000 A 
ATOM     19  C   UNL     1       3.442   5.326  18.002  0.00  0.00    +0.000 A 
ATOM     20  C   UNL     1       2.072   5.375  18.253  0.00  0.00    +0.000 A 
ATOM     21  C   UNL     1       1.421   4.263  18.772  0.00  0.00    +0.000 A 
ATOM     22  C   UNL     1       2.147   3.111  19.073  0.00  0.00    +0.000 A 
ATOM     23  C   UNL     1       3.527   3.050  18.820  0.00  0.00    +0.000 A 
BRANCH  23  24
ATOM     24  C   UNL     1       4.218   1.786  19.208  0.00  0.00    +0.000 C 
ATOM     25  O   UNL     1       4.006   0.721  18.654  0.00  0.00    +0.000 OA
BRANCH  24  26
ATOM     26  O   UNL     1       5.117   1.922  20.206  0.00  0.00    +0.000 OA
ATOM     27  H   UNL     1       5.712   2.688  20.070  0.00  0.00    +0.000 HD
ENDBRANCH  24  26
ENDBRANCH  23  24
ENDBRANCH  16  18
ENDBRANCH   4  16
TORSDOF 6
ENDMDL
MODEL 7
REMARK VINA RESULT:      -7.9      3.300      5.879
REMARK  Name = 
REMARK  7 active torsions:
REMARK  status: ('A' for Active; 'I' for Inactive)
REMARK    1  A    between atoms: C_1  and  C_2
REMARK    2  A    between atoms: C_4  and  N_5
REMARK    3  A    between atoms: N_5  and  C_6
REMARK    4  A    between atoms: C_11  and  C_12
REMARK    5  A    between atoms: C_12  and  O_14
REMARK    6  A    between atoms: N_15  and  C_16
REMARK    7  A    between atoms: C_19  and  N_20
REMARK                            x       y       z     vdW  Elec       q    Type
REMARK                         _______ _______ _______ _____ _____    ______ ____
ROOT
ATOM      1  C   UNL     1       1.156   9.661  19.216  0.00  0.00    +0.000 C 
ATOM      2  C   UNL     1       1.944   8.404  19.185  0.00  0.00    +0.000 A 
ATOM      3  C   UNL     1       1.812   7.294  20.039  0.00  0.00    +0.000 A 
ATOM      4  C   UNL     1       2.725   6.362  19.593  0.00  0.00    +0.000 A 
ATOM      5  N   UNL     1       3.306   6.929  18.450  0.00  0.00    +0.000 N 
ATOM      6  N   UNL     1       2.913   8.221  18.283  0.00  0.00    +0.000 NA
ENDROOT
BRANCH   5   7
ATOM      7  C   UNL     1       4.235   6.339  17.546  0.00  0.00    +0.000 A 
ATOM      8  C   UNL     1       5.474   6.946  17.292  0.00  0.00    +0.000 A 
ATOM      9  C   UNL     1       6.338   6.412  16.336  0.00  0.00    +0.000 A 
ATOM     10  C   UNL     1       5.967   5.253  15.641  0.00  0.00    +0.000 A 
ATOM     11  C   UNL     1       4.754   4.608  15.925  0.00  0.00    +0.000 A 
ATOM     12  C   UNL     1       3.897   5.143  16.893  0.00  0.00    +0.000 A 
BRANCH  10  13
ATOM     13  N   UNL     1       6.858   4.716  14.605  0.00  0.00    +0.000 N 
ATOM     14  O   UNL     1       7.913   5.327  14.379  0.00  0.00    +0.000 OA
ATOM     15  O   UNL     1       6.498   3.692  14.008  0.00  0.00    +0.000 OA
ENDBRANCH  10  13
ENDBRANCH   5   7
BRANCH   4  16
ATOM     16  N   UNL     1       3.075   5.141  20.113  0.00  0.00    +0.000 N 
ATOM     17  H   UNL     1       3.140   5.076  21.135  0.00  0.00    +0.000 HD
BRANCH  16  18
ATOM     18  C   UNL     1       2.523   3.912  19.644  0.00  0.00    +0.000 A 
ATOM     19  C   UNL     1       1.155   3.832  19.324  0.00  0.00    +0.000 A 
ATOM     20  C   UNL     1       0.583   2.633  18.900  0.00  0.00    +0.000 A 
ATOM     21  C   UNL     1       1.359   1.483  18.824  0.00  0.00    +0.000 A 
ATOM     22  C   UNL     1       2.700   1.523  19.205  0.00  0.00    +0.000 A 
ATOM     23  C   UNL     1       3.286   2.726  19.628  0.00  0.00    +0.000 A 
BRANCH  23  24
ATOM     24  C   UNL     1       4.716   2.657  20.046  0.00  0.00    +0.000 C 
ATOM     25  O   UNL     1       5.109   1.921  20.935  0.00  0.00    +0.000 OA
BRANCH  24  26
ATOM     26  O   UNL     1       5.545   3.458  19.343  0.00  0.00    +0.000 OA
ATOM     27  H   UNL     1       5.299   4.404  19.413  0.00  0.00    +0.000 HD
ENDBRANCH  24  26
ENDBRANCH  23  24
ENDBRANCH  16  18
ENDBRANCH   4  16
TORSDOF 6
ENDMDL
MODEL 8
REMARK VINA RESULT:      -7.9      3.106      5.976
REMARK  Name = 
REMARK  7 active torsions:
REMARK  status: ('A' for Active; 'I' for Inactive)
REMARK    1  A    between atoms: C_1  and  C_2
REMARK    2  A    between atoms: C_4  and  N_5
REMARK    3  A    between atoms: N_5  and  C_6
REMARK    4  A    between atoms: C_11  and  C_12
REMARK    5  A    between atoms: C_12  and  O_14
REMARK    6  A    between atoms: N_15  and  C_16
REMARK    7  A    between atoms: C_19  and  N_20
REMARK                            x       y       z     vdW  Elec       q    Type
REMARK                         _______ _______ _______ _____ _____    ______ ____
ROOT
ATOM      1  C   UNL     1       1.046   9.987  18.593  0.00  0.00    +0.000 C 
ATOM      2  C   UNL     1       1.868   8.757  18.714  0.00  0.00    +0.000 A 
ATOM      3  C   UNL     1       1.764   7.756  19.697  0.00  0.00    +0.000 A 
ATOM      4  C   UNL     1       2.703   6.802  19.366  0.00  0.00    +0.000 A 
ATOM      5  N   UNL     1       3.270   7.240  18.162  0.00  0.00    +0.000 N 
ATOM      6  N   UNL     1       2.843   8.491  17.840  0.00  0.00    +0.000 NA
ENDROOT
BRANCH   5   7
ATOM      7  C   UNL     1       4.215   6.570  17.335  0.00  0.00    +0.000 A 
ATOM      8  C   UNL     1       5.484   7.121  17.102  0.00  0.00    +0.000 A 
ATOM      9  C   UNL     1       6.369   6.505  16.217  0.00  0.00    +0.000 A 
ATOM     10  C   UNL     1       5.989   5.320  15.573  0.00  0.00    +0.000 A 
ATOM     11  C   UNL     1       4.743   4.732  15.839  0.00  0.00    +0.000 A 
ATOM     12  C   UNL     1       3.864   5.349  16.737  0.00  0.00    +0.000 A 
BRANCH  10  13
ATOM     13  N   UNL     1       6.904   4.696  14.610  0.00  0.00    +0.000 N 
ATOM     14  O   UNL     1       6.510   3.683  14.014  0.00  0.00    +0.000 OA
ATOM     15  O   UNL     1       8.021   5.211  14.458  0.00  0.00    +0.000 OA
ENDBRANCH  10  13
ENDBRANCH   5   7
BRANCH   4  16
ATOM     16  N   UNL     1       3.085   5.663  20.031  0.00  0.00    +0.000 N 
ATOM     17  H   UNL     1       3.253   5.752  21.040  0.00  0.00    +0.000 HD
BRANCH  16  18
ATOM     18  C   UNL     1       2.467   4.396  19.814  0.00  0.00    +0.000 A 
ATOM     19  C   UNL     1       1.068   4.270  19.901  0.00  0.00    +0.000 A 
ATOM     20  C   UNL     1       0.444   3.035  19.731  0.00  0.00    +0.000 A 
ATOM     21  C   UNL     1       1.208   1.895  19.507  0.00  0.00    +0.000 A 
ATOM     22  C   UNL     1       2.599   1.986  19.488  0.00  0.00    +0.000 A 
ATOM     23  C   UNL     1       3.238   3.225  19.654  0.00  0.00    +0.000 A 
BRANCH  23  24
ATOM     24  C   UNL     1       4.729   3.210  19.651  0.00  0.00    +0.000 C 
ATOM     25  O   UNL     1       5.399   4.223  19.538  0.00  0.00    +0.000 OA
BRANCH  24  26
ATOM     26  O   UNL     1       5.278   1.987  19.810  0.00  0.00    +0.000 OA
ATOM     27  H   UNL     1       5.053   1.587  20.676  0.00  0.00    +0.000 HD
ENDBRANCH  24  26
ENDBRANCH  23  24
ENDBRANCH  16  18
ENDBRANCH   4  16
TORSDOF 6
ENDMDL
MODEL 9
REMARK VINA RESULT:      -7.8      0.874      1.368
REMARK  Name = 
REMARK  7 active torsions:
REMARK  status: ('A' for Active; 'I' for Inactive)
REMARK    1  A    between atoms: C_1  and  C_2
REMARK    2  A    between atoms: C_4  and  N_5
REMARK    3  A    between atoms: N_5  and  C_6
REMARK    4  A    between atoms: C_11  and  C_12
REMARK    5  A    between atoms: C_12  and  O_14
REMARK    6  A    between atoms: N_15  and  C_16
REMARK    7  A    between atoms: C_19  and  N_20
REMARK                            x       y       z     vdW  Elec       q    Type
REMARK                         _______ _______ _______ _____ _____    ______ ____
ROOT
ATOM      1  C   UNL     1       2.363   2.818  21.291  0.00  0.00    +0.000 C 
ATOM      2  C   UNL     1       2.782   4.040  20.562  0.00  0.00    +0.000 A 
ATOM      3  C   UNL     1       3.875   4.178  19.686  0.00  0.00    +0.000 A 
ATOM      4  C   UNL     1       3.828   5.477  19.224  0.00  0.00    +0.000 A 
ATOM      5  N   UNL     1       2.669   6.029  19.785  0.00  0.00    +0.000 N 
ATOM      6  N   UNL     1       2.108   5.187  20.694  0.00  0.00    +0.000 NA
ENDROOT
BRANCH   5   7
ATOM      7  C   UNL     1       2.096   7.310  19.546  0.00  0.00    +0.000 A 
ATOM      8  C   UNL     1       2.141   7.890  18.269  0.00  0.00    +0.000 A 
ATOM      9  C   UNL     1       1.660   9.184  18.065  0.00  0.00    +0.000 A 
ATOM     10  C   UNL     1       1.115   9.896  19.141  0.00  0.00    +0.000 A 
ATOM     11  C   UNL     1       1.017   9.306  20.410  0.00  0.00    +0.000 A 
ATOM     12  C   UNL     1       1.491   8.005  20.606  0.00  0.00    +0.000 A 
BRANCH  10  13
ATOM     13  N   UNL     1       0.649  11.273  18.934  0.00  0.00    +0.000 N 
ATOM     14  O   UNL     1      -0.454  11.432  18.392  0.00  0.00    +0.000 OA
ATOM     15  O   UNL     1       1.392  12.195  19.300  0.00  0.00    +0.000 OA
ENDBRANCH  10  13
ENDBRANCH   5   7
BRANCH   4  16
ATOM     16  N   UNL     1       4.701   6.165  18.419  0.00  0.00    +0.000 N 
ATOM     17  H   UNL     1       5.407   6.742  18.890  0.00  0.00    +0.000 HD
BRANCH  16  18
ATOM     18  C   UNL     1       5.324   5.581  17.276  0.00  0.00    +0.000 A 
ATOM     19  C   UNL     1       4.640   4.611  16.519  0.00  0.00    +0.000 A 
ATOM     20  C   UNL     1       5.242   3.998  15.421  0.00  0.00    +0.000 A 
ATOM     21  C   UNL     1       6.551   4.316  15.079  0.00  0.00    +0.000 A 
ATOM     22  C   UNL     1       7.271   5.222  15.858  0.00  0.00    +0.000 A 
ATOM     23  C   UNL     1       6.673   5.848  16.963  0.00  0.00    +0.000 A 
BRANCH  23  24
ATOM     24  C   UNL     1       7.537   6.775  17.749  0.00  0.00    +0.000 C 
ATOM     25  O   UNL     1       8.027   6.468  18.823  0.00  0.00    +0.000 OA
BRANCH  24  26
ATOM     26  O   UNL     1       7.754   7.972  17.165  0.00  0.00    +0.000 OA
ATOM     27  H   UNL     1       7.436   7.998  16.238  0.00  0.00    +0.000 HD
ENDBRANCH  24  26
ENDBRANCH  23  24
ENDBRANCH  16  18
ENDBRANCH   4  16
TORSDOF 6
ENDMDL
