MODEL 1
REMARK VINA RESULT:      -7.7      0.000      0.000
REMARK  Name = 
REMARK  9 active torsions:
REMARK  status: ('A' for Active; 'I' for Inactive)
REMARK    1  A    between atoms: C_1  and  O_2
REMARK    2  A    between atoms: O_2  and  C_3
REMARK    3  A    between atoms: C_7  and  O_8
REMARK    4  A    between atoms: O_8  and  C_9
REMARK    5  A    between atoms: C_10  and  C_11
REMARK    6  A    between atoms: C_13  and  C_14
REMARK    7  A    between atoms: N_17  and  C_18
REMARK    8  A    between atoms: C_18  and  C_19
REMARK    9  A    between atoms: N_31  and  C_32
REMARK                            x       y       z     vdW  Elec       q    Type
REMARK                         _______ _______ _______ _____ _____    ______ ____
ROOT
ATOM      1  C   UNL     1       4.216   4.131  18.187  0.00  0.00    +0.000 C 
ATOM      2  C   UNL     1       4.109   3.327  16.901  0.00  0.00    +0.000 C 
ATOM      3  C   UNL     1       4.812   4.196  15.862  0.00  0.00    +0.000 C 
ATOM      4  C   UNL     1       6.257   3.793  15.600  0.00  0.00    +0.000 C 
ATOM      5  C   UNL     1       4.756   5.575  16.472  0.00  0.00    +0.000 C 
ATOM      6  O   UNL     1       5.250   6.572  15.928  0.00  0.00    +0.000 OA
ATOM      7  N   UNL     1       4.155   5.512  17.731  0.00  0.00    +0.000 N 
ENDROOT
BRANCH   1  13
ATOM      8  C   UNL     1       1.874   4.060  19.248  0.00  0.00    +0.000 A 
ATOM      9  C   UNL     1       0.992   3.587  20.230  0.00  0.00    +0.000 A 
ATOM     10  C   UNL     1       1.455   2.818  21.288  0.00  0.00    +0.000 A 
ATOM     11  C   UNL     1       2.796   2.463  21.344  0.00  0.00    +0.000 A 
ATOM     12  C   UNL     1       3.678   2.850  20.326  0.00  0.00    +0.000 A 
ATOM     13  C   UNL     1       3.236   3.692  19.276  0.00  0.00    +0.000 A 
BRANCH   8  15
ATOM     14  C   UNL     1       0.810   4.158  17.134  0.00  0.00    +0.000 C 
ATOM     15  O   UNL     1       1.450   4.846  18.205  0.00  0.00    +0.000 OA
ENDBRANCH   8  15
BRANCH  12  16
ATOM     16  O   UNL     1       4.989   2.437  20.298  0.00  0.00    +0.000 OA
ATOM     17  C   UNL     1       5.274   1.196  20.943  0.00  0.00    +0.000 C 
ENDBRANCH  12  16
ENDBRANCH   1  13
BRANCH   7  18
ATOM     18  C   UNL     1       4.292   6.595  18.679  0.00  0.00    +0.000 C 
BRANCH  18  19
ATOM     19  C   UNL     1       3.095   7.528  18.782  0.00  0.00    +0.000 A 
ATOM     20  C   UNL     1       2.453   8.008  17.625  0.00  0.00    +0.000 A 
ATOM     21  C   UNL     1       1.409   8.944  17.686  0.00  0.00    +0.000 A 
ATOM     22  C   UNL     1       1.056   9.411  18.955  0.00  0.00    +0.000 A 
ATOM     23  C   UNL     1       1.532   8.796  20.120  0.00  0.00    +0.000 A 
ATOM     24  C   UNL     1       2.582   7.869  20.038  0.00  0.00    +0.000 A 
ATOM     25  C   UNL     1       0.603   9.208  21.103  0.00  0.00    +0.000 A 
ATOM     26  C   UNL     1      -0.181   8.638  22.114  0.00  0.00    +0.000 A 
ATOM     27  C   UNL     1      -1.006   9.499  22.852  0.00  0.00    +0.000 A 
ATOM     28  C   UNL     1      -0.883  10.887  22.731  0.00  0.00    +0.000 A 
ATOM     29  C   UNL     1      -0.144  11.454  21.691  0.00  0.00    +0.000 A 
ATOM     30  C   UNL     1       0.370  10.536  20.776  0.00  0.00    +0.000 A 
ATOM     31  N   UNL     1       0.146  10.363  19.405  0.00  0.00    +0.000 N 
ATOM     32  C   UNL     1      -1.209  10.486  18.879  0.00  0.00    +0.000 C 
ENDBRANCH  18  19
ENDBRANCH   7  18
TORSDOF 5
ENDMDL
MODEL 2
REMARK VINA RESULT:      -7.6      0.195      2.217
REMARK  Name = 
REMARK  9 active torsions:
REMARK  status: ('A' for Active; 'I' for Inactive)
REMARK    1  A    between atoms: C_1  and  O_2
REMARK    2  A    between atoms: O_2  and  C_3
REMARK    3  A    between atoms: C_7  and  O_8
REMARK    4  A    between atoms: O_8  and  C_9
REMARK    5  A    between atoms: C_10  and  C_11
REMARK    6  A    between atoms: C_13  and  C_14
REMARK    7  A    between atoms: N_17  and  C_18
REMARK    8  A    between atoms: C_18  and  C_19
REMARK    9  A    between atoms: N_31  and  C_32
REMARK                            x       y       z     vdW  Elec       q    Type
REMARK                         _______ _______ _______ _____ _____    ______ ____
ROOT
ATOM      1  C   UNL     1       4.172   4.003  18.331  0.00  0.00    +0.000 C 
ATOM      2  C   UNL     1       4.068   3.239  17.021  0.00  0.00    +0.000 C 
ATOM      3  C   UNL     1       4.729   4.162  16.001  0.00  0.00    +0.000 C 
ATOM      4  C   UNL     1       6.180   3.810  15.706  0.00  0.00    +0.000 C 
ATOM      5  C   UNL     1       4.643   5.518  16.659  0.00  0.00    +0.000 C 
ATOM      6  O   UNL     1       5.099   6.547  16.142  0.00  0.00    +0.000 OA
ATOM      7  N   UNL     1       4.063   5.395  17.924  0.00  0.00    +0.000 N 
ENDROOT
BRANCH   1  13
ATOM      8  C   UNL     1       3.672   2.699  20.492  0.00  0.00    +0.000 A 
ATOM      9  C   UNL     1       2.785   2.309  21.505  0.00  0.00    +0.000 A 
ATOM     10  C   UNL     1       1.437   2.632  21.431  0.00  0.00    +0.000 A 
ATOM     11  C   UNL     1       0.972   3.400  20.373  0.00  0.00    +0.000 A 
ATOM     12  C   UNL     1       1.856   3.876  19.396  0.00  0.00    +0.000 A 
ATOM     13  C   UNL     1       3.222   3.499  19.420  0.00  0.00    +0.000 A 
BRANCH   8  15
ATOM     14  C   UNL     1       5.321   1.129  21.146  0.00  0.00    +0.000 C 
ATOM     15  O   UNL     1       5.004   2.371  20.524  0.00  0.00    +0.000 OA
ENDBRANCH   8  15
BRANCH  12  16
ATOM     16  O   UNL     1       1.449   4.718  18.388  0.00  0.00    +0.000 OA
ATOM     17  C   UNL     1       0.808   4.102  17.272  0.00  0.00    +0.000 C 
ENDBRANCH  12  16
ENDBRANCH   1  13
BRANCH   7  18
ATOM     18  C   UNL     1       4.184   6.450  18.906  0.00  0.00    +0.000 C 
BRANCH  18  19
ATOM     19  C   UNL     1       3.024   7.432  18.956  0.00  0.00    +0.000 A 
ATOM     20  C   UNL     1       2.413   7.887  17.772  0.00  0.00    +0.000 A 
ATOM     21  C   UNL     1       1.405   8.864  17.783  0.00  0.00    +0.000 A 
ATOM     22  C   UNL     1       1.058   9.397  19.027  0.00  0.00    +0.000 A 
ATOM     23  C   UNL     1       1.497   8.813  20.222  0.00  0.00    +0.000 A 
ATOM     24  C   UNL     1       2.511   7.844  20.190  0.00  0.00    +0.000 A 
ATOM     25  C   UNL     1       0.576   9.301  21.176  0.00  0.00    +0.000 A 
ATOM     26  C   UNL     1      -0.240   8.805  22.200  0.00  0.00    +0.000 A 
ATOM     27  C   UNL     1      -1.039   9.726  22.892  0.00  0.00    +0.000 A 
ATOM     28  C   UNL     1      -0.861  11.103  22.716  0.00  0.00    +0.000 A 
ATOM     29  C   UNL     1      -0.090  11.597  21.662  0.00  0.00    +0.000 A 
ATOM     30  C   UNL     1       0.398  10.623  20.792  0.00  0.00    +0.000 A 
ATOM     31  N   UNL     1       0.181  10.401  19.426  0.00  0.00    +0.000 N 
ATOM     32  C   UNL     1      -1.163  10.554  18.880  0.00  0.00    +0.000 C 
ENDBRANCH  18  19
ENDBRANCH   7  18
TORSDOF 5
ENDMDL
MODEL 3
REMARK VINA RESULT:      -7.3      9.259     11.367
REMARK  Name = 
REMARK  9 active torsions:
REMARK  status: ('A' for Active; 'I' for Inactive)
REMARK    1  A    between atoms: C_1  and  O_2
REMARK    2  A    between atoms: O_2  and  C_3
REMARK    3  A    between atoms: C_7  and  O_8
REMARK    4  A    between atoms: O_8  and  C_9
REMARK    5  A    between atoms: C_10  and  C_11
REMARK    6  A    between atoms: C_13  and  C_14
REMARK    7  A    between atoms: N_17  and  C_18
REMARK    8  A    between atoms: C_18  and  C_19
REMARK    9  A    between atoms: N_31  and  C_32
REMARK                            x       y       z     vdW  Elec       q    Type
REMARK                         _______ _______ _______ _____ _____    ______ ____
ROOT
ATOM      1  C   UNL     1       9.205  13.622  18.840  0.00  0.00    +0.000 C 
ATOM      2  C   UNL     1       8.940  12.774  17.605  0.00  0.00    +0.000 C 
ATOM      3  C   UNL     1       9.821  11.545  17.805  0.00  0.00    +0.000 C 
ATOM      4  C   UNL     1       9.079  10.345  18.378  0.00  0.00    +0.000 C 
ATOM      5  C   UNL     1      10.868  12.026  18.780  0.00  0.00    +0.000 C 
ATOM      6  O   UNL     1      11.771  11.297  19.212  0.00  0.00    +0.000 OA
ATOM      7  N   UNL     1      10.600  13.346  19.149  0.00  0.00    +0.000 N 
ENDROOT
BRANCH   1  13
ATOM      8  C   UNL     1       7.704  15.626  19.428  0.00  0.00    +0.000 A 
ATOM      9  C   UNL     1       7.383  16.987  19.313  0.00  0.00    +0.000 A 
ATOM     10  C   UNL     1       8.061  17.803  18.418  0.00  0.00    +0.000 A 
ATOM     11  C   UNL     1       9.107  17.281  17.670  0.00  0.00    +0.000 A 
ATOM     12  C   UNL     1       9.504  15.947  17.833  0.00  0.00    +0.000 A 
ATOM     13  C   UNL     1       8.780  15.084  18.692  0.00  0.00    +0.000 A 
BRANCH   8  15
ATOM     14  C   UNL     1       6.114  15.420  21.171  0.00  0.00    +0.000 C 
ATOM     15  O   UNL     1       7.034  14.790  20.284  0.00  0.00    +0.000 OA
ENDBRANCH   8  15
BRANCH  12  16
ATOM     16  O   UNL     1      10.595  15.423  17.182  0.00  0.00    +0.000 OA
ATOM     17  C   UNL     1      11.780  16.218  17.196  0.00  0.00    +0.000 C 
ENDBRANCH  12  16
ENDBRANCH   1  13
BRANCH   7  18
ATOM     18  C   UNL     1      11.212  13.932  20.321  0.00  0.00    +0.000 C 
BRANCH  18  19
ATOM     19  C   UNL     1      10.283  14.148  21.505  0.00  0.00    +0.000 A 
ATOM     20  C   UNL     1      10.091  15.432  22.048  0.00  0.00    +0.000 A 
ATOM     21  C   UNL     1       9.315  15.646  23.198  0.00  0.00    +0.000 A 
ATOM     22  C   UNL     1       8.768  14.515  23.809  0.00  0.00    +0.000 A 
ATOM     23  C   UNL     1       8.770  13.267  23.172  0.00  0.00    +0.000 A 
ATOM     24  C   UNL     1       9.558  13.071  22.028  0.00  0.00    +0.000 A 
ATOM     25  C   UNL     1       7.744  12.563  23.842  0.00  0.00    +0.000 A 
ATOM     26  C   UNL     1       6.615  11.796  23.527  0.00  0.00    +0.000 A 
ATOM     27  C   UNL     1       5.853  11.300  24.594  0.00  0.00    +0.000 A 
ATOM     28  C   UNL     1       6.325  11.381  25.909  0.00  0.00    +0.000 A 
ATOM     29  C   UNL     1       7.418  12.189  26.230  0.00  0.00    +0.000 A 
ATOM     30  C   UNL     1       7.920  12.937  25.167  0.00  0.00    +0.000 A 
ATOM     31  N   UNL     1       8.022  14.319  24.967  0.00  0.00    +0.000 N 
ATOM     32  C   UNL     1       6.916  15.184  25.362  0.00  0.00    +0.000 C 
ENDBRANCH  18  19
ENDBRANCH   7  18
TORSDOF 5
ENDMDL
MODEL 4
REMARK VINA RESULT:      -7.3      9.029     11.175
REMARK  Name = 
REMARK  9 active torsions:
REMARK  status: ('A' for Active; 'I' for Inactive)
REMARK    1  A    between atoms: C_1  and  O_2
REMARK    2  A    between atoms: O_2  and  C_3
REMARK    3  A    between atoms: C_7  and  O_8
REMARK    4  A    between atoms: O_8  and  C_9
REMARK    5  A    between atoms: C_10  and  C_11
REMARK    6  A    between atoms: C_13  and  C_14
REMARK    7  A    between atoms: N_17  and  C_18
REMARK    8  A    between atoms: C_18  and  C_19
REMARK    9  A    between atoms: N_31  and  C_32
REMARK                            x       y       z     vdW  Elec       q    Type
REMARK                         _______ _______ _______ _____ _____    ______ ____
ROOT
ATOM      1  C   UNL     1       8.915  13.485  19.085  0.00  0.00    +0.000 C 
ATOM      2  C   UNL     1       8.638  12.657  17.840  0.00  0.00    +0.000 C 
ATOM      3  C   UNL     1       9.580  11.464  17.973  0.00  0.00    +0.000 C 
ATOM      4  C   UNL     1       8.916  10.218  18.543  0.00  0.00    +0.000 C 
ATOM      5  C   UNL     1      10.643  11.968  18.918  0.00  0.00    +0.000 C 
ATOM      6  O   UNL     1      11.595  11.270  19.295  0.00  0.00    +0.000 OA
ATOM      7  N   UNL     1      10.332  13.265  19.332  0.00  0.00    +0.000 N 
ENDROOT
BRANCH   1  13
ATOM      8  C   UNL     1       9.049  15.883  18.164  0.00  0.00    +0.000 A 
ATOM      9  C   UNL     1       8.528  17.180  18.057  0.00  0.00    +0.000 A 
ATOM     10  C   UNL     1       7.438  17.573  18.820  0.00  0.00    +0.000 A 
ATOM     11  C   UNL     1       6.819  16.655  19.656  0.00  0.00    +0.000 A 
ATOM     12  C   UNL     1       7.267  15.328  19.713  0.00  0.00    +0.000 A 
ATOM     13  C   UNL     1       8.419  14.929  18.993  0.00  0.00    +0.000 A 
BRANCH   8  15
ATOM     14  C   UNL     1      10.793  16.487  16.680  0.00  0.00    +0.000 C 
ATOM     15  O   UNL     1      10.142  15.474  17.442  0.00  0.00    +0.000 OA
ENDBRANCH   8  15
BRANCH  12  16
ATOM     16  O   UNL     1       6.620  14.369  20.455  0.00  0.00    +0.000 OA
ATOM     17  C   UNL     1       5.790  14.843  21.515  0.00  0.00    +0.000 C 
ENDBRANCH  12  16
ENDBRANCH   1  13
BRANCH   7  18
ATOM     18  C   UNL     1      10.964  13.850  20.494  0.00  0.00    +0.000 C 
BRANCH  18  19
ATOM     19  C   UNL     1      10.056  14.064  21.694  0.00  0.00    +0.000 A 
ATOM     20  C   UNL     1       9.848  15.353  22.221  0.00  0.00    +0.000 A 
ATOM     21  C   UNL     1       9.092  15.570  23.383  0.00  0.00    +0.000 A 
ATOM     22  C   UNL     1       8.581  14.437  24.023  0.00  0.00    +0.000 A 
ATOM     23  C   UNL     1       8.596  13.179  23.406  0.00  0.00    +0.000 A 
ATOM     24  C   UNL     1       9.365  12.982  22.248  0.00  0.00    +0.000 A 
ATOM     25  C   UNL     1       7.599  12.465  24.107  0.00  0.00    +0.000 A 
ATOM     26  C   UNL     1       6.480  11.670  23.828  0.00  0.00    +0.000 A 
ATOM     27  C   UNL     1       5.751  11.176  24.919  0.00  0.00    +0.000 A 
ATOM     28  C   UNL     1       6.248  11.287  26.222  0.00  0.00    +0.000 A 
ATOM     29  C   UNL     1       7.330  12.122  26.507  0.00  0.00    +0.000 A 
ATOM     30  C   UNL     1       7.795  12.864  25.423  0.00  0.00    +0.000 A 
ATOM     31  N   UNL     1       7.864  14.244  25.199  0.00  0.00    +0.000 N 
ATOM     32  C   UNL     1       6.748  15.092  25.604  0.00  0.00    +0.000 C 
ENDBRANCH  18  19
ENDBRANCH   7  18
TORSDOF 5
ENDMDL
MODEL 5
REMARK VINA RESULT:      -7.0      5.189      8.765
REMARK  Name = 
REMARK  9 active torsions:
REMARK  status: ('A' for Active; 'I' for Inactive)
REMARK    1  A    between atoms: C_1  and  O_2
REMARK    2  A    between atoms: O_2  and  C_3
REMARK    3  A    between atoms: C_7  and  O_8
REMARK    4  A    between atoms: O_8  and  C_9
REMARK    5  A    between atoms: C_10  and  C_11
REMARK    6  A    between atoms: C_13  and  C_14
REMARK    7  A    between atoms: N_17  and  C_18
REMARK    8  A    between atoms: C_18  and  C_19
REMARK    9  A    between atoms: N_31  and  C_32
REMARK                            x       y       z     vdW  Elec       q    Type
REMARK                         _______ _______ _______ _____ _____    ______ ____
ROOT
ATOM      1  C   UNL     1       0.337  11.740  19.529  0.00  0.00    +0.000 C 
ATOM      2  C   UNL     1       1.159  10.531  19.943  0.00  0.00    +0.000 C 
ATOM      3  C   UNL     1       0.959   9.539  18.800  0.00  0.00    +0.000 C 
ATOM      4  C   UNL     1       2.090   9.542  17.781  0.00  0.00    +0.000 C 
ATOM      5  C   UNL     1      -0.324  10.008  18.158  0.00  0.00    +0.000 C 
ATOM      6  O   UNL     1      -0.818   9.459  17.164  0.00  0.00    +0.000 OA
ATOM      7  N   UNL     1      -0.782  11.160  18.803  0.00  0.00    +0.000 N 
ENDROOT
BRANCH   1  13
ATOM      8  C   UNL     1      -0.658  12.278  21.839  0.00  0.00    +0.000 A 
ATOM      9  C   UNL     1      -0.872  13.171  22.899  0.00  0.00    +0.000 A 
ATOM     10  C   UNL     1      -0.491  14.501  22.794  0.00  0.00    +0.000 A 
ATOM     11  C   UNL     1       0.161  14.940  21.650  0.00  0.00    +0.000 A 
ATOM     12  C   UNL     1       0.465  14.045  20.615  0.00  0.00    +0.000 A 
ATOM     13  C   UNL     1       0.023  12.701  20.678  0.00  0.00    +0.000 A 
BRANCH   8  15
ATOM     14  C   UNL     1      -0.791  10.302  23.140  0.00  0.00    +0.000 C 
ATOM     15  O   UNL     1      -1.048  10.963  21.904  0.00  0.00    +0.000 OA
ENDBRANCH   8  15
BRANCH  12  16
ATOM     16  O   UNL     1       1.193  14.422  19.512  0.00  0.00    +0.000 OA
ATOM     17  C   UNL     1       1.442  15.820  19.368  0.00  0.00    +0.000 C 
ENDBRANCH  12  16
ENDBRANCH   1  13
BRANCH   7  18
ATOM     18  C   UNL     1      -1.770  12.016  18.185  0.00  0.00    +0.000 C 
BRANCH  18  19
ATOM     19  C   UNL     1      -3.164  11.947  18.790  0.00  0.00    +0.000 A 
ATOM     20  C   UNL     1      -4.157  11.125  18.222  0.00  0.00    +0.000 A 
ATOM     21  C   UNL     1      -5.476  11.113  18.701  0.00  0.00    +0.000 A 
ATOM     22  C   UNL     1      -5.774  11.987  19.749  0.00  0.00    +0.000 A 
ATOM     23  C   UNL     1      -4.765  12.650  20.459  0.00  0.00    +0.000 A 
ATOM     24  C   UNL     1      -3.453  12.656  19.960  0.00  0.00    +0.000 A 
ATOM     25  C   UNL     1      -5.401  13.000  21.671  0.00  0.00    +0.000 A 
ATOM     26  C   UNL     1      -5.166  12.908  23.049  0.00  0.00    +0.000 A 
ATOM     27  C   UNL     1      -6.157  13.404  23.908  0.00  0.00    +0.000 A 
ATOM     28  C   UNL     1      -7.226  14.156  23.408  0.00  0.00    +0.000 A 
ATOM     29  C   UNL     1      -7.492  14.203  22.038  0.00  0.00    +0.000 A 
ATOM     30  C   UNL     1      -6.667  13.395  21.258  0.00  0.00    +0.000 A 
ATOM     31  N   UNL     1      -6.948  12.304  20.426  0.00  0.00    +0.000 N 
ATOM     32  C   UNL     1      -7.916  11.303  20.860  0.00  0.00    +0.000 C 
ENDBRANCH  18  19
ENDBRANCH   7  18
TORSDOF 5
ENDMDL
MODEL 6
REMARK VINA RESULT:      -7.0      2.141      4.742
REMARK  Name = 
REMARK  9 active torsions:
REMARK  status: ('A' for Active; 'I' for Inactive)
REMARK    1  A    between atoms: C_1  and  O_2
REMARK    2  A    between atoms: O_2  and  C_3
REMARK    3  A    between atoms: C_7  and  O_8
REMARK    4  A    between atoms: O_8  and  C_9
REMARK    5  A    between atoms: C_10  and  C_11
REMARK    6  A    between atoms: C_13  and  C_14
REMARK    7  A    between atoms: N_17  and  C_18
REMARK    8  A    between atoms: C_18  and  C_19
REMARK    9  A    between atoms: N_31  and  C_32
REMARK                            x       y       z     vdW  Elec       q    Type
REMARK                         _______ _______ _______ _____ _____    ______ ____
ROOT
ATOM      1  C   UNL     1       4.880   4.486  18.112  0.00  0.00    +0.000 C 
ATOM      2  C   UNL     1       5.315   3.442  19.129  0.00  0.00    +0.000 C 
ATOM      3  C   UNL     1       4.010   2.771  19.549  0.00  0.00    +0.000 C 
ATOM      4  C   UNL     1       3.731   1.463  18.822  0.00  0.00    +0.000 C 
ATOM      5  C   UNL     1       2.964   3.800  19.195  0.00  0.00    +0.000 C 
ATOM      6  O   UNL     1       1.752   3.615  19.371  0.00  0.00    +0.000 OA
ATOM      7  N   UNL     1       3.571   4.903  18.590  0.00  0.00    +0.000 N 
ENDROOT
BRANCH   1  13
ATOM      8  C   UNL     1       6.890   5.927  18.820  0.00  0.00    +0.000 A 
ATOM      9  C   UNL     1       7.873   6.882  18.523  0.00  0.00    +0.000 A 
ATOM     10  C   UNL     1       7.868   7.552  17.307  0.00  0.00    +0.000 A 
ATOM     11  C   UNL     1       6.915   7.230  16.351  0.00  0.00    +0.000 A 
ATOM     12  C   UNL     1       5.977   6.217  16.592  0.00  0.00    +0.000 A 
ATOM     13  C   UNL     1       5.927   5.572  17.852  0.00  0.00    +0.000 A 
BRANCH   8  15
ATOM     14  C   UNL     1       8.091   5.201  20.729  0.00  0.00    +0.000 C 
ATOM     15  O   UNL     1       6.854   5.269  20.024  0.00  0.00    +0.000 OA
ENDBRANCH   8  15
BRANCH  12  16
ATOM     16  O   UNL     1       5.081   5.806  15.634  0.00  0.00    +0.000 OA
ATOM     17  C   UNL     1       5.579   4.898  14.652  0.00  0.00    +0.000 C 
ENDBRANCH  12  16
ENDBRANCH   1  13
BRANCH   7  18
ATOM     18  C   UNL     1       2.794   5.861  17.835  0.00  0.00    +0.000 C 
BRANCH  18  19
ATOM     19  C   UNL     1       2.272   7.049  18.628  0.00  0.00    +0.000 A 
ATOM     20  C   UNL     1       1.985   6.930  20.001  0.00  0.00    +0.000 A 
ATOM     21  C   UNL     1       1.414   7.981  20.735  0.00  0.00    +0.000 A 
ATOM     22  C   UNL     1       1.104   9.147  20.031  0.00  0.00    +0.000 A 
ATOM     23  C   UNL     1       1.571   9.360  18.727  0.00  0.00    +0.000 A 
ATOM     24  C   UNL     1       2.132   8.294  18.007  0.00  0.00    +0.000 A 
ATOM     25  C   UNL     1       1.483  10.763  18.580  0.00  0.00    +0.000 A 
ATOM     26  C   UNL     1       2.286  11.829  18.156  0.00  0.00    +0.000 A 
ATOM     27  C   UNL     1       1.735  13.116  18.216  0.00  0.00    +0.000 A 
ATOM     28  C   UNL     1       0.372  13.300  18.477  0.00  0.00    +0.000 A 
ATOM     29  C   UNL     1      -0.415  12.249  18.951  0.00  0.00    +0.000 A 
ATOM     30  C   UNL     1       0.282  11.069  19.204  0.00  0.00    +0.000 A 
ATOM     31  N   UNL     1       0.485  10.342  20.384  0.00  0.00    +0.000 N 
ATOM     32  C   UNL     1       0.769  11.054  21.624  0.00  0.00    +0.000 C 
ENDBRANCH  18  19
ENDBRANCH   7  18
TORSDOF 5
ENDMDL
MODEL 7
REMARK VINA RESULT:      -7.0      5.176      8.688
REMARK  Name = 
REMARK  9 active torsions:
REMARK  status: ('A' for Active; 'I' for Inactive)
REMARK    1  A    between atoms: C_1  and  O_2
REMARK    2  A    between atoms: O_2  and  C_3
REMARK    3  A    between atoms: C_7  and  O_8
REMARK    4  A    between atoms: O_8  and  C_9
REMARK    5  A    between atoms: C_10  and  C_11
REMARK    6  A    between atoms: C_13  and  C_14
REMARK    7  A    between atoms: N_17  and  C_18
REMARK    8  A    between atoms: C_18  and  C_19
REMARK    9  A    between atoms: N_31  and  C_32
REMARK                            x       y       z     vdW  Elec       q    Type
REMARK                         _______ _______ _______ _____ _____    ______ ____
ROOT
ATOM      1  C   UNL     1       0.396  11.794  19.511  0.00  0.00    +0.000 C 
ATOM      2  C   UNL     1       1.221  10.596  19.954  0.00  0.00    +0.000 C 
ATOM      3  C   UNL     1       0.991   9.562  18.855  0.00  0.00    +0.000 C 
ATOM      4  C   UNL     1       2.099   9.518  17.812  0.00  0.00    +0.000 C 
ATOM      5  C   UNL     1      -0.303  10.014  18.224  0.00  0.00    +0.000 C 
ATOM      6  O   UNL     1      -0.823   9.430  17.262  0.00  0.00    +0.000 OA
ATOM      7  N   UNL     1      -0.741  11.192  18.833  0.00  0.00    +0.000 N 
ENDROOT
BRANCH   1  13
ATOM      8  C   UNL     1       0.486  14.157  20.523  0.00  0.00    +0.000 A 
ATOM      9  C   UNL     1       0.154  15.063  21.541  0.00  0.00    +0.000 A 
ATOM     10  C   UNL     1      -0.472  14.629  22.701  0.00  0.00    +0.000 A 
ATOM     11  C   UNL     1      -0.826  13.294  22.832  0.00  0.00    +0.000 A 
ATOM     12  C   UNL     1      -0.584  12.387  21.791  0.00  0.00    +0.000 A 
ATOM     13  C   UNL     1       0.114  12.800  20.629  0.00  0.00    +0.000 A 
BRANCH   8  15
ATOM     14  C   UNL     1       1.920  15.732  19.487  0.00  0.00    +0.000 C 
ATOM     15  O   UNL     1       1.128  14.553  19.377  0.00  0.00    +0.000 OA
ENDBRANCH   8  15
BRANCH  12  16
ATOM     16  O   UNL     1      -1.007  11.080  21.845  0.00  0.00    +0.000 OA
ATOM     17  C   UNL     1      -0.794  10.399  23.081  0.00  0.00    +0.000 C 
ENDBRANCH  12  16
ENDBRANCH   1  13
BRANCH   7  18
ATOM     18  C   UNL     1      -1.738  12.031  18.204  0.00  0.00    +0.000 C 
BRANCH  18  19
ATOM     19  C   UNL     1      -3.141  11.921  18.780  0.00  0.00    +0.000 A 
ATOM     20  C   UNL     1      -4.094  11.063  18.198  0.00  0.00    +0.000 A 
ATOM     21  C   UNL     1      -5.422  11.012  18.649  0.00  0.00    +0.000 A 
ATOM     22  C   UNL     1      -5.771  11.884  19.684  0.00  0.00    +0.000 A 
ATOM     23  C   UNL     1      -4.798  12.584  20.410  0.00  0.00    +0.000 A 
ATOM     24  C   UNL     1      -3.478  12.629  19.938  0.00  0.00    +0.000 A 
ATOM     25  C   UNL     1      -5.472  12.922  21.605  0.00  0.00    +0.000 A 
ATOM     26  C   UNL     1      -5.263  12.848  22.988  0.00  0.00    +0.000 A 
ATOM     27  C   UNL     1      -6.287  13.318  23.822  0.00  0.00    +0.000 A 
ATOM     28  C   UNL     1      -7.369  14.031  23.294  0.00  0.00    +0.000 A 
ATOM     29  C   UNL     1      -7.607  14.060  21.918  0.00  0.00    +0.000 A 
ATOM     30  C   UNL     1      -6.740  13.273  21.162  0.00  0.00    +0.000 A 
ATOM     31  N   UNL     1      -6.968  12.168  20.333  0.00  0.00    +0.000 N 
ATOM     32  C   UNL     1      -7.913  11.139  20.754  0.00  0.00    +0.000 C 
ENDBRANCH  18  19
ENDBRANCH   7  18
TORSDOF 5
ENDMDL
MODEL 8
REMARK VINA RESULT:      -6.9      5.019      8.565
REMARK  Name = 
REMARK  9 active torsions:
REMARK  status: ('A' for Active; 'I' for Inactive)
REMARK    1  A    between atoms: C_1  and  O_2
REMARK    2  A    between atoms: O_2  and  C_3
REMARK    3  A    between atoms: C_7  and  O_8
REMARK    4  A    between atoms: O_8  and  C_9
REMARK    5  A    between atoms: C_10  and  C_11
REMARK    6  A    between atoms: C_13  and  C_14
REMARK    7  A    between atoms: N_17  and  C_18
REMARK    8  A    between atoms: C_18  and  C_19
REMARK    9  A    between atoms: N_31  and  C_32
REMARK                            x       y       z     vdW  Elec       q    Type
REMARK                         _______ _______ _______ _____ _____    ______ ____
ROOT
ATOM      1  C   UNL     1       0.683  12.641  20.714  0.00  0.00    +0.000 C 
ATOM      2  C   UNL     1       2.126  13.122  20.722  0.00  0.00    +0.000 C 
ATOM      3  C   UNL     1       2.075  14.456  19.982  0.00  0.00    +0.000 C 
ATOM      4  C   UNL     1       2.017  15.666  20.904  0.00  0.00    +0.000 C 
ATOM      5  C   UNL     1       0.805  14.353  19.174  0.00  0.00    +0.000 C 
ATOM      6  O   UNL     1       0.398  15.265  18.441  0.00  0.00    +0.000 OA
ATOM      7  N   UNL     1       0.164  13.143  19.451  0.00  0.00    +0.000 N 
ENDROOT
BRANCH   1  13
ATOM      8  C   UNL     1      -0.108  10.685  22.184  0.00  0.00    +0.000 A 
ATOM      9  C   UNL     1      -0.292   9.310  22.393  0.00  0.00    +0.000 A 
ATOM     10  C   UNL     1       0.215   8.382  21.494  0.00  0.00    +0.000 A 
ATOM     11  C   UNL     1       0.860   8.820  20.345  0.00  0.00    +0.000 A 
ATOM     12  C   UNL     1       0.976  10.189  20.072  0.00  0.00    +0.000 A 
ATOM     13  C   UNL     1       0.525  11.149  21.011  0.00  0.00    +0.000 A 
BRANCH   8  15
ATOM     14  C   UNL     1      -1.949  11.509  23.427  0.00  0.00    +0.000 C 
ATOM     15  O   UNL     1      -0.574  11.624  23.069  0.00  0.00    +0.000 OA
ENDBRANCH   8  15
BRANCH  12  16
ATOM     16  O   UNL     1       1.522  10.658  18.900  0.00  0.00    +0.000 OA
ATOM     17  C   UNL     1       1.872   9.672  17.929  0.00  0.00    +0.000 C 
ENDBRANCH  12  16
ENDBRANCH   1  13
BRANCH   7  18
ATOM     18  C   UNL     1      -1.225  12.938  19.105  0.00  0.00    +0.000 C 
BRANCH  18  19
ATOM     19  C   UNL     1      -2.234  13.455  20.119  0.00  0.00    +0.000 A 
ATOM     20  C   UNL     1      -2.056  14.706  20.739  0.00  0.00    +0.000 A 
ATOM     21  C   UNL     1      -2.919  15.167  21.746  0.00  0.00    +0.000 A 
ATOM     22  C   UNL     1      -3.947  14.305  22.138  0.00  0.00    +0.000 A 
ATOM     23  C   UNL     1      -4.265  13.160  21.395  0.00  0.00    +0.000 A 
ATOM     24  C   UNL     1      -3.386  12.713  20.398  0.00  0.00    +0.000 A 
ATOM     25  C   UNL     1      -5.588  12.873  21.800  0.00  0.00    +0.000 A 
ATOM     26  C   UNL     1      -6.828  12.587  21.216  0.00  0.00    +0.000 A 
ATOM     27  C   UNL     1      -7.916  12.385  22.077  0.00  0.00    +0.000 A 
ATOM     28  C   UNL     1      -7.722  12.254  23.456  0.00  0.00    +0.000 A 
ATOM     29  C   UNL     1      -6.502  12.591  24.044  0.00  0.00    +0.000 A 
ATOM     30  C   UNL     1      -5.560  13.124  23.165  0.00  0.00    +0.000 A 
ATOM     31  N   UNL     1      -4.930  14.374  23.120  0.00  0.00    +0.000 N 
ATOM     32  C   UNL     1      -5.708  15.578  23.391  0.00  0.00    +0.000 C 
ENDBRANCH  18  19
ENDBRANCH   7  18
TORSDOF 5
ENDMDL
MODEL 9
REMARK VINA RESULT:      -6.8      3.089      8.491
REMARK  Name = 
REMARK  9 active torsions:
REMARK  status: ('A' for Active; 'I' for Inactive)
REMARK    1  A    between atoms: C_1  and  O_2
REMARK    2  A    between atoms: O_2  and  C_3
REMARK    3  A    between atoms: C_7  and  O_8
REMARK    4  A    between atoms: O_8  and  C_9
REMARK    5  A    between atoms: C_10  and  C_11
REMARK    6  A    between atoms: C_13  and  C_14
REMARK    7  A    between atoms: N_17  and  C_18
REMARK    8  A    between atoms: C_18  and  C_19
REMARK    9  A    between atoms: N_31  and  C_32
REMARK                            x       y       z     vdW  Elec       q    Type
REMARK                         _______ _______ _______ _____ _____    ______ ____
ROOT
ATOM      1  C   UNL     1      -1.268  11.514  19.894  0.00  0.00    +0.000 C 
ATOM      2  C   UNL     1      -2.483  11.747  19.010  0.00  0.00    +0.000 C 
ATOM      3  C   UNL     1      -2.328  10.721  17.891  0.00  0.00    +0.000 C 
ATOM      4  C   UNL     1      -3.143   9.453  18.104  0.00  0.00    +0.000 C 
ATOM      5  C   UNL     1      -0.853  10.406  17.915  0.00  0.00    +0.000 C 
ATOM      6  O   UNL     1      -0.327   9.583  17.152  0.00  0.00    +0.000 OA
ATOM      7  N   UNL     1      -0.235  11.108  18.953  0.00  0.00    +0.000 N 
ENDROOT
BRANCH   1  13
ATOM      8  C   UNL     1      -0.424  13.895  20.376  0.00  0.00    +0.000 A 
ATOM      9  C   UNL     1      -0.212  14.960  21.264  0.00  0.00    +0.000 A 
ATOM     10  C   UNL     1      -0.445  14.806  22.624  0.00  0.00    +0.000 A 
ATOM     11  C   UNL     1      -0.951  13.605  23.102  0.00  0.00    +0.000 A 
ATOM     12  C   UNL     1      -1.254  12.559  22.221  0.00  0.00    +0.000 A 
ATOM     13  C   UNL     1      -0.958  12.675  20.841  0.00  0.00    +0.000 A 
BRANCH   8  15
ATOM     14  C   UNL     1       1.107  14.517  18.679  0.00  0.00    +0.000 C 
ATOM     15  O   UNL     1      -0.176  14.009  19.031  0.00  0.00    +0.000 OA
ENDBRANCH   8  15
BRANCH  12  16
ATOM     16  O   UNL     1      -1.845  11.392  22.647  0.00  0.00    +0.000 OA
ATOM     17  C   UNL     1      -0.984  10.441  23.272  0.00  0.00    +0.000 C 
ENDBRANCH  12  16
ENDBRANCH   1  13
BRANCH   7  18
ATOM     18  C   UNL     1       1.076  10.730  19.433  0.00  0.00    +0.000 C 
BRANCH  18  19
ATOM     19  C   UNL     1       1.250   9.257  19.766  0.00  0.00    +0.000 A 
ATOM     20  C   UNL     1       0.550   8.672  20.838  0.00  0.00    +0.000 A 
ATOM     21  C   UNL     1       0.762   7.340  21.227  0.00  0.00    +0.000 A 
ATOM     22  C   UNL     1       1.734   6.625  20.523  0.00  0.00    +0.000 A 
ATOM     23  C   UNL     1       2.283   7.115  19.331  0.00  0.00    +0.000 A 
ATOM     24  C   UNL     1       2.065   8.452  18.964  0.00  0.00    +0.000 A 
ATOM     25  C   UNL     1       2.798   5.954  18.713  0.00  0.00    +0.000 A 
ATOM     26  C   UNL     1       2.758   5.320  17.464  0.00  0.00    +0.000 A 
ATOM     27  C   UNL     1       3.447   4.106  17.334  0.00  0.00    +0.000 A 
ATOM     28  C   UNL     1       4.316   3.665  18.338  0.00  0.00    +0.000 A 
ATOM     29  C   UNL     1       4.316   4.263  19.600  0.00  0.00    +0.000 A 
ATOM     30  C   UNL     1       3.348   5.251  19.776  0.00  0.00    +0.000 A 
ATOM     31  N   UNL     1       2.262   5.344  20.654  0.00  0.00    +0.000 N 
ATOM     32  C   UNL     1       1.444   4.164  20.909  0.00  0.00    +0.000 C 
ENDBRANCH  18  19
ENDBRANCH   7  18
TORSDOF 5
ENDMDL
