MODEL 1
REMARK VINA RESULT:      -7.8      0.000      0.000
REMARK  Name = 
REMARK  6 active torsions:
REMARK  status: ('A' for Active; 'I' for Inactive)
REMARK    1  A    between atoms: C_1  and  O_2
REMARK    2  A    between atoms: O_2  and  C_3
REMARK    3  A    between atoms: C_6  and  C_7
REMARK    4  A    between atoms: N_8  and  N_9
REMARK    5  A    between atoms: C_10  and  C_12
REMARK    6  A    between atoms: C_15  and  O_16
REMARK                            x       y       z     vdW  Elec       q    Type
REMARK                         _______ _______ _______ _____ _____    ______ ____
ROOT
ATOM      1  C   UNL     1       2.253   7.429  19.452  0.00  0.00    +0.000 C 
ATOM      2  N   UNL     1       1.587   7.600  20.549  0.00  0.00    +0.000 NA
ENDROOT
BRANCH   1   6
ATOM      3  C   UNL     1       2.980   3.408  18.127  0.00  0.00    +0.000 A 
ATOM      4  C   UNL     1       2.126   3.683  19.193  0.00  0.00    +0.000 A 
ATOM      5  C   UNL     1       1.928   4.993  19.609  0.00  0.00    +0.000 A 
ATOM      6  C   UNL     1       2.589   6.056  18.976  0.00  0.00    +0.000 A 
ATOM      7  C   UNL     1       3.511   5.807  17.924  0.00  0.00    +0.000 A 
ATOM      8  C   UNL     1       4.260   6.816  17.263  0.00  0.00    +0.000 A 
ATOM      9  C   UNL     1       5.156   6.521  16.232  0.00  0.00    +0.000 A 
ATOM     10  C   UNL     1       5.331   5.211  15.824  0.00  0.00    +0.000 A 
ATOM     11  C   UNL     1       4.612   4.194  16.450  0.00  0.00    +0.000 A 
ATOM     12  C   UNL     1       3.703   4.457  17.499  0.00  0.00    +0.000 A 
BRANCH   3  14
ATOM     13  C   UNL     1       3.751   1.215  18.615  0.00  0.00    +0.000 C 
ATOM     14  O   UNL     1       3.198   2.128  17.668  0.00  0.00    +0.000 OA
ENDBRANCH   3  14
ENDBRANCH   1   6
BRANCH   2  15
ATOM     15  N   UNL     1       1.289   8.875  20.928  0.00  0.00    +0.000 N 
ATOM     16  C   UNL     1       0.072   9.098  21.559  0.00  0.00    +0.000 C 
ATOM     17  O   UNL     1      -0.743   8.217  21.824  0.00  0.00    +0.000 OA
ATOM     18  H   UNL     1       1.981   9.606  20.816  0.00  0.00    +0.000 HD
BRANCH  16  19
ATOM     19  C   UNL     1      -0.249  10.502  21.951  0.00  0.00    +0.000 A 
ATOM     20  C   UNL     1       0.281  11.621  21.297  0.00  0.00    +0.000 A 
ATOM     21  C   UNL     1      -0.125  12.910  21.673  0.00  0.00    +0.000 A 
ATOM     22  C   UNL     1      -1.054  13.071  22.697  0.00  0.00    +0.000 A 
ATOM     23  C   UNL     1      -1.582  11.970  23.357  0.00  0.00    +0.000 A 
ATOM     24  C   UNL     1      -1.184  10.688  22.983  0.00  0.00    +0.000 A 
BRANCH  22  25
ATOM     25  O   UNL     1      -1.493  14.304  23.078  0.00  0.00    +0.000 OA
ATOM     26  H   UNL     1      -0.978  14.603  23.843  0.00  0.00    +0.000 HD
ENDBRANCH  22  25
ENDBRANCH  16  19
ENDBRANCH   2  15
TORSDOF 5
ENDMDL
MODEL 2
REMARK VINA RESULT:      -7.8      1.574      2.872
REMARK  Name = 
REMARK  6 active torsions:
REMARK  status: ('A' for Active; 'I' for Inactive)
REMARK    1  A    between atoms: C_1  and  O_2
REMARK    2  A    between atoms: O_2  and  C_3
REMARK    3  A    between atoms: C_6  and  C_7
REMARK    4  A    between atoms: N_8  and  N_9
REMARK    5  A    between atoms: C_10  and  C_12
REMARK    6  A    between atoms: C_15  and  O_16
REMARK                            x       y       z     vdW  Elec       q    Type
REMARK                         _______ _______ _______ _____ _____    ______ ____
ROOT
ATOM      1  C   UNL     1       2.224   7.266  19.435  0.00  0.00    +0.000 C 
ATOM      2  N   UNL     1       1.804   8.435  19.068  0.00  0.00    +0.000 NA
ENDROOT
BRANCH   1   6
ATOM      3  C   UNL     1       4.526   4.871  16.713  0.00  0.00    +0.000 A 
ATOM      4  C   UNL     1       4.721   6.247  16.818  0.00  0.00    +0.000 A 
ATOM      5  C   UNL     1       3.946   6.996  17.695  0.00  0.00    +0.000 A 
ATOM      6  C   UNL     1       2.952   6.387  18.475  0.00  0.00    +0.000 A 
ATOM      7  C   UNL     1       2.688   4.995  18.350  0.00  0.00    +0.000 A 
ATOM      8  C   UNL     1       1.669   4.308  19.061  0.00  0.00    +0.000 A 
ATOM      9  C   UNL     1       1.448   2.938  18.904  0.00  0.00    +0.000 A 
ATOM     10  C   UNL     1       2.238   2.207  18.035  0.00  0.00    +0.000 A 
ATOM     11  C   UNL     1       3.249   2.849  17.320  0.00  0.00    +0.000 A 
ATOM     12  C   UNL     1       3.494   4.234  17.451  0.00  0.00    +0.000 A 
BRANCH   3  14
ATOM     13  C   UNL     1       6.626   4.507  15.663  0.00  0.00    +0.000 C 
ATOM     14  O   UNL     1       5.279   4.084  15.869  0.00  0.00    +0.000 OA
ENDBRANCH   3  14
ENDBRANCH   1   6
BRANCH   2  15
ATOM     15  N   UNL     1       1.163   9.207  19.990  0.00  0.00    +0.000 N 
ATOM     16  C   UNL     1       0.115  10.007  19.552  0.00  0.00    +0.000 C 
ATOM     17  O   UNL     1      -0.291  10.044  18.394  0.00  0.00    +0.000 OA
ATOM     18  H   UNL     1       1.406   9.124  20.969  0.00  0.00    +0.000 HD
BRANCH  16  19
ATOM     19  C   UNL     1      -0.565  10.861  20.570  0.00  0.00    +0.000 A 
ATOM     20  C   UNL     1      -1.370  11.958  20.236  0.00  0.00    +0.000 A 
ATOM     21  C   UNL     1      -2.038  12.670  21.243  0.00  0.00    +0.000 A 
ATOM     22  C   UNL     1      -1.897  12.282  22.572  0.00  0.00    +0.000 A 
ATOM     23  C   UNL     1      -1.097  11.201  22.917  0.00  0.00    +0.000 A 
ATOM     24  C   UNL     1      -0.436  10.489  21.918  0.00  0.00    +0.000 A 
BRANCH  22  25
ATOM     25  O   UNL     1      -2.547  12.931  23.580  0.00  0.00    +0.000 OA
ATOM     26  H   UNL     1      -2.459  12.417  24.398  0.00  0.00    +0.000 HD
ENDBRANCH  22  25
ENDBRANCH  16  19
ENDBRANCH   2  15
TORSDOF 5
ENDMDL
MODEL 3
REMARK VINA RESULT:      -7.7      1.431      2.866
REMARK  Name = 
REMARK  6 active torsions:
REMARK  status: ('A' for Active; 'I' for Inactive)
REMARK    1  A    between atoms: C_1  and  O_2
REMARK    2  A    between atoms: O_2  and  C_3
REMARK    3  A    between atoms: C_6  and  C_7
REMARK    4  A    between atoms: N_8  and  N_9
REMARK    5  A    between atoms: C_10  and  C_12
REMARK    6  A    between atoms: C_15  and  O_16
REMARK                            x       y       z     vdW  Elec       q    Type
REMARK                         _______ _______ _______ _____ _____    ______ ____
ROOT
ATOM      1  C   UNL     1       2.120   7.756  18.209  0.00  0.00    +0.000 C 
ATOM      2  N   UNL     1       2.027   8.070  19.463  0.00  0.00    +0.000 NA
ENDROOT
BRANCH   1   6
ATOM      3  C   UNL     1       5.131   4.945  16.992  0.00  0.00    +0.000 A 
ATOM      4  C   UNL     1       5.330   6.320  16.886  0.00  0.00    +0.000 A 
ATOM      5  C   UNL     1       4.329   7.202  17.271  0.00  0.00    +0.000 A 
ATOM      6  C   UNL     1       3.102   6.728  17.757  0.00  0.00    +0.000 A 
ATOM      7  C   UNL     1       2.843   5.331  17.824  0.00  0.00    +0.000 A 
ATOM      8  C   UNL     1       1.614   4.767  18.254  0.00  0.00    +0.000 A 
ATOM      9  C   UNL     1       1.407   3.386  18.302  0.00  0.00    +0.000 A 
ATOM     10  C   UNL     1       2.421   2.523  17.927  0.00  0.00    +0.000 A 
ATOM     11  C   UNL     1       3.642   3.042  17.499  0.00  0.00    +0.000 A 
ATOM     12  C   UNL     1       3.882   4.434  17.433  0.00  0.00    +0.000 A 
BRANCH   3  14
ATOM     13  C   UNL     1       7.303   4.578  16.103  0.00  0.00    +0.000 C 
ATOM     14  O   UNL     1       6.099   4.031  16.638  0.00  0.00    +0.000 OA
ENDBRANCH   3  14
ENDBRANCH   1   6
BRANCH   2  15
ATOM     15  N   UNL     1       1.100   9.001  19.825  0.00  0.00    +0.000 N 
ATOM     16  C   UNL     1       0.852   9.179  21.180  0.00  0.00    +0.000 C 
ATOM     17  O   UNL     1       1.433   8.572  22.076  0.00  0.00    +0.000 OA
ATOM     18  H   UNL     1       0.677   9.589  19.117  0.00  0.00    +0.000 HD
BRANCH  16  19
ATOM     19  C   UNL     1      -0.179  10.188  21.561  0.00  0.00    +0.000 A 
ATOM     20  C   UNL     1      -0.650  10.347  22.871  0.00  0.00    +0.000 A 
ATOM     21  C   UNL     1      -1.565  11.367  23.167  0.00  0.00    +0.000 A 
ATOM     22  C   UNL     1      -2.004  12.218  22.156  0.00  0.00    +0.000 A 
ATOM     23  C   UNL     1      -1.551  12.067  20.853  0.00  0.00    +0.000 A 
ATOM     24  C   UNL     1      -0.637  11.056  20.556  0.00  0.00    +0.000 A 
BRANCH  22  25
ATOM     25  O   UNL     1      -2.875  13.237  22.405  0.00  0.00    +0.000 OA
ATOM     26  H   UNL     1      -2.719  13.576  23.301  0.00  0.00    +0.000 HD
ENDBRANCH  22  25
ENDBRANCH  16  19
ENDBRANCH   2  15
TORSDOF 5
ENDMDL
MODEL 4
REMARK VINA RESULT:      -7.6      2.792      3.766
REMARK  Name = 
REMARK  6 active torsions:
REMARK  status: ('A' for Active; 'I' for Inactive)
REMARK    1  A    between atoms: C_1  and  O_2
REMARK    2  A    between atoms: O_2  and  C_3
REMARK    3  A    between atoms: C_6  and  C_7
REMARK    4  A    between atoms: N_8  and  N_9
REMARK    5  A    between atoms: C_10  and  C_12
REMARK    6  A    between atoms: C_15  and  O_16
REMARK                            x       y       z     vdW  Elec       q    Type
REMARK                         _______ _______ _______ _____ _____    ______ ____
ROOT
ATOM      1  C   UNL     1       2.005   7.431  17.981  0.00  0.00    +0.000 C 
ATOM      2  N   UNL     1       2.126   8.713  17.839  0.00  0.00    +0.000 NA
ENDROOT
BRANCH   1   6
ATOM      3  C   UNL     1       5.624   5.138  18.275  0.00  0.00    +0.000 A 
ATOM      4  C   UNL     1       5.576   6.338  17.569  0.00  0.00    +0.000 A 
ATOM      5  C   UNL     1       4.384   7.046  17.477  0.00  0.00    +0.000 A 
ATOM      6  C   UNL     1       3.213   6.562  18.078  0.00  0.00    +0.000 A 
ATOM      7  C   UNL     1       3.213   5.312  18.756  0.00  0.00    +0.000 A 
ATOM      8  C   UNL     1       2.064   4.725  19.348  0.00  0.00    +0.000 A 
ATOM      9  C   UNL     1       2.114   3.492  20.004  0.00  0.00    +0.000 A 
ATOM     10  C   UNL     1       3.313   2.808  20.096  0.00  0.00    +0.000 A 
ATOM     11  C   UNL     1       4.462   3.356  19.527  0.00  0.00    +0.000 A 
ATOM     12  C   UNL     1       4.445   4.596  18.851  0.00  0.00    +0.000 A 
BRANCH   3  14
ATOM     13  C   UNL     1       7.708   4.508  17.324  0.00  0.00    +0.000 C 
ATOM     14  O   UNL     1       6.785   4.407  18.407  0.00  0.00    +0.000 OA
ENDBRANCH   3  14
ENDBRANCH   1   6
BRANCH   2  15
ATOM     15  N   UNL     1       0.990   9.464  17.776  0.00  0.00    +0.000 N 
ATOM     16  C   UNL     1       0.388   9.832  18.972  0.00  0.00    +0.000 C 
ATOM     17  O   UNL     1       0.827   9.551  20.084  0.00  0.00    +0.000 OA
ATOM     18  H   UNL     1       0.660   9.797  16.879  0.00  0.00    +0.000 HD
BRANCH  16  19
ATOM     19  C   UNL     1      -0.866  10.638  18.887  0.00  0.00    +0.000 A 
ATOM     20  C   UNL     1      -1.805  10.489  17.858  0.00  0.00    +0.000 A 
ATOM     21  C   UNL     1      -2.996  11.228  17.885  0.00  0.00    +0.000 A 
ATOM     22  C   UNL     1      -3.240  12.108  18.936  0.00  0.00    +0.000 A 
ATOM     23  C   UNL     1      -2.315  12.269  19.958  0.00  0.00    +0.000 A 
ATOM     24  C   UNL     1      -1.132  11.532  19.936  0.00  0.00    +0.000 A 
BRANCH  22  25
ATOM     25  O   UNL     1      -4.395  12.828  19.013  0.00  0.00    +0.000 OA
ATOM     26  H   UNL     1      -5.025  12.359  19.584  0.00  0.00    +0.000 HD
ENDBRANCH  22  25
ENDBRANCH  16  19
ENDBRANCH   2  15
TORSDOF 5
ENDMDL
MODEL 5
REMARK VINA RESULT:      -7.6      1.560      2.952
REMARK  Name = 
REMARK  6 active torsions:
REMARK  status: ('A' for Active; 'I' for Inactive)
REMARK    1  A    between atoms: C_1  and  O_2
REMARK    2  A    between atoms: O_2  and  C_3
REMARK    3  A    between atoms: C_6  and  C_7
REMARK    4  A    between atoms: N_8  and  N_9
REMARK    5  A    between atoms: C_10  and  C_12
REMARK    6  A    between atoms: C_15  and  O_16
REMARK                            x       y       z     vdW  Elec       q    Type
REMARK                         _______ _______ _______ _____ _____    ______ ____
ROOT
ATOM      1  C   UNL     1       2.261   7.241  19.434  0.00  0.00    +0.000 C 
ATOM      2  N   UNL     1       1.803   8.403  19.093  0.00  0.00    +0.000 NA
ENDROOT
BRANCH   1   6
ATOM      3  C   UNL     1       4.611   4.963  16.652  0.00  0.00    +0.000 A 
ATOM      4  C   UNL     1       4.789   6.336  16.806  0.00  0.00    +0.000 A 
ATOM      5  C   UNL     1       4.000   7.047  17.701  0.00  0.00    +0.000 A 
ATOM      6  C   UNL     1       3.006   6.402  18.451  0.00  0.00    +0.000 A 
ATOM      7  C   UNL     1       2.758   5.013  18.277  0.00  0.00    +0.000 A 
ATOM      8  C   UNL     1       1.741   4.292  18.957  0.00  0.00    +0.000 A 
ATOM      9  C   UNL     1       1.535   2.925  18.751  0.00  0.00    +0.000 A 
ATOM     10  C   UNL     1       2.340   2.232  17.865  0.00  0.00    +0.000 A 
ATOM     11  C   UNL     1       3.350   2.908  17.181  0.00  0.00    +0.000 A 
ATOM     12  C   UNL     1       3.580   4.291  17.360  0.00  0.00    +0.000 A 
BRANCH   3  14
ATOM     13  C   UNL     1       6.617   4.798  15.391  0.00  0.00    +0.000 C 
ATOM     14  O   UNL     1       5.379   4.212  15.789  0.00  0.00    +0.000 OA
ENDBRANCH   3  14
ENDBRANCH   1   6
BRANCH   2  15
ATOM     15  N   UNL     1       1.148   9.138  20.035  0.00  0.00    +0.000 N 
ATOM     16  C   UNL     1       0.107   9.956  19.613  0.00  0.00    +0.000 C 
ATOM     17  O   UNL     1      -0.280  10.041  18.451  0.00  0.00    +0.000 OA
ATOM     18  H   UNL     1       1.375   9.015  21.014  0.00  0.00    +0.000 HD
BRANCH  16  19
ATOM     19  C   UNL     1      -0.589  10.770  20.653  0.00  0.00    +0.000 A 
ATOM     20  C   UNL     1      -0.491  10.506  22.026  0.00  0.00    +0.000 A 
ATOM     21  C   UNL     1      -1.113  11.359  22.949  0.00  0.00    +0.000 A 
ATOM     22  C   UNL     1      -1.826  12.465  22.496  0.00  0.00    +0.000 A 
ATOM     23  C   UNL     1      -1.936  12.735  21.139  0.00  0.00    +0.000 A 
ATOM     24  C   UNL     1      -1.314  11.891  20.219  0.00  0.00    +0.000 A 
BRANCH  22  25
ATOM     25  O   UNL     1      -2.426  13.333  23.360  0.00  0.00    +0.000 OA
ATOM     26  H   UNL     1      -2.503  14.203  22.936  0.00  0.00    +0.000 HD
ENDBRANCH  22  25
ENDBRANCH  16  19
ENDBRANCH   2  15
TORSDOF 5
ENDMDL
MODEL 6
REMARK VINA RESULT:      -7.6      3.156      9.311
REMARK  Name = 
REMARK  6 active torsions:
REMARK  status: ('A' for Active; 'I' for Inactive)
REMARK    1  A    between atoms: C_1  and  O_2
REMARK    2  A    between atoms: O_2  and  C_3
REMARK    3  A    between atoms: C_6  and  C_7
REMARK    4  A    between atoms: N_8  and  N_9
REMARK    5  A    between atoms: C_10  and  C_12
REMARK    6  A    between atoms: C_15  and  O_16
REMARK                            x       y       z     vdW  Elec       q    Type
REMARK                         _______ _______ _______ _____ _____    ______ ____
ROOT
ATOM      1  C   UNL     1       0.904   9.446  17.927  0.00  0.00    +0.000 C 
ATOM      2  N   UNL     1       1.754   8.710  18.571  0.00  0.00    +0.000 NA
ENDROOT
BRANCH   1   6
ATOM      3  C   UNL     1      -1.701  12.064  20.119  0.00  0.00    +0.000 A 
ATOM      4  C   UNL     1      -0.417  11.766  20.570  0.00  0.00    +0.000 A 
ATOM      5  C   UNL     1       0.393  10.900  19.848  0.00  0.00    +0.000 A 
ATOM      6  C   UNL     1      -0.068  10.303  18.665  0.00  0.00    +0.000 A 
ATOM      7  C   UNL     1      -1.392  10.540  18.206  0.00  0.00    +0.000 A 
ATOM      8  C   UNL     1      -1.956   9.940  17.050  0.00  0.00    +0.000 A 
ATOM      9  C   UNL     1      -3.265  10.204  16.639  0.00  0.00    +0.000 A 
ATOM     10  C   UNL     1      -4.053  11.079  17.365  0.00  0.00    +0.000 A 
ATOM     11  C   UNL     1      -3.532  11.687  18.506  0.00  0.00    +0.000 A 
ATOM     12  C   UNL     1      -2.215  11.437  18.953  0.00  0.00    +0.000 A 
BRANCH   3  14
ATOM     13  C   UNL     1      -2.824  12.584  22.146  0.00  0.00    +0.000 C 
ATOM     14  O   UNL     1      -2.537  12.928  20.792  0.00  0.00    +0.000 OA
ENDBRANCH   3  14
ENDBRANCH   1   6
BRANCH   2  15
ATOM     15  N   UNL     1       2.633   7.960  17.849  0.00  0.00    +0.000 N 
ATOM     16  C   UNL     1       2.909   6.674  18.294  0.00  0.00    +0.000 C 
ATOM     17  O   UNL     1       2.391   6.156  19.280  0.00  0.00    +0.000 OA
ATOM     18  H   UNL     1       2.999   8.320  16.976  0.00  0.00    +0.000 HD
BRANCH  16  19
ATOM     19  C   UNL     1       3.889   5.871  17.504  0.00  0.00    +0.000 A 
ATOM     20  C   UNL     1       3.879   4.471  17.465  0.00  0.00    +0.000 A 
ATOM     21  C   UNL     1       4.784   3.787  16.641  0.00  0.00    +0.000 A 
ATOM     22  C   UNL     1       5.690   4.504  15.865  0.00  0.00    +0.000 A 
ATOM     23  C   UNL     1       5.715   5.891  15.899  0.00  0.00    +0.000 A 
ATOM     24  C   UNL     1       4.813   6.574  16.714  0.00  0.00    +0.000 A 
BRANCH  22  25
ATOM     25  O   UNL     1       6.571   3.879  15.032  0.00  0.00    +0.000 OA
ATOM     26  H   UNL     1       6.721   4.437  14.252  0.00  0.00    +0.000 HD
ENDBRANCH  22  25
ENDBRANCH  16  19
ENDBRANCH   2  15
TORSDOF 5
ENDMDL
MODEL 7
REMARK VINA RESULT:      -7.6      3.108      9.303
REMARK  Name = 
REMARK  6 active torsions:
REMARK  status: ('A' for Active; 'I' for Inactive)
REMARK    1  A    between atoms: C_1  and  O_2
REMARK    2  A    between atoms: O_2  and  C_3
REMARK    3  A    between atoms: C_6  and  C_7
REMARK    4  A    between atoms: N_8  and  N_9
REMARK    5  A    between atoms: C_10  and  C_12
REMARK    6  A    between atoms: C_15  and  O_16
REMARK                            x       y       z     vdW  Elec       q    Type
REMARK                         _______ _______ _______ _____ _____    ______ ____
ROOT
ATOM      1  C   UNL     1       0.814   9.346  17.936  0.00  0.00    +0.000 C 
ATOM      2  N   UNL     1       1.953   8.993  18.443  0.00  0.00    +0.000 NA
ENDROOT
BRANCH   1   6
ATOM      3  C   UNL     1      -1.574  12.178  20.109  0.00  0.00    +0.000 A 
ATOM      4  C   UNL     1      -0.287  11.839  20.522  0.00  0.00    +0.000 A 
ATOM      5  C   UNL     1       0.452  10.904  19.808  0.00  0.00    +0.000 A 
ATOM      6  C   UNL     1      -0.086  10.280  18.672  0.00  0.00    +0.000 A 
ATOM      7  C   UNL     1      -1.416  10.560  18.257  0.00  0.00    +0.000 A 
ATOM      8  C   UNL     1      -2.055   9.938  17.152  0.00  0.00    +0.000 A 
ATOM      9  C   UNL     1      -3.366  10.247  16.782  0.00  0.00    +0.000 A 
ATOM     10  C   UNL     1      -4.082  11.189  17.499  0.00  0.00    +0.000 A 
ATOM     11  C   UNL     1      -3.486  11.821  18.589  0.00  0.00    +0.000 A 
ATOM     12  C   UNL     1      -2.164  11.527  18.994  0.00  0.00    +0.000 A 
BRANCH   3  14
ATOM     13  C   UNL     1      -2.683  12.783  22.121  0.00  0.00    +0.000 C 
ATOM     14  O   UNL     1      -2.339  13.110  20.775  0.00  0.00    +0.000 OA
ENDBRANCH   3  14
ENDBRANCH   1   6
BRANCH   2  15
ATOM     15  N   UNL     1       2.745   8.152  17.719  0.00  0.00    +0.000 N 
ATOM     16  C   UNL     1       2.967   6.876  18.221  0.00  0.00    +0.000 C 
ATOM     17  O   UNL     1       2.474   6.444  19.260  0.00  0.00    +0.000 OA
ATOM     18  H   UNL     1       3.084   8.442  16.810  0.00  0.00    +0.000 HD
BRANCH  16  19
ATOM     19  C   UNL     1       3.853   5.974  17.428  0.00  0.00    +0.000 A 
ATOM     20  C   UNL     1       4.874   6.442  16.591  0.00  0.00    +0.000 A 
ATOM     21  C   UNL     1       5.715   5.532  15.934  0.00  0.00    +0.000 A 
ATOM     22  C   UNL     1       5.531   4.164  16.118  0.00  0.00    +0.000 A 
ATOM     23  C   UNL     1       4.519   3.687  16.940  0.00  0.00    +0.000 A 
ATOM     24  C   UNL     1       3.684   4.590  17.598  0.00  0.00    +0.000 A 
BRANCH  22  25
ATOM     25  O   UNL     1       6.340   3.246  15.519  0.00  0.00    +0.000 OA
ATOM     26  H   UNL     1       7.078   3.036  16.113  0.00  0.00    +0.000 HD
ENDBRANCH  22  25
ENDBRANCH  16  19
ENDBRANCH   2  15
TORSDOF 5
ENDMDL
MODEL 8
REMARK VINA RESULT:      -7.6      2.438      3.449
REMARK  Name = 
REMARK  6 active torsions:
REMARK  status: ('A' for Active; 'I' for Inactive)
REMARK    1  A    between atoms: C_1  and  O_2
REMARK    2  A    between atoms: O_2  and  C_3
REMARK    3  A    between atoms: C_6  and  C_7
REMARK    4  A    between atoms: N_8  and  N_9
REMARK    5  A    between atoms: C_10  and  C_12
REMARK    6  A    between atoms: C_15  and  O_16
REMARK                            x       y       z     vdW  Elec       q    Type
REMARK                         _______ _______ _______ _____ _____    ______ ____
ROOT
ATOM      1  C   UNL     1       1.932   7.672  17.834  0.00  0.00    +0.000 C 
ATOM      2  N   UNL     1       2.057   8.948  17.650  0.00  0.00    +0.000 NA
ENDROOT
BRANCH   1   6
ATOM      3  C   UNL     1       5.426   5.221  17.349  0.00  0.00    +0.000 A 
ATOM      4  C   UNL     1       5.477   6.605  17.192  0.00  0.00    +0.000 A 
ATOM      5  C   UNL     1       4.325   7.367  17.337  0.00  0.00    +0.000 A 
ATOM      6  C   UNL     1       3.094   6.760  17.629  0.00  0.00    +0.000 A 
ATOM      7  C   UNL     1       2.995   5.346  17.738  0.00  0.00    +0.000 A 
ATOM      8  C   UNL     1       1.783   4.647  17.981  0.00  0.00    +0.000 A 
ATOM      9  C   UNL     1       1.736   3.254  18.079  0.00  0.00    +0.000 A 
ATOM     10  C   UNL     1       2.897   2.513  17.944  0.00  0.00    +0.000 A 
ATOM     11  C   UNL     1       4.105   3.166  17.706  0.00  0.00    +0.000 A 
ATOM     12  C   UNL     1       4.187   4.573  17.594  0.00  0.00    +0.000 A 
BRANCH   3  14
ATOM     13  C   UNL     1       7.162   4.411  15.944  0.00  0.00    +0.000 C 
ATOM     14  O   UNL     1       6.543   4.425  17.230  0.00  0.00    +0.000 OA
ENDBRANCH   3  14
ENDBRANCH   1   6
BRANCH   2  15
ATOM     15  N   UNL     1       0.969   9.739  17.871  0.00  0.00    +0.000 N 
ATOM     16  C   UNL     1       0.555   9.922  19.184  0.00  0.00    +0.000 C 
ATOM     17  O   UNL     1       1.120   9.441  20.162  0.00  0.00    +0.000 OA
ATOM     18  H   UNL     1       0.542  10.232  17.096  0.00  0.00    +0.000 HD
BRANCH  16  19
ATOM     19  C   UNL     1      -0.649  10.775  19.409  0.00  0.00    +0.000 A 
ATOM     20  C   UNL     1      -0.775  11.653  20.493  0.00  0.00    +0.000 A 
ATOM     21  C   UNL     1      -1.904  12.478  20.599  0.00  0.00    +0.000 A 
ATOM     22  C   UNL     1      -2.897  12.420  19.625  0.00  0.00    +0.000 A 
ATOM     23  C   UNL     1      -2.787  11.549  18.549  0.00  0.00    +0.000 A 
ATOM     24  C   UNL     1      -1.663  10.731  18.439  0.00  0.00    +0.000 A 
BRANCH  22  25
ATOM     25  O   UNL     1      -3.999  13.220  19.677  0.00  0.00    +0.000 OA
ATOM     26  H   UNL     1      -3.716  14.146  19.748  0.00  0.00    +0.000 HD
ENDBRANCH  22  25
ENDBRANCH  16  19
ENDBRANCH   2  15
TORSDOF 5
ENDMDL
MODEL 9
REMARK VINA RESULT:      -7.5      3.419      9.150
REMARK  Name = 
REMARK  6 active torsions:
REMARK  status: ('A' for Active; 'I' for Inactive)
REMARK    1  A    between atoms: C_1  and  O_2
REMARK    2  A    between atoms: O_2  and  C_3
REMARK    3  A    between atoms: C_6  and  C_7
REMARK    4  A    between atoms: N_8  and  N_9
REMARK    5  A    between atoms: C_10  and  C_12
REMARK    6  A    between atoms: C_15  and  O_16
REMARK                            x       y       z     vdW  Elec       q    Type
REMARK                         _______ _______ _______ _____ _____    ______ ____
ROOT
ATOM      1  C   UNL     1       0.654   9.625  18.205  0.00  0.00    +0.000 C 
ATOM      2  N   UNL     1       1.370   8.923  19.025  0.00  0.00    +0.000 NA
ENDROOT
BRANCH   1   6
ATOM      3  C   UNL     1      -2.424  12.192  19.751  0.00  0.00    +0.000 A 
ATOM      4  C   UNL     1      -1.232  11.984  20.441  0.00  0.00    +0.000 A 
ATOM      5  C   UNL     1      -0.265  11.132  19.923  0.00  0.00    +0.000 A 
ATOM      6  C   UNL     1      -0.474  10.461  18.710  0.00  0.00    +0.000 A 
ATOM      7  C   UNL     1      -1.702  10.605  18.008  0.00  0.00    +0.000 A 
ATOM      8  C   UNL     1      -2.018   9.925  16.802  0.00  0.00    +0.000 A 
ATOM      9  C   UNL     1      -3.240  10.100  16.149  0.00  0.00    +0.000 A 
ATOM     10  C   UNL     1      -4.186  10.962  16.674  0.00  0.00    +0.000 A 
ATOM     11  C   UNL     1      -3.910  11.647  17.857  0.00  0.00    +0.000 A 
ATOM     12  C   UNL     1      -2.687  11.488  18.546  0.00  0.00    +0.000 A 
BRANCH   3  14
ATOM     13  C   UNL     1      -3.869  12.783  21.541  0.00  0.00    +0.000 C 
ATOM     14  O   UNL     1      -3.406  13.038  20.216  0.00  0.00    +0.000 OA
ENDBRANCH   3  14
ENDBRANCH   1   6
BRANCH   2  15
ATOM     15  N   UNL     1       2.402   8.193  18.515  0.00  0.00    +0.000 N 
ATOM     16  C   UNL     1       2.684   6.968  19.104  0.00  0.00    +0.000 C 
ATOM     17  O   UNL     1       2.048   6.484  20.038  0.00  0.00    +0.000 OA
ATOM     18  H   UNL     1       2.880   8.516  17.683  0.00  0.00    +0.000 HD
BRANCH  16  19
ATOM     19  C   UNL     1       3.829   6.188  18.547  0.00  0.00    +0.000 A 
ATOM     20  C   UNL     1       4.542   5.238  19.289  0.00  0.00    +0.000 A 
ATOM     21  C   UNL     1       5.558   4.490  18.676  0.00  0.00    +0.000 A 
ATOM     22  C   UNL     1       5.854   4.696  17.332  0.00  0.00    +0.000 A 
ATOM     23  C   UNL     1       5.158   5.639  16.587  0.00  0.00    +0.000 A 
ATOM     24  C   UNL     1       4.145   6.381  17.193  0.00  0.00    +0.000 A 
BRANCH  22  25
ATOM     25  O   UNL     1       6.817   3.975  16.691  0.00  0.00    +0.000 OA
ATOM     26  H   UNL     1       7.061   3.212  17.240  0.00  0.00    +0.000 HD
ENDBRANCH  22  25
ENDBRANCH  16  19
ENDBRANCH   2  15
TORSDOF 5
ENDMDL
