MODEL 1
REMARK VINA RESULT:      -7.6      0.000      0.000
REMARK  Name = 
REMARK  7 active torsions:
REMARK  status: ('A' for Active; 'I' for Inactive)
REMARK    1  A    between atoms: C_1  and  O_2
REMARK    2  A    between atoms: O_2  and  C_3
REMARK    3  A    between atoms: C_3  and  C_4
REMARK    4  A    between atoms: N_6  and  N_7
REMARK    5  A    between atoms: C_8  and  C_9
REMARK    6  A    between atoms: C_12  and  S_13
REMARK    7  A    between atoms: S_13  and  C_14
REMARK                            x       y       z     vdW  Elec       q    Type
REMARK                         _______ _______ _______ _____ _____    ______ ____
ROOT
ATOM      1  C   UNL     1       7.629   7.775  17.827  0.00  0.00    +0.000 A 
ATOM      2  C   UNL     1       8.115   6.765  18.632  0.00  0.00    +0.000 A 
ATOM      3  C   UNL     1       7.280   5.648  18.423  0.00  0.00    +0.000 A 
ATOM      4  C   UNL     1       6.322   6.033  17.507  0.00  0.00    +0.000 A 
ATOM      5  O   UNL     1       6.529   7.338  17.147  0.00  0.00    +0.000 OA
ENDROOT
BRANCH   1   7
ATOM      6  N   UNL     1       8.891   9.617  18.505  0.00  0.00    +0.000 NA
ATOM      7  C   UNL     1       8.101   9.112  17.615  0.00  0.00    +0.000 C 
BRANCH   6  10
ATOM      8  C   UNL     1       9.629  11.697  19.379  0.00  0.00    +0.000 C 
ATOM      9  O   UNL     1      10.084  12.826  19.193  0.00  0.00    +0.000 OA
ATOM     10  N   UNL     1       9.363  10.870  18.306  0.00  0.00    +0.000 N 
ATOM     11  H   UNL     1       9.560  11.229  17.378  0.00  0.00    +0.000 HD
BRANCH   8  12
ATOM     12  C   UNL     1       9.305  11.121  20.774  0.00  0.00    +0.000 C 
BRANCH  12  14
ATOM     13  C   UNL     1       8.135  12.384  22.379  0.00  0.00    +0.000 C 
ATOM     14  O   UNL     1       9.414  12.020  21.872  0.00  0.00    +0.000 OA
ENDBRANCH  12  14
ENDBRANCH   8  12
ENDBRANCH   6  10
ENDBRANCH   1   7
BRANCH   4  15
ATOM     15  S   UNL     1       5.000   5.088  16.879  0.00  0.00    +0.000 S 
BRANCH  15  16
ATOM     16  C   UNL     1       3.784   5.517  18.135  0.00  0.00    +0.000 A 
ATOM     17  C   UNL     1       3.252   6.815  18.086  0.00  0.00    +0.000 A 
ATOM     18  C   UNL     1       2.348   7.242  19.052  0.00  0.00    +0.000 A 
ATOM     19  C   UNL     1       1.979   6.374  20.073  0.00  0.00    +0.000 A 
ATOM     20  C   UNL     1       2.506   5.073  20.132  0.00  0.00    +0.000 A 
ATOM     21  C   UNL     1       2.133   4.206  21.169  0.00  0.00    +0.000 A 
ATOM     22  C   UNL     1       2.657   2.923  21.226  0.00  0.00    +0.000 A 
ATOM     23  C   UNL     1       3.542   2.548  20.237  0.00  0.00    +0.000 A 
ATOM     24  N   UNL     1       3.926   3.354  19.223  0.00  0.00    +0.000 NA
ATOM     25  C   UNL     1       3.425   4.614  19.156  0.00  0.00    +0.000 A 
ENDBRANCH  15  16
ENDBRANCH   4  15
TORSDOF 6
ENDMDL
MODEL 2
REMARK VINA RESULT:      -7.4      1.362      1.383
REMARK  Name = 
REMARK  7 active torsions:
REMARK  status: ('A' for Active; 'I' for Inactive)
REMARK    1  A    between atoms: C_1  and  O_2
REMARK    2  A    between atoms: O_2  and  C_3
REMARK    3  A    between atoms: C_3  and  C_4
REMARK    4  A    between atoms: N_6  and  N_7
REMARK    5  A    between atoms: C_8  and  C_9
REMARK    6  A    between atoms: C_12  and  S_13
REMARK    7  A    between atoms: S_13  and  C_14
REMARK                            x       y       z     vdW  Elec       q    Type
REMARK                         _______ _______ _______ _____ _____    ______ ____
ROOT
ATOM      1  C   UNL     1       7.842   8.142  17.801  0.00  0.00    +0.000 A 
ATOM      2  C   UNL     1       8.254   7.216  18.739  0.00  0.00    +0.000 A 
ATOM      3  C   UNL     1       7.667   5.987  18.373  0.00  0.00    +0.000 A 
ATOM      4  C   UNL     1       6.922   6.224  17.236  0.00  0.00    +0.000 A 
ATOM      5  O   UNL     1       7.022   7.545  16.888  0.00  0.00    +0.000 OA
ENDROOT
BRANCH   1   7
ATOM      6  N   UNL     1       8.993  10.048  18.502  0.00  0.00    +0.000 NA
ATOM      7  C   UNL     1       8.155   9.534  17.662  0.00  0.00    +0.000 C 
BRANCH   6  10
ATOM      8  C   UNL     1       9.716  12.094  19.463  0.00  0.00    +0.000 C 
ATOM      9  O   UNL     1      10.034  13.276  19.330  0.00  0.00    +0.000 OA
ATOM     10  N   UNL     1       9.314  11.356  18.368  0.00  0.00    +0.000 N 
ATOM     11  H   UNL     1       9.297  11.824  17.468  0.00  0.00    +0.000 HD
BRANCH   8  12
ATOM     12  C   UNL     1       9.718  11.351  20.817  0.00  0.00    +0.000 C 
BRANCH  12  14
ATOM     13  C   UNL     1       8.496  12.887  22.116  0.00  0.00    +0.000 C 
ATOM     14  O   UNL     1       8.579  11.546  21.647  0.00  0.00    +0.000 OA
ENDBRANCH  12  14
ENDBRANCH   8  12
ENDBRANCH   6  10
ENDBRANCH   1   7
BRANCH   4  15
ATOM     15  S   UNL     1       5.947   5.093  16.338  0.00  0.00    +0.000 S 
BRANCH  15  16
ATOM     16  C   UNL     1       4.370   5.465  17.120  0.00  0.00    +0.000 A 
ATOM     17  C   UNL     1       4.086   6.817  17.365  0.00  0.00    +0.000 A 
ATOM     18  C   UNL     1       2.913   7.184  18.014  0.00  0.00    +0.000 A 
ATOM     19  C   UNL     1       2.024   6.198  18.426  0.00  0.00    +0.000 A 
ATOM     20  C   UNL     1       2.298   4.841  18.186  0.00  0.00    +0.000 A 
ATOM     21  C   UNL     1       1.398   3.853  18.611  0.00  0.00    +0.000 A 
ATOM     22  C   UNL     1       1.673   2.514  18.375  0.00  0.00    +0.000 A 
ATOM     23  C   UNL     1       2.846   2.206  17.718  0.00  0.00    +0.000 A 
ATOM     24  N   UNL     1       3.738   3.130  17.294  0.00  0.00    +0.000 NA
ATOM     25  C   UNL     1       3.485   4.444  17.522  0.00  0.00    +0.000 A 
ENDBRANCH  15  16
ENDBRANCH   4  15
TORSDOF 6
ENDMDL
MODEL 3
REMARK VINA RESULT:      -7.3      0.910      1.220
REMARK  Name = 
REMARK  7 active torsions:
REMARK  status: ('A' for Active; 'I' for Inactive)
REMARK    1  A    between atoms: C_1  and  O_2
REMARK    2  A    between atoms: O_2  and  C_3
REMARK    3  A    between atoms: C_3  and  C_4
REMARK    4  A    between atoms: N_6  and  N_7
REMARK    5  A    between atoms: C_8  and  C_9
REMARK    6  A    between atoms: C_12  and  S_13
REMARK    7  A    between atoms: S_13  and  C_14
REMARK                            x       y       z     vdW  Elec       q    Type
REMARK                         _______ _______ _______ _____ _____    ______ ____
ROOT
ATOM      1  C   UNL     1       7.670   8.089  17.800  0.00  0.00    +0.000 A 
ATOM      2  C   UNL     1       8.303   7.248  18.694  0.00  0.00    +0.000 A 
ATOM      3  C   UNL     1       7.680   5.989  18.569  0.00  0.00    +0.000 A 
ATOM      4  C   UNL     1       6.695   6.125  17.612  0.00  0.00    +0.000 A 
ATOM      5  O   UNL     1       6.683   7.413  17.146  0.00  0.00    +0.000 OA
ENDROOT
BRANCH   1   7
ATOM      6  N   UNL     1       8.740  10.119  18.230  0.00  0.00    +0.000 NA
ATOM      7  C   UNL     1       7.910   9.467  17.483  0.00  0.00    +0.000 C 
BRANCH   6  10
ATOM      8  C   UNL     1       9.652  12.227  18.826  0.00  0.00    +0.000 C 
ATOM      9  O   UNL     1       9.904  13.396  18.535  0.00  0.00    +0.000 OA
ATOM     10  N   UNL     1       8.992  11.414  17.927  0.00  0.00    +0.000 N 
ATOM     11  H   UNL     1       8.733  11.817  17.033  0.00  0.00    +0.000 HD
BRANCH   8  12
ATOM     12  C   UNL     1      10.019  11.582  20.180  0.00  0.00    +0.000 C 
BRANCH  12  14
ATOM     13  C   UNL     1      12.333  11.707  19.771  0.00  0.00    +0.000 C 
ATOM     14  O   UNL     1      11.292  11.918  20.718  0.00  0.00    +0.000 OA
ENDBRANCH  12  14
ENDBRANCH   8  12
ENDBRANCH   6  10
ENDBRANCH   1   7
BRANCH   4  15
ATOM     15  S   UNL     1       5.574   4.916  17.049  0.00  0.00    +0.000 S 
BRANCH  15  16
ATOM     16  C   UNL     1       4.197   5.350  18.123  0.00  0.00    +0.000 A 
ATOM     17  C   UNL     1       3.636   6.625  17.952  0.00  0.00    +0.000 A 
ATOM     18  C   UNL     1       2.604   7.057  18.777  0.00  0.00    +0.000 A 
ATOM     19  C   UNL     1       2.136   6.217  19.781  0.00  0.00    +0.000 A 
ATOM     20  C   UNL     1       2.691   4.939  19.962  0.00  0.00    +0.000 A 
ATOM     21  C   UNL     1       2.216   4.101  20.981  0.00  0.00    +0.000 A 
ATOM     22  C   UNL     1       2.768   2.840  21.159  0.00  0.00    +0.000 A 
ATOM     23  C   UNL     1       3.782   2.458  20.305  0.00  0.00    +0.000 A 
ATOM     24  N   UNL     1       4.266   3.237  19.312  0.00  0.00    +0.000 NA
ATOM     25  C   UNL     1       3.740   4.475  19.130  0.00  0.00    +0.000 A 
ENDBRANCH  15  16
ENDBRANCH   4  15
TORSDOF 6
ENDMDL
MODEL 4
REMARK VINA RESULT:      -7.0      4.246      6.839
REMARK  Name = 
REMARK  7 active torsions:
REMARK  status: ('A' for Active; 'I' for Inactive)
REMARK    1  A    between atoms: C_1  and  O_2
REMARK    2  A    between atoms: O_2  and  C_3
REMARK    3  A    between atoms: C_3  and  C_4
REMARK    4  A    between atoms: N_6  and  N_7
REMARK    5  A    between atoms: C_8  and  C_9
REMARK    6  A    between atoms: C_12  and  S_13
REMARK    7  A    between atoms: S_13  and  C_14
REMARK                            x       y       z     vdW  Elec       q    Type
REMARK                         _______ _______ _______ _____ _____    ______ ____
ROOT
ATOM      1  C   UNL     1       1.729   5.363  20.578  0.00  0.00    +0.000 A 
ATOM      2  C   UNL     1       0.860   4.342  20.247  0.00  0.00    +0.000 A 
ATOM      3  C   UNL     1       1.654   3.277  19.773  0.00  0.00    +0.000 A 
ATOM      4  C   UNL     1       2.965   3.702  19.832  0.00  0.00    +0.000 A 
ATOM      5  O   UNL     1       3.013   4.982  20.317  0.00  0.00    +0.000 OA
ENDROOT
BRANCH   1   7
ATOM      6  N   UNL     1       1.621   7.684  20.355  0.00  0.00    +0.000 NA
ATOM      7  C   UNL     1       1.479   6.661  21.133  0.00  0.00    +0.000 C 
BRANCH   6  10
ATOM      8  C   UNL     1       0.941   9.934  20.035  0.00  0.00    +0.000 C 
ATOM      9  O   UNL     1       0.684  11.043  20.505  0.00  0.00    +0.000 OA
ATOM     10  N   UNL     1       1.366   8.913  20.861  0.00  0.00    +0.000 N 
ATOM     11  H   UNL     1       1.451   9.115  21.851  0.00  0.00    +0.000 HD
BRANCH   8  12
ATOM     12  C   UNL     1       0.836   9.593  18.533  0.00  0.00    +0.000 C 
BRANCH  12  14
ATOM     13  C   UNL     1      -1.471  10.020  18.351  0.00  0.00    +0.000 C 
ATOM     14  O   UNL     1      -0.182  10.264  17.800  0.00  0.00    +0.000 OA
ENDBRANCH  12  14
ENDBRANCH   8  12
ENDBRANCH   6  10
ENDBRANCH   1   7
BRANCH   4  15
ATOM     15  S   UNL     1       4.396   2.830  19.351  0.00  0.00    +0.000 S 
BRANCH  15  16
ATOM     16  C   UNL     1       4.947   3.967  18.069  0.00  0.00    +0.000 A 
ATOM     17  C   UNL     1       4.325   3.860  16.816  0.00  0.00    +0.000 A 
ATOM     18  C   UNL     1       4.730   4.665  15.757  0.00  0.00    +0.000 A 
ATOM     19  C   UNL     1       5.764   5.574  15.949  0.00  0.00    +0.000 A 
ATOM     20  C   UNL     1       6.395   5.689  17.199  0.00  0.00    +0.000 A 
ATOM     21  C   UNL     1       7.441   6.604  17.380  0.00  0.00    +0.000 A 
ATOM     22  C   UNL     1       8.063   6.714  18.615  0.00  0.00    +0.000 A 
ATOM     23  C   UNL     1       7.615   5.898  19.634  0.00  0.00    +0.000 A 
ATOM     24  N   UNL     1       6.610   5.004  19.497  0.00  0.00    +0.000 NA
ATOM     25  C   UNL     1       5.995   4.882  18.293  0.00  0.00    +0.000 A 
ENDBRANCH  15  16
ENDBRANCH   4  15
TORSDOF 6
ENDMDL
MODEL 5
REMARK VINA RESULT:      -6.9      6.008      9.422
REMARK  Name = 
REMARK  7 active torsions:
REMARK  status: ('A' for Active; 'I' for Inactive)
REMARK    1  A    between atoms: C_1  and  O_2
REMARK    2  A    between atoms: O_2  and  C_3
REMARK    3  A    between atoms: C_3  and  C_4
REMARK    4  A    between atoms: N_6  and  N_7
REMARK    5  A    between atoms: C_8  and  C_9
REMARK    6  A    between atoms: C_12  and  S_13
REMARK    7  A    between atoms: S_13  and  C_14
REMARK                            x       y       z     vdW  Elec       q    Type
REMARK                         _______ _______ _______ _____ _____    ______ ____
ROOT
ATOM      1  C   UNL     1       1.702   8.114  19.719  0.00  0.00    +0.000 A 
ATOM      2  C   UNL     1       2.142   8.117  18.410  0.00  0.00    +0.000 A 
ATOM      3  C   UNL     1       1.799   9.376  17.876  0.00  0.00    +0.000 A 
ATOM      4  C   UNL     1       1.163  10.076  18.880  0.00  0.00    +0.000 A 
ATOM      5  O   UNL     1       1.096   9.302  20.008  0.00  0.00    +0.000 OA
ENDROOT
BRANCH   1   7
ATOM      6  N   UNL     1       2.146   5.918  20.373  0.00  0.00    +0.000 NA
ATOM      7  C   UNL     1       1.808   7.111  20.738  0.00  0.00    +0.000 C 
BRANCH   6  10
ATOM      8  C   UNL     1       1.809   3.686  21.107  0.00  0.00    +0.000 C 
ATOM      9  O   UNL     1       1.950   2.819  21.969  0.00  0.00    +0.000 OA
ATOM     10  N   UNL     1       2.272   4.968  21.329  0.00  0.00    +0.000 N 
ATOM     11  H   UNL     1       2.728   5.154  22.215  0.00  0.00    +0.000 HD
BRANCH   8  12
ATOM     12  C   UNL     1       1.109   3.444  19.752  0.00  0.00    +0.000 C 
BRANCH  12  14
ATOM     13  C   UNL     1       2.226   2.813  17.779  0.00  0.00    +0.000 C 
ATOM     14  O   UNL     1       1.597   2.359  18.972  0.00  0.00    +0.000 OA
ENDBRANCH  12  14
ENDBRANCH   8  12
ENDBRANCH   6  10
ENDBRANCH   1   7
BRANCH   4  15
ATOM     15  S   UNL     1       0.488  11.680  18.807  0.00  0.00    +0.000 S 
BRANCH  15  16
ATOM     16  C   UNL     1      -1.208  11.207  18.436  0.00  0.00    +0.000 A 
ATOM     17  C   UNL     1      -1.391  10.214  17.461  0.00  0.00    +0.000 A 
ATOM     18  C   UNL     1      -2.672   9.830  17.079  0.00  0.00    +0.000 A 
ATOM     19  C   UNL     1      -3.772  10.444  17.666  0.00  0.00    +0.000 A 
ATOM     20  C   UNL     1      -3.600  11.441  18.641  0.00  0.00    +0.000 A 
ATOM     21  C   UNL     1      -4.716  12.059  19.223  0.00  0.00    +0.000 A 
ATOM     22  C   UNL     1      -4.544  13.044  20.184  0.00  0.00    +0.000 A 
ATOM     23  C   UNL     1      -3.252  13.380  20.533  0.00  0.00    +0.000 A 
ATOM     24  N   UNL     1      -2.152  12.806  19.996  0.00  0.00    +0.000 NA
ATOM     25  C   UNL     1      -2.305  11.845  19.050  0.00  0.00    +0.000 A 
ENDBRANCH  15  16
ENDBRANCH   4  15
TORSDOF 6
ENDMDL
MODEL 6
REMARK VINA RESULT:      -6.8      4.362      6.301
REMARK  Name = 
REMARK  7 active torsions:
REMARK  status: ('A' for Active; 'I' for Inactive)
REMARK    1  A    between atoms: C_1  and  O_2
REMARK    2  A    between atoms: O_2  and  C_3
REMARK    3  A    between atoms: C_3  and  C_4
REMARK    4  A    between atoms: N_6  and  N_7
REMARK    5  A    between atoms: C_8  and  C_9
REMARK    6  A    between atoms: C_12  and  S_13
REMARK    7  A    between atoms: S_13  and  C_14
REMARK                            x       y       z     vdW  Elec       q    Type
REMARK                         _______ _______ _______ _____ _____    ______ ____
ROOT
ATOM      1  C   UNL     1       3.348   4.090  17.586  0.00  0.00    +0.000 A 
ATOM      2  C   UNL     1       2.139   3.433  17.707  0.00  0.00    +0.000 A 
ATOM      3  C   UNL     1       1.483   4.005  18.816  0.00  0.00    +0.000 A 
ATOM      4  C   UNL     1       2.323   4.975  19.321  0.00  0.00    +0.000 A 
ATOM      5  O   UNL     1       3.470   5.024  18.574  0.00  0.00    +0.000 OA
ENDROOT
BRANCH   1   7
ATOM      6  N   UNL     1       4.733   4.984  15.933  0.00  0.00    +0.000 NA
ATOM      7  C   UNL     1       4.400   3.942  16.623  0.00  0.00    +0.000 C 
BRANCH   6  10
ATOM      8  C   UNL     1       7.010   5.307  15.348  0.00  0.00    +0.000 C 
ATOM      9  O   UNL     1       7.929   5.170  14.540  0.00  0.00    +0.000 OA
ATOM     10  N   UNL     1       5.740   4.863  15.037  0.00  0.00    +0.000 N 
ATOM     11  H   UNL     1       5.605   4.425  14.133  0.00  0.00    +0.000 HD
BRANCH   8  12
ATOM     12  C   UNL     1       7.174   5.980  16.727  0.00  0.00    +0.000 C 
BRANCH  12  14
ATOM     13  C   UNL     1       7.639   5.773  19.025  0.00  0.00    +0.000 C 
ATOM     14  O   UNL     1       7.838   5.219  17.729  0.00  0.00    +0.000 OA
ENDBRANCH  12  14
ENDBRANCH   8  12
ENDBRANCH   6  10
ENDBRANCH   1   7
BRANCH   4  15
ATOM     15  S   UNL     1       2.067   6.000  20.706  0.00  0.00    +0.000 S 
BRANCH  15  16
ATOM     16  C   UNL     1       1.784   7.538  19.815  0.00  0.00    +0.000 A 
ATOM     17  C   UNL     1       2.281   7.613  18.505  0.00  0.00    +0.000 A 
ATOM     18  C   UNL     1       2.151   8.785  17.768  0.00  0.00    +0.000 A 
ATOM     19  C   UNL     1       1.529   9.887  18.344  0.00  0.00    +0.000 A 
ATOM     20  C   UNL     1       1.029   9.823  19.655  0.00  0.00    +0.000 A 
ATOM     21  C   UNL     1       0.409  10.942  20.229  0.00  0.00    +0.000 A 
ATOM     22  C   UNL     1      -0.083  10.877  21.525  0.00  0.00    +0.000 A 
ATOM     23  C   UNL     1       0.064   9.687  22.207  0.00  0.00    +0.000 A 
ATOM     24  N   UNL     1       0.656   8.588  21.688  0.00  0.00    +0.000 NA
ATOM     25  C   UNL     1       1.146   8.638  20.423  0.00  0.00    +0.000 A 
ENDBRANCH  15  16
ENDBRANCH   4  15
TORSDOF 6
ENDMDL
MODEL 7
REMARK VINA RESULT:      -6.8      4.908      7.301
REMARK  Name = 
REMARK  7 active torsions:
REMARK  status: ('A' for Active; 'I' for Inactive)
REMARK    1  A    between atoms: C_1  and  O_2
REMARK    2  A    between atoms: O_2  and  C_3
REMARK    3  A    between atoms: C_3  and  C_4
REMARK    4  A    between atoms: N_6  and  N_7
REMARK    5  A    between atoms: C_8  and  C_9
REMARK    6  A    between atoms: C_12  and  S_13
REMARK    7  A    between atoms: S_13  and  C_14
REMARK                            x       y       z     vdW  Elec       q    Type
REMARK                         _______ _______ _______ _____ _____    ______ ____
ROOT
ATOM      1  C   UNL     1       1.869   7.679  20.107  0.00  0.00    +0.000 A 
ATOM      2  C   UNL     1       2.092   8.219  18.856  0.00  0.00    +0.000 A 
ATOM      3  C   UNL     1       2.538   7.162  18.037  0.00  0.00    +0.000 A 
ATOM      4  C   UNL     1       2.573   6.032  18.829  0.00  0.00    +0.000 A 
ATOM      5  O   UNL     1       2.171   6.349  20.099  0.00  0.00    +0.000 OA
ENDROOT
BRANCH   1   7
ATOM      6  N   UNL     1       0.642   9.337  21.200  0.00  0.00    +0.000 NA
ATOM      7  C   UNL     1       1.383   8.284  21.313  0.00  0.00    +0.000 C 
BRANCH   6  10
ATOM      8  C   UNL     1      -0.595  11.059  22.267  0.00  0.00    +0.000 C 
ATOM      9  O   UNL     1      -1.056  11.555  23.295  0.00  0.00    +0.000 OA
ATOM     10  N   UNL     1       0.159   9.904  22.330  0.00  0.00    +0.000 N 
ATOM     11  H   UNL     1       0.307   9.491  23.244  0.00  0.00    +0.000 HD
BRANCH   8  12
ATOM     12  C   UNL     1      -0.789  11.665  20.860  0.00  0.00    +0.000 C 
BRANCH  12  14
ATOM     13  C   UNL     1      -2.245  13.508  20.712  0.00  0.00    +0.000 C 
ATOM     14  O   UNL     1      -2.103  12.103  20.535  0.00  0.00    +0.000 OA
ENDBRANCH  12  14
ENDBRANCH   8  12
ENDBRANCH   6  10
ENDBRANCH   1   7
BRANCH   4  15
ATOM     15  S   UNL     1       3.070   4.424  18.380  0.00  0.00    +0.000 S 
BRANCH  15  16
ATOM     16  C   UNL     1       4.826   4.765  18.179  0.00  0.00    +0.000 A 
ATOM     17  C   UNL     1       5.528   5.171  19.324  0.00  0.00    +0.000 A 
ATOM     18  C   UNL     1       6.875   5.505  19.243  0.00  0.00    +0.000 A 
ATOM     19  C   UNL     1       7.521   5.441  18.013  0.00  0.00    +0.000 A 
ATOM     20  C   UNL     1       6.827   5.037  16.860  0.00  0.00    +0.000 A 
ATOM     21  C   UNL     1       7.485   4.982  15.623  0.00  0.00    +0.000 A 
ATOM     22  C   UNL     1       6.797   4.585  14.486  0.00  0.00    +0.000 A 
ATOM     23  C   UNL     1       5.464   4.255  14.625  0.00  0.00    +0.000 A 
ATOM     24  N   UNL     1       4.796   4.296  15.799  0.00  0.00    +0.000 NA
ATOM     25  C   UNL     1       5.455   4.687  16.920  0.00  0.00    +0.000 A 
ENDBRANCH  15  16
ENDBRANCH   4  15
TORSDOF 6
ENDMDL
MODEL 8
REMARK VINA RESULT:      -6.8      4.771      6.827
REMARK  Name = 
REMARK  7 active torsions:
REMARK  status: ('A' for Active; 'I' for Inactive)
REMARK    1  A    between atoms: C_1  and  O_2
REMARK    2  A    between atoms: O_2  and  C_3
REMARK    3  A    between atoms: C_3  and  C_4
REMARK    4  A    between atoms: N_6  and  N_7
REMARK    5  A    between atoms: C_8  and  C_9
REMARK    6  A    between atoms: C_12  and  S_13
REMARK    7  A    between atoms: S_13  and  C_14
REMARK                            x       y       z     vdW  Elec       q    Type
REMARK                         _______ _______ _______ _____ _____    ______ ____
ROOT
ATOM      1  C   UNL     1       2.012   8.030  18.813  0.00  0.00    +0.000 A 
ATOM      2  C   UNL     1       1.887   7.633  20.130  0.00  0.00    +0.000 A 
ATOM      3  C   UNL     1       2.265   6.275  20.176  0.00  0.00    +0.000 A 
ATOM      4  C   UNL     1       2.596   5.910  18.887  0.00  0.00    +0.000 A 
ATOM      5  O   UNL     1       2.434   6.981  18.050  0.00  0.00    +0.000 OA
ENDROOT
BRANCH   1   7
ATOM      6  N   UNL     1       1.137  10.193  18.871  0.00  0.00    +0.000 NA
ATOM      7  C   UNL     1       1.792   9.306  18.196  0.00  0.00    +0.000 C 
BRANCH   6  10
ATOM      8  C   UNL     1      -0.179  12.152  18.621  0.00  0.00    +0.000 C 
ATOM      9  O   UNL     1      -0.338  13.269  18.128  0.00  0.00    +0.000 OA
ATOM     10  N   UNL     1       0.942  11.409  18.309  0.00  0.00    +0.000 N 
ATOM     11  H   UNL     1       1.614  11.821  17.671  0.00  0.00    +0.000 HD
BRANCH   8  12
ATOM     12  C   UNL     1      -1.186  11.488  19.584  0.00  0.00    +0.000 C 
BRANCH  12  14
ATOM     13  C   UNL     1      -0.402  12.243  21.670  0.00  0.00    +0.000 C 
ATOM     14  O   UNL     1      -1.502  12.211  20.768  0.00  0.00    +0.000 OA
ENDBRANCH  12  14
ENDBRANCH   8  12
ENDBRANCH   6  10
ENDBRANCH   1   7
BRANCH   4  15
ATOM     15  S   UNL     1       3.112   4.346  18.317  0.00  0.00    +0.000 S 
BRANCH  15  16
ATOM     16  C   UNL     1       4.857   4.734  18.108  0.00  0.00    +0.000 A 
ATOM     17  C   UNL     1       5.556   5.151  19.251  0.00  0.00    +0.000 A 
ATOM     18  C   UNL     1       6.894   5.520  19.164  0.00  0.00    +0.000 A 
ATOM     19  C   UNL     1       7.533   5.480  17.930  0.00  0.00    +0.000 A 
ATOM     20  C   UNL     1       6.843   5.066  16.778  0.00  0.00    +0.000 A 
ATOM     21  C   UNL     1       7.495   5.034  15.538  0.00  0.00    +0.000 A 
ATOM     22  C   UNL     1       6.810   4.627  14.402  0.00  0.00    +0.000 A 
ATOM     23  C   UNL     1       5.487   4.262  14.547  0.00  0.00    +0.000 A 
ATOM     24  N   UNL     1       4.826   4.279  15.726  0.00  0.00    +0.000 NA
ATOM     25  C   UNL     1       5.481   4.680  16.844  0.00  0.00    +0.000 A 
ENDBRANCH  15  16
ENDBRANCH   4  15
TORSDOF 6
ENDMDL
MODEL 9
REMARK VINA RESULT:      -6.7      5.572      8.561
REMARK  Name = 
REMARK  7 active torsions:
REMARK  status: ('A' for Active; 'I' for Inactive)
REMARK    1  A    between atoms: C_1  and  O_2
REMARK    2  A    between atoms: O_2  and  C_3
REMARK    3  A    between atoms: C_3  and  C_4
REMARK    4  A    between atoms: N_6  and  N_7
REMARK    5  A    between atoms: C_8  and  C_9
REMARK    6  A    between atoms: C_12  and  S_13
REMARK    7  A    between atoms: S_13  and  C_14
REMARK                            x       y       z     vdW  Elec       q    Type
REMARK                         _______ _______ _______ _____ _____    ______ ____
ROOT
ATOM      1  C   UNL     1       2.104   7.878  19.062  0.00  0.00    +0.000 A 
ATOM      2  C   UNL     1       2.484   8.448  17.863  0.00  0.00    +0.000 A 
ATOM      3  C   UNL     1       1.950   9.753  17.853  0.00  0.00    +0.000 A 
ATOM      4  C   UNL     1       1.267   9.914  19.041  0.00  0.00    +0.000 A 
ATOM      5  O   UNL     1       1.353   8.763  19.779  0.00  0.00    +0.000 OA
ENDROOT
BRANCH   1   7
ATOM      6  N   UNL     1       3.068   5.760  18.890  0.00  0.00    +0.000 NA
ATOM      7  C   UNL     1       2.388   6.586  19.615  0.00  0.00    +0.000 C 
BRANCH   6  10
ATOM      8  C   UNL     1       4.639   4.029  19.302  0.00  0.00    +0.000 C 
ATOM      9  O   UNL     1       4.909   2.936  19.801  0.00  0.00    +0.000 OA
ATOM     10  N   UNL     1       3.363   4.545  19.409  0.00  0.00    +0.000 N 
ATOM     11  H   UNL     1       2.676   3.994  19.911  0.00  0.00    +0.000 HD
BRANCH   8  12
ATOM     12  C   UNL     1       5.655   4.890  18.521  0.00  0.00    +0.000 C 
BRANCH  12  14
ATOM     13  C   UNL     1       7.234   4.602  16.800  0.00  0.00    +0.000 C 
ATOM     14  O   UNL     1       5.857   4.550  17.155  0.00  0.00    +0.000 OA
ENDBRANCH  12  14
ENDBRANCH   8  12
ENDBRANCH   6  10
ENDBRANCH   1   7
BRANCH   4  15
ATOM     15  S   UNL     1       0.375  11.309  19.584  0.00  0.00    +0.000 S 
BRANCH  15  16
ATOM     16  C   UNL     1      -1.165  10.956  18.723  0.00  0.00    +0.000 A 
ATOM     17  C   UNL     1      -1.093  10.087  17.624  0.00  0.00    +0.000 A 
ATOM     18  C   UNL     1      -2.229   9.806  16.873  0.00  0.00    +0.000 A 
ATOM     19  C   UNL     1      -3.438  10.400  17.216  0.00  0.00    +0.000 A 
ATOM     20  C   UNL     1      -3.521  11.272  18.314  0.00  0.00    +0.000 A 
ATOM     21  C   UNL     1      -4.744  11.871  18.649  0.00  0.00    +0.000 A 
ATOM     22  C   UNL     1      -4.823  12.734  19.732  0.00  0.00    +0.000 A 
ATOM     23  C   UNL     1      -3.668  12.970  20.449  0.00  0.00    +0.000 A 
ATOM     24  N   UNL     1      -2.472  12.412  20.157  0.00  0.00    +0.000 NA
ATOM     25  C   UNL     1      -2.378  11.569  19.097  0.00  0.00    +0.000 A 
ENDBRANCH  15  16
ENDBRANCH   4  15
TORSDOF 6
ENDMDL
