MODEL 1
REMARK VINA RESULT:      -8.2      0.000      0.000
REMARK  Name = 
REMARK  2 active torsions:
REMARK  status: ('A' for Active; 'I' for Inactive)
REMARK    1  A    between atoms: C_2  and  C_3
REMARK    2  A    between atoms: N_13  and  C_14
REMARK                            x       y       z     vdW  Elec       q    Type
REMARK                         _______ _______ _______ _____ _____    ______ ____
ROOT
ATOM      1  O   UNL     1       0.057   8.961  21.454  0.00  0.00    +0.000 OA
ATOM      2  C   UNL     1       0.591   9.247  20.383  0.00  0.00    +0.000 C 
ATOM      3  N   UNL     1       1.545   8.426  19.772  0.00  0.00    +0.000 N 
ATOM      4  C   UNL     1       2.236   8.729  18.516  0.00  0.00    +0.000 C 
ATOM      5  C   UNL     1       3.529   7.936  18.251  0.00  0.00    +0.000 C 
ATOM      6  N   UNL     1       3.502   6.523  18.622  0.00  0.00    +0.000 NA
ATOM      7  C   UNL     1       2.941   6.375  19.978  0.00  0.00    +0.000 C 
ATOM      8  C   UNL     1       1.571   7.025  20.192  0.00  0.00    +0.000 C 
ENDROOT
BRANCH   6   9
ATOM      9  C   UNL     1       3.065   5.569  17.584  0.00  0.00    +0.000 C 
ATOM     10  C   UNL     1       4.248   5.183  16.691  0.00  0.00    +0.000 A 
ATOM     11  C   UNL     1       5.087   6.030  15.978  0.00  0.00    +0.000 A 
ATOM     12  C   UNL     1       6.192   5.470  15.340  0.00  0.00    +0.000 A 
ATOM     13  C   UNL     1       6.432   4.087  15.404  0.00  0.00    +0.000 A 
ATOM     14  C   UNL     1       5.570   3.238  16.110  0.00  0.00    +0.000 A 
ATOM     15  C   UNL     1       4.482   3.795  16.767  0.00  0.00    +0.000 A 
ATOM     16  C   UNL     1       3.453   3.184  17.575  0.00  0.00    +0.000 A 
ATOM     17  C   UNL     1       3.239   1.854  17.894  0.00  0.00    +0.000 A 
ATOM     18  C   UNL     1       2.089   1.513  18.612  0.00  0.00    +0.000 A 
ATOM     19  C   UNL     1       1.145   2.496  18.947  0.00  0.00    +0.000 A 
ATOM     20  C   UNL     1       1.361   3.835  18.618  0.00  0.00    +0.000 A 
ATOM     21  C   UNL     1       2.556   4.192  18.004  0.00  0.00    +0.000 A 
ENDBRANCH   6   9
BRANCH   2  22
ATOM     22  C   UNL     1       0.188  10.533  19.752  0.00  0.00    +0.000 A 
ATOM     23  C   UNL     1       0.910  11.689  20.069  0.00  0.00    +0.000 A 
ATOM     24  C   UNL     1       0.563  12.914  19.484  0.00  0.00    +0.000 A 
ATOM     25  C   UNL     1      -0.490  12.971  18.582  0.00  0.00    +0.000 A 
ATOM     26  F   UNL     1      -0.799  14.138  17.999  0.00  0.00    +0.000 F 
ATOM     27  C   UNL     1      -1.244  11.843  18.287  0.00  0.00    +0.000 A 
ATOM     28  C   UNL     1      -0.932  10.637  18.911  0.00  0.00    +0.000 A 
ENDBRANCH   2  22
TORSDOF 2
ENDMDL
MODEL 2
REMARK VINA RESULT:      -8.0      3.368      8.810
REMARK  Name = 
REMARK  2 active torsions:
REMARK  status: ('A' for Active; 'I' for Inactive)
REMARK    1  A    between atoms: C_2  and  C_3
REMARK    2  A    between atoms: N_13  and  C_14
REMARK                            x       y       z     vdW  Elec       q    Type
REMARK                         _______ _______ _______ _____ _____    ______ ____
ROOT
ATOM      1  O   UNL     1       3.498   7.587  16.731  0.00  0.00    +0.000 OA
ATOM      2  C   UNL     1       3.068   7.220  17.825  0.00  0.00    +0.000 C 
ATOM      3  N   UNL     1       2.374   8.076  18.688  0.00  0.00    +0.000 N 
ATOM      4  C   UNL     1       1.868   7.705  20.013  0.00  0.00    +0.000 C 
ATOM      5  C   UNL     1       1.534   8.875  20.957  0.00  0.00    +0.000 C 
ATOM      6  N   UNL     1       0.884  10.030  20.341  0.00  0.00    +0.000 NA
ATOM      7  C   UNL     1       1.598  10.404  19.105  0.00  0.00    +0.000 C 
ATOM      8  C   UNL     1       1.782   9.272  18.091  0.00  0.00    +0.000 C 
ENDROOT
BRANCH   6   9
ATOM      9  C   UNL     1      -0.591  10.028  20.315  0.00  0.00    +0.000 C 
ATOM     10  C   UNL     1      -1.135  11.160  21.194  0.00  0.00    +0.000 A 
ATOM     11  C   UNL     1      -0.865  11.400  22.535  0.00  0.00    +0.000 A 
ATOM     12  C   UNL     1      -1.360  12.573  23.101  0.00  0.00    +0.000 A 
ATOM     13  C   UNL     1      -2.125  13.470  22.337  0.00  0.00    +0.000 A 
ATOM     14  C   UNL     1      -2.407  13.212  20.990  0.00  0.00    +0.000 A 
ATOM     15  C   UNL     1      -1.897  12.056  20.415  0.00  0.00    +0.000 A 
ATOM     16  C   UNL     1      -2.003  11.543  19.070  0.00  0.00    +0.000 A 
ATOM     17  C   UNL     1      -2.683  12.045  17.974  0.00  0.00    +0.000 A 
ATOM     18  C   UNL     1      -2.717  11.287  16.800  0.00  0.00    +0.000 A 
ATOM     19  C   UNL     1      -2.125  10.015  16.760  0.00  0.00    +0.000 A 
ATOM     20  C   UNL     1      -1.446   9.510  17.869  0.00  0.00    +0.000 A 
ATOM     21  C   UNL     1      -1.313  10.309  18.999  0.00  0.00    +0.000 A 
ENDBRANCH   6   9
BRANCH   2  22
ATOM     22  C   UNL     1       3.331   5.808  18.213  0.00  0.00    +0.000 A 
ATOM     23  C   UNL     1       4.529   5.506  18.867  0.00  0.00    +0.000 A 
ATOM     24  C   UNL     1       4.803   4.187  19.256  0.00  0.00    +0.000 A 
ATOM     25  C   UNL     1       3.873   3.189  18.998  0.00  0.00    +0.000 A 
ATOM     26  F   UNL     1       4.123   1.934  19.399  0.00  0.00    +0.000 F 
ATOM     27  C   UNL     1       2.697   3.463  18.312  0.00  0.00    +0.000 A 
ATOM     28  C   UNL     1       2.452   4.764  17.879  0.00  0.00    +0.000 A 
ENDBRANCH   2  22
TORSDOF 2
ENDMDL
MODEL 3
REMARK VINA RESULT:      -7.8      4.509      8.769
REMARK  Name = 
REMARK  2 active torsions:
REMARK  status: ('A' for Active; 'I' for Inactive)
REMARK    1  A    between atoms: C_2  and  C_3
REMARK    2  A    between atoms: N_13  and  C_14
REMARK                            x       y       z     vdW  Elec       q    Type
REMARK                         _______ _______ _______ _____ _____    ______ ____
ROOT
ATOM      1  O   UNL     1       7.030   5.930  13.403  0.00  0.00    +0.000 OA
ATOM      2  C   UNL     1       6.417   4.926  13.763  0.00  0.00    +0.000 C 
ATOM      3  N   UNL     1       5.798   4.828  15.014  0.00  0.00    +0.000 N 
ATOM      4  C   UNL     1       5.082   3.648  15.509  0.00  0.00    +0.000 C 
ATOM      5  C   UNL     1       4.864   3.583  17.032  0.00  0.00    +0.000 C 
ATOM      6  N   UNL     1       4.515   4.843  17.684  0.00  0.00    +0.000 NA
ATOM      7  C   UNL     1       5.423   5.911  17.224  0.00  0.00    +0.000 C 
ATOM      8  C   UNL     1       5.511   6.084  15.705  0.00  0.00    +0.000 C 
ENDROOT
BRANCH   6   9
ATOM      9  C   UNL     1       3.078   5.159  17.797  0.00  0.00    +0.000 C 
ATOM     10  C   UNL     1       2.409   4.217  18.803  0.00  0.00    +0.000 A 
ATOM     11  C   UNL     1       2.405   2.828  18.795  0.00  0.00    +0.000 A 
ATOM     12  C   UNL     1       1.850   2.170  19.891  0.00  0.00    +0.000 A 
ATOM     13  C   UNL     1       1.296   2.896  20.958  0.00  0.00    +0.000 A 
ATOM     14  C   UNL     1       1.288   4.297  20.950  0.00  0.00    +0.000 A 
ATOM     15  C   UNL     1       1.860   4.957  19.871  0.00  0.00    +0.000 A 
ATOM     16  C   UNL     1       2.014   6.367  19.600  0.00  0.00    +0.000 A 
ATOM     17  C   UNL     1       1.596   7.467  20.328  0.00  0.00    +0.000 A 
ATOM     18  C   UNL     1       1.776   8.741  19.781  0.00  0.00    +0.000 A 
ATOM     19  C   UNL     1       2.313   8.890  18.493  0.00  0.00    +0.000 A 
ATOM     20  C   UNL     1       2.728   7.778  17.760  0.00  0.00    +0.000 A 
ATOM     21  C   UNL     1       2.655   6.520  18.346  0.00  0.00    +0.000 A 
ENDBRANCH   6   9
BRANCH   2  22
ATOM     22  C   UNL     1       6.366   3.788  12.805  0.00  0.00    +0.000 A 
ATOM     23  C   UNL     1       7.569   3.300  12.283  0.00  0.00    +0.000 A 
ATOM     24  C   UNL     1       7.557   2.222  11.387  0.00  0.00    +0.000 A 
ATOM     25  C   UNL     1       6.349   1.637  11.032  0.00  0.00    +0.000 A 
ATOM     26  F   UNL     1       6.343   0.586  10.199  0.00  0.00    +0.000 F 
ATOM     27  C   UNL     1       5.143   2.135  11.508  0.00  0.00    +0.000 A 
ATOM     28  C   UNL     1       5.154   3.241  12.356  0.00  0.00    +0.000 A 
ENDBRANCH   2  22
TORSDOF 2
ENDMDL
MODEL 4
REMARK VINA RESULT:      -7.6      3.436      8.875
REMARK  Name = 
REMARK  2 active torsions:
REMARK  status: ('A' for Active; 'I' for Inactive)
REMARK    1  A    between atoms: C_2  and  C_3
REMARK    2  A    between atoms: N_13  and  C_14
REMARK                            x       y       z     vdW  Elec       q    Type
REMARK                         _______ _______ _______ _____ _____    ______ ____
ROOT
ATOM      1  O   UNL     1       3.369   7.676  17.437  0.00  0.00    +0.000 OA
ATOM      2  C   UNL     1       2.767   7.250  18.423  0.00  0.00    +0.000 C 
ATOM      3  N   UNL     1       2.092   8.089  19.316  0.00  0.00    +0.000 N 
ATOM      4  C   UNL     1       1.387   7.643  20.521  0.00  0.00    +0.000 C 
ATOM      5  C   UNL     1       1.098   8.730  21.573  0.00  0.00    +0.000 C 
ATOM      6  N   UNL     1       0.684  10.031  21.053  0.00  0.00    +0.000 NA
ATOM      7  C   UNL     1       1.583  10.440  19.958  0.00  0.00    +0.000 C 
ATOM      8  C   UNL     1       1.738   9.421  18.826  0.00  0.00    +0.000 C 
ENDROOT
BRANCH   6   9
ATOM      9  C   UNL     1      -0.765  10.247  20.876  0.00  0.00    +0.000 C 
ATOM     10  C   UNL     1      -1.182  11.577  21.513  0.00  0.00    +0.000 A 
ATOM     11  C   UNL     1      -0.981  11.992  22.823  0.00  0.00    +0.000 A 
ATOM     12  C   UNL     1      -1.318  13.303  23.152  0.00  0.00    +0.000 A 
ATOM     13  C   UNL     1      -1.863  14.166  22.187  0.00  0.00    +0.000 A 
ATOM     14  C   UNL     1      -2.079  13.734  20.872  0.00  0.00    +0.000 A 
ATOM     15  C   UNL     1      -1.723  12.436  20.534  0.00  0.00    +0.000 A 
ATOM     16  C   UNL     1      -1.808  11.729  19.278  0.00  0.00    +0.000 A 
ATOM     17  C   UNL     1      -2.308  12.140  18.055  0.00  0.00    +0.000 A 
ATOM     18  C   UNL     1      -2.376  11.212  17.012  0.00  0.00    +0.000 A 
ATOM     19  C   UNL     1      -1.999   9.877  17.225  0.00  0.00    +0.000 A 
ATOM     20  C   UNL     1      -1.501   9.465  18.462  0.00  0.00    +0.000 A 
ATOM     21  C   UNL     1      -1.327  10.411  19.466  0.00  0.00    +0.000 A 
ENDBRANCH   6   9
BRANCH   2  22
ATOM     22  C   UNL     1       2.794   5.778  18.644  0.00  0.00    +0.000 A 
ATOM     23  C   UNL     1       1.834   4.988  18.004  0.00  0.00    +0.000 A 
ATOM     24  C   UNL     1       1.838   3.598  18.183  0.00  0.00    +0.000 A 
ATOM     25  C   UNL     1       2.806   3.012  18.987  0.00  0.00    +0.000 A 
ATOM     26  F   UNL     1       2.827   1.679  19.132  0.00  0.00    +0.000 F 
ATOM     27  C   UNL     1       3.740   3.785  19.664  0.00  0.00    +0.000 A 
ATOM     28  C   UNL     1       3.701   5.171  19.528  0.00  0.00    +0.000 A 
ENDBRANCH   2  22
TORSDOF 2
ENDMDL
MODEL 5
REMARK VINA RESULT:      -7.0      3.607      8.971
REMARK  Name = 
REMARK  2 active torsions:
REMARK  status: ('A' for Active; 'I' for Inactive)
REMARK    1  A    between atoms: C_2  and  C_3
REMARK    2  A    between atoms: N_13  and  C_14
REMARK                            x       y       z     vdW  Elec       q    Type
REMARK                         _______ _______ _______ _____ _____    ______ ____
ROOT
ATOM      1  O   UNL     1       3.105   6.959  17.783  0.00  0.00    +0.000 OA
ATOM      2  C   UNL     1       2.640   6.872  18.919  0.00  0.00    +0.000 C 
ATOM      3  N   UNL     1       2.014   7.946  19.562  0.00  0.00    +0.000 N 
ATOM      4  C   UNL     1       1.471   7.912  20.923  0.00  0.00    +0.000 C 
ATOM      5  C   UNL     1       1.230   9.281  21.586  0.00  0.00    +0.000 C 
ATOM      6  N   UNL     1       0.681  10.323  20.722  0.00  0.00    +0.000 NA
ATOM      7  C   UNL     1       1.430  10.364  19.451  0.00  0.00    +0.000 C 
ATOM      8  C   UNL     1       1.526   9.029  18.708  0.00  0.00    +0.000 C 
ENDROOT
BRANCH   6   9
ATOM      9  C   UNL     1      -0.789  10.434  20.662  0.00  0.00    +0.000 C 
ATOM     10  C   UNL     1      -1.248  11.733  21.332  0.00  0.00    +0.000 A 
ATOM     11  C   UNL     1      -0.973  12.168  22.622  0.00  0.00    +0.000 A 
ATOM     12  C   UNL     1      -1.376  13.453  22.978  0.00  0.00    +0.000 A 
ATOM     13  C   UNL     1      -2.058  14.270  22.061  0.00  0.00    +0.000 A 
ATOM     14  C   UNL     1      -2.348  13.817  20.768  0.00  0.00    +0.000 A 
ATOM     15  C   UNL     1      -1.927  12.546  20.401  0.00  0.00    +0.000 A 
ATOM     16  C   UNL     1      -2.061  11.830  19.155  0.00  0.00    +0.000 A 
ATOM     17  C   UNL     1      -2.687  12.197  17.976  0.00  0.00    +0.000 A 
ATOM     18  C   UNL     1      -2.771  11.262  16.941  0.00  0.00    +0.000 A 
ATOM     19  C   UNL     1      -2.283   9.959  17.122  0.00  0.00    +0.000 A 
ATOM     20  C   UNL     1      -1.659   9.590  18.314  0.00  0.00    +0.000 A 
ATOM     21  C   UNL     1      -1.473  10.550  19.301  0.00  0.00    +0.000 A 
ENDBRANCH   6   9
BRANCH   2  22
ATOM     22  C   UNL     1       2.783   5.561  19.608  0.00  0.00    +0.000 A 
ATOM     23  C   UNL     1       3.874   4.749  19.280  0.00  0.00    +0.000 A 
ATOM     24  C   UNL     1       4.044   3.513  19.918  0.00  0.00    +0.000 A 
ATOM     25  C   UNL     1       3.132   3.106  20.882  0.00  0.00    +0.000 A 
ATOM     26  F   UNL     1       3.314   1.938  21.513  0.00  0.00    +0.000 F 
ATOM     27  C   UNL     1       2.020   3.880  21.189  0.00  0.00    +0.000 A 
ATOM     28  C   UNL     1       1.824   5.083  20.515  0.00  0.00    +0.000 A 
ENDBRANCH   2  22
TORSDOF 2
ENDMDL
MODEL 6
REMARK VINA RESULT:      -6.9      1.705      2.069
REMARK  Name = 
REMARK  2 active torsions:
REMARK  status: ('A' for Active; 'I' for Inactive)
REMARK    1  A    between atoms: C_2  and  C_3
REMARK    2  A    between atoms: N_13  and  C_14
REMARK                            x       y       z     vdW  Elec       q    Type
REMARK                         _______ _______ _______ _____ _____    ______ ____
ROOT
ATOM      1  O   UNL     1      -0.491   9.749  21.342  0.00  0.00    +0.000 OA
ATOM      2  C   UNL     1      -0.352   9.688  20.121  0.00  0.00    +0.000 C 
ATOM      3  N   UNL     1       0.720   9.024  19.515  0.00  0.00    +0.000 N 
ATOM      4  C   UNL     1       0.954   8.945  18.070  0.00  0.00    +0.000 C 
ATOM      5  C   UNL     1       2.381   8.560  17.640  0.00  0.00    +0.000 C 
ATOM      6  N   UNL     1       3.032   7.521  18.434  0.00  0.00    +0.000 NA
ATOM      7  C   UNL     1       2.867   7.814  19.870  0.00  0.00    +0.000 C 
ATOM      8  C   UNL     1       1.422   8.032  20.330  0.00  0.00    +0.000 C 
ENDROOT
BRANCH   6   9
ATOM      9  C   UNL     1       2.848   6.127  17.987  0.00  0.00    +0.000 C 
ATOM     10  C   UNL     1       4.131   5.611  17.328  0.00  0.00    +0.000 A 
ATOM     11  C   UNL     1       4.826   6.172  16.264  0.00  0.00    +0.000 A 
ATOM     12  C   UNL     1       6.052   5.610  15.916  0.00  0.00    +0.000 A 
ATOM     13  C   UNL     1       6.554   4.497  16.611  0.00  0.00    +0.000 A 
ATOM     14  C   UNL     1       5.838   3.927  17.672  0.00  0.00    +0.000 A 
ATOM     15  C   UNL     1       4.628   4.498  18.037  0.00  0.00    +0.000 A 
ATOM     16  C   UNL     1       3.695   4.147  19.082  0.00  0.00    +0.000 A 
ATOM     17  C   UNL     1       3.728   3.109  19.997  0.00  0.00    +0.000 A 
ATOM     18  C   UNL     1       2.630   2.924  20.842  0.00  0.00    +0.000 A 
ATOM     19  C   UNL     1       1.494   3.740  20.717  0.00  0.00    +0.000 A 
ATOM     20  C   UNL     1       1.462   4.781  19.789  0.00  0.00    +0.000 A 
ATOM     21  C   UNL     1       2.596   5.038  19.027  0.00  0.00    +0.000 A 
ENDBRANCH   6   9
BRANCH   2  22
ATOM     22  C   UNL     1      -1.380  10.374  19.291  0.00  0.00    +0.000 A 
ATOM     23  C   UNL     1      -1.923   9.691  18.198  0.00  0.00    +0.000 A 
ATOM     24  C   UNL     1      -2.900  10.305  17.403  0.00  0.00    +0.000 A 
ATOM     25  C   UNL     1      -3.333  11.586  17.714  0.00  0.00    +0.000 A 
ATOM     26  F   UNL     1      -4.291  12.159  16.971  0.00  0.00    +0.000 F 
ATOM     27  C   UNL     1      -2.776  12.295  18.770  0.00  0.00    +0.000 A 
ATOM     28  C   UNL     1      -1.766  11.704  19.526  0.00  0.00    +0.000 A 
ENDBRANCH   2  22
TORSDOF 2
ENDMDL
MODEL 7
REMARK VINA RESULT:      -6.9      4.289     10.416
REMARK  Name = 
REMARK  2 active torsions:
REMARK  status: ('A' for Active; 'I' for Inactive)
REMARK    1  A    between atoms: C_2  and  C_3
REMARK    2  A    between atoms: N_13  and  C_14
REMARK                            x       y       z     vdW  Elec       q    Type
REMARK                         _______ _______ _______ _____ _____    ______ ____
ROOT
ATOM      1  O   UNL     1      -1.044  10.628  17.969  0.00  0.00    +0.000 OA
ATOM      2  C   UNL     1      -0.099  10.754  18.748  0.00  0.00    +0.000 C 
ATOM      3  N   UNL     1       0.151  11.941  19.446  0.00  0.00    +0.000 N 
ATOM      4  C   UNL     1       1.276  12.159  20.360  0.00  0.00    +0.000 C 
ATOM      5  C   UNL     1       1.612  13.629  20.674  0.00  0.00    +0.000 C 
ATOM      6  N   UNL     1       0.470  14.520  20.865  0.00  0.00    +0.000 NA
ATOM      7  C   UNL     1      -0.509  14.318  19.781  0.00  0.00    +0.000 C 
ATOM      8  C   UNL     1      -0.970  12.872  19.580  0.00  0.00    +0.000 C 
ENDROOT
BRANCH   6   9
ATOM      9  C   UNL     1      -0.042  14.661  22.242  0.00  0.00    +0.000 C 
ATOM     10  C   UNL     1      -0.632  16.060  22.445  0.00  0.00    +0.000 A 
ATOM     11  C   UNL     1      -0.010  17.284  22.236  0.00  0.00    +0.000 A 
ATOM     12  C   UNL     1      -0.784  18.438  22.349  0.00  0.00    +0.000 A 
ATOM     13  C   UNL     1      -2.146  18.357  22.684  0.00  0.00    +0.000 A 
ATOM     14  C   UNL     1      -2.761  17.119  22.910  0.00  0.00    +0.000 A 
ATOM     15  C   UNL     1      -2.000  15.967  22.776  0.00  0.00    +0.000 A 
ATOM     16  C   UNL     1      -2.358  14.576  22.925  0.00  0.00    +0.000 A 
ATOM     17  C   UNL     1      -3.563  13.997  23.285  0.00  0.00    +0.000 A 
ATOM     18  C   UNL     1      -3.614  12.612  23.466  0.00  0.00    +0.000 A 
ATOM     19  C   UNL     1      -2.450  11.838  23.345  0.00  0.00    +0.000 A 
ATOM     20  C   UNL     1      -1.236  12.425  22.989  0.00  0.00    +0.000 A 
ATOM     21  C   UNL     1      -1.206  13.784  22.697  0.00  0.00    +0.000 A 
ENDBRANCH   6   9
BRANCH   2  22
ATOM     22  C   UNL     1       0.799   9.578  18.914  0.00  0.00    +0.000 A 
ATOM     23  C   UNL     1       0.851   8.947  20.161  0.00  0.00    +0.000 A 
ATOM     24  C   UNL     1       1.677   7.831  20.348  0.00  0.00    +0.000 A 
ATOM     25  C   UNL     1       2.433   7.351  19.287  0.00  0.00    +0.000 A 
ATOM     26  F   UNL     1       3.199   6.264  19.459  0.00  0.00    +0.000 F 
ATOM     27  C   UNL     1       2.426   7.990  18.054  0.00  0.00    +0.000 A 
ATOM     28  C   UNL     1       1.645   9.132  17.886  0.00  0.00    +0.000 A 
ENDBRANCH   2  22
TORSDOF 2
ENDMDL
MODEL 8
REMARK VINA RESULT:      -6.8      3.640      8.872
REMARK  Name = 
REMARK  2 active torsions:
REMARK  status: ('A' for Active; 'I' for Inactive)
REMARK    1  A    between atoms: C_2  and  C_3
REMARK    2  A    between atoms: N_13  and  C_14
REMARK                            x       y       z     vdW  Elec       q    Type
REMARK                         _______ _______ _______ _____ _____    ______ ____
ROOT
ATOM      1  O   UNL     1       3.109   6.355  17.565  0.00  0.00    +0.000 OA
ATOM      2  C   UNL     1       2.692   6.394  18.722  0.00  0.00    +0.000 C 
ATOM      3  N   UNL     1       2.115   7.541  19.278  0.00  0.00    +0.000 N 
ATOM      4  C   UNL     1       1.631   7.656  20.657  0.00  0.00    +0.000 C 
ATOM      5  C   UNL     1       1.445   9.090  21.187  0.00  0.00    +0.000 C 
ATOM      6  N   UNL     1       0.880  10.053  20.245  0.00  0.00    +0.000 NA
ATOM      7  C   UNL     1       1.574   9.949  18.948  0.00  0.00    +0.000 C 
ATOM      8  C   UNL     1       1.612   8.544  18.340  0.00  0.00    +0.000 C 
ENDROOT
BRANCH   6   9
ATOM      9  C   UNL     1      -0.589  10.192  20.235  0.00  0.00    +0.000 C 
ATOM     10  C   UNL     1      -1.005  11.463  20.983  0.00  0.00    +0.000 A 
ATOM     11  C   UNL     1      -0.684  11.826  22.285  0.00  0.00    +0.000 A 
ATOM     12  C   UNL     1      -1.053  13.098  22.718  0.00  0.00    +0.000 A 
ATOM     13  C   UNL     1      -1.746  13.973  21.864  0.00  0.00    +0.000 A 
ATOM     14  C   UNL     1      -2.080  13.591  20.558  0.00  0.00    +0.000 A 
ATOM     15  C   UNL     1      -1.694  12.334  20.115  0.00  0.00    +0.000 A 
ATOM     16  C   UNL     1      -1.878  11.685  18.839  0.00  0.00    +0.000 A 
ATOM     17  C   UNL     1      -2.530  12.124  17.699  0.00  0.00    +0.000 A 
ATOM     18  C   UNL     1      -2.661  11.244  16.621  0.00  0.00    +0.000 A 
ATOM     19  C   UNL     1      -2.193   9.925  16.721  0.00  0.00    +0.000 A 
ATOM     20  C   UNL     1      -1.541   9.485  17.873  0.00  0.00    +0.000 A 
ATOM     21  C   UNL     1      -1.309  10.390  18.903  0.00  0.00    +0.000 A 
ENDBRANCH   6   9
BRANCH   2  22
ATOM     22  C   UNL     1       2.838   5.154  19.533  0.00  0.00    +0.000 A 
ATOM     23  C   UNL     1       1.865   4.866  20.496  0.00  0.00    +0.000 A 
ATOM     24  C   UNL     1       1.968   3.702  21.269  0.00  0.00    +0.000 A 
ATOM     25  C   UNL     1       3.032   2.834  21.065  0.00  0.00    +0.000 A 
ATOM     26  F   UNL     1       3.112   1.705  21.784  0.00  0.00    +0.000 F 
ATOM     27  C   UNL     1       4.030   3.126  20.144  0.00  0.00    +0.000 A 
ATOM     28  C   UNL     1       3.955   4.310  19.415  0.00  0.00    +0.000 A 
ENDBRANCH   2  22
TORSDOF 2
ENDMDL
MODEL 9
REMARK VINA RESULT:      -6.7      3.760      8.798
REMARK  Name = 
REMARK  2 active torsions:
REMARK  status: ('A' for Active; 'I' for Inactive)
REMARK    1  A    between atoms: C_2  and  C_3
REMARK    2  A    between atoms: N_13  and  C_14
REMARK                            x       y       z     vdW  Elec       q    Type
REMARK                         _______ _______ _______ _____ _____    ______ ____
ROOT
ATOM      1  O   UNL     1       2.791   6.635  18.029  0.00  0.00    +0.000 OA
ATOM      2  C   UNL     1       2.217   6.627  19.118  0.00  0.00    +0.000 C 
ATOM      3  N   UNL     1       1.772   7.796  19.745  0.00  0.00    +0.000 N 
ATOM      4  C   UNL     1       1.113   7.850  21.053  0.00  0.00    +0.000 C 
ATOM      5  C   UNL     1       1.101   9.226  21.744  0.00  0.00    +0.000 C 
ATOM      6  N   UNL     1       0.861  10.377  20.877  0.00  0.00    +0.000 NA
ATOM      7  C   UNL     1       1.714  10.284  19.677  0.00  0.00    +0.000 C 
ATOM      8  C   UNL     1       1.598   8.973  18.894  0.00  0.00    +0.000 C 
ENDROOT
BRANCH   6   9
ATOM      9  C   UNL     1      -0.543  10.794  20.696  0.00  0.00    +0.000 C 
ATOM     10  C   UNL     1      -0.695  12.285  21.017  0.00  0.00    +0.000 A 
ATOM     11  C   UNL     1      -0.340  12.943  22.187  0.00  0.00    +0.000 A 
ATOM     12  C   UNL     1      -0.438  14.333  22.210  0.00  0.00    +0.000 A 
ATOM     13  C   UNL     1      -0.902  15.037  21.087  0.00  0.00    +0.000 A 
ATOM     14  C   UNL     1      -1.275  14.364  19.916  0.00  0.00    +0.000 A 
ATOM     15  C   UNL     1      -1.157  12.981  19.881  0.00  0.00    +0.000 A 
ATOM     16  C   UNL     1      -1.440  12.035  18.828  0.00  0.00    +0.000 A 
ATOM     17  C   UNL     1      -1.951  12.240  17.558  0.00  0.00    +0.000 A 
ATOM     18  C   UNL     1      -2.239  11.127  16.763  0.00  0.00    +0.000 A 
ATOM     19  C   UNL     1      -2.069   9.830  17.272  0.00  0.00    +0.000 A 
ATOM     20  C   UNL     1      -1.559   9.628  18.555  0.00  0.00    +0.000 A 
ATOM     21  C   UNL     1      -1.167  10.730  19.304  0.00  0.00    +0.000 A 
ENDBRANCH   6   9
BRANCH   2  22
ATOM     22  C   UNL     1       2.022   5.301  19.766  0.00  0.00    +0.000 A 
ATOM     23  C   UNL     1       2.539   5.102  21.051  0.00  0.00    +0.000 A 
ATOM     24  C   UNL     1       2.364   3.870  21.693  0.00  0.00    +0.000 A 
ATOM     25  C   UNL     1       1.665   2.855  21.054  0.00  0.00    +0.000 A 
ATOM     26  F   UNL     1       1.471   1.687  21.683  0.00  0.00    +0.000 F 
ATOM     27  C   UNL     1       1.182   3.020  19.762  0.00  0.00    +0.000 A 
ATOM     28  C   UNL     1       1.405   4.228  19.104  0.00  0.00    +0.000 A 
ENDBRANCH   2  22
TORSDOF 2
ENDMDL
