MODEL 1
REMARK VINA RESULT:      -8.1      0.000      0.000
REMARK  Name = 
REMARK  8 active torsions:
REMARK  status: ('A' for Active; 'I' for Inactive)
REMARK    1  A    between atoms: C_1  and  O_2
REMARK    2  A    between atoms: O_2  and  C_3
REMARK    3  A    between atoms: N_7  and  C_8
REMARK    4  A    between atoms: C_21  and  O_22
REMARK    5  A    between atoms: O_22  and  C_23
REMARK    6  A    between atoms: C_23  and  C_24
REMARK    7  A    between atoms: C_24  and  N_25
REMARK    8  A    between atoms: N_28  and  C_29
REMARK                            x       y       z     vdW  Elec       q    Type
REMARK                         _______ _______ _______ _____ _____    ______ ____
ROOT
ATOM      1  C   UNL     1       0.349  10.342  21.377  0.00  0.00    +0.000 A 
ATOM      2  C   UNL     1       0.989   9.119  21.132  0.00  0.00    +0.000 A 
ATOM      3  C   UNL     1       1.515   8.805  19.853  0.00  0.00    +0.000 A 
ATOM      4  C   UNL     1       2.144   7.605  19.493  0.00  0.00    +0.000 A 
ATOM      5  N   UNL     1       2.256   6.553  20.442  0.00  0.00    +0.000 N 
ATOM      6  N   UNL     1       2.629   7.396  18.251  0.00  0.00    +0.000 NA
ATOM      7  C   UNL     1       2.474   8.375  17.362  0.00  0.00    +0.000 A 
ATOM      8  N   UNL     1       1.868   9.538  17.588  0.00  0.00    +0.000 NA
ATOM      9  C   UNL     1       1.394   9.732  18.821  0.00  0.00    +0.000 A 
ATOM     10  C   UNL     1       0.705  10.904  19.061  0.00  0.00    +0.000 A 
ATOM     11  C   UNL     1       0.105  11.203  20.301  0.00  0.00    +0.000 A 
ATOM     12  H   UNL     1       2.805   6.864  21.239  0.00  0.00    +0.000 HD
ENDROOT
BRANCH   5  13
ATOM     13  C   UNL     1       2.577   5.222  20.074  0.00  0.00    +0.000 A 
ATOM     14  C   UNL     1       1.586   4.230  20.028  0.00  0.00    +0.000 A 
ATOM     15  C   UNL     1       1.882   2.952  19.563  0.00  0.00    +0.000 A 
ATOM     16  C   UNL     1       3.182   2.648  19.166  0.00  0.00    +0.000 A 
ATOM     17 CL   UNL     1       3.529   1.088  18.529  0.00  0.00    +0.000 Cl
ATOM     18  C   UNL     1       4.196   3.598  19.265  0.00  0.00    +0.000 A 
ATOM     19  C   UNL     1       3.886   4.870  19.725  0.00  0.00    +0.000 A 
ATOM     20  F   UNL     1       4.855   5.799  19.796  0.00  0.00    +0.000 F 
ENDBRANCH   5  13
BRANCH   1  22
ATOM     21  C   UNL     1      -0.288   9.621  23.536  0.00  0.00    +0.000 C 
ATOM     22  O   UNL     1      -0.073  10.707  22.629  0.00  0.00    +0.000 OA
ENDBRANCH   1  22
BRANCH  11  23
ATOM     23  O   UNL     1      -0.744  12.295  20.464  0.00  0.00    +0.000 OA
BRANCH  23  24
ATOM     24  C   UNL     1      -2.074  11.982  20.009  0.00  0.00    +0.000 C 
BRANCH  24  25
ATOM     25  C   UNL     1      -3.242  12.778  20.612  0.00  0.00    +0.000 C 
BRANCH  25  26
ATOM     26  N   UNL     1      -4.447  12.685  19.739  0.00  0.00    +0.000 NA
ATOM     27  C   UNL     1      -5.661  12.367  20.512  0.00  0.00    +0.000 C 
ATOM     28  C   UNL     1      -6.918  12.189  19.616  0.00  0.00    +0.000 C 
ATOM     29  N   UNL     1      -6.777  11.225  18.507  0.00  0.00    +0.000 NA
ATOM     30  C   UNL     1      -6.759   9.843  18.978  0.00  0.00    +0.000 C 
ATOM     31  C   UNL     1      -5.553  11.549  17.759  0.00  0.00    +0.000 C 
ATOM     32  C   UNL     1      -4.289  11.717  18.631  0.00  0.00    +0.000 C 
ENDBRANCH  25  26
ENDBRANCH  24  25
ENDBRANCH  23  24
ENDBRANCH  11  23
TORSDOF 6
ENDMDL
MODEL 2
REMARK VINA RESULT:      -7.9      0.493      1.110
REMARK  Name = 
REMARK  8 active torsions:
REMARK  status: ('A' for Active; 'I' for Inactive)
REMARK    1  A    between atoms: C_1  and  O_2
REMARK    2  A    between atoms: O_2  and  C_3
REMARK    3  A    between atoms: N_7  and  C_8
REMARK    4  A    between atoms: C_21  and  O_22
REMARK    5  A    between atoms: O_22  and  C_23
REMARK    6  A    between atoms: C_23  and  C_24
REMARK    7  A    between atoms: C_24  and  N_25
REMARK    8  A    between atoms: N_28  and  C_29
REMARK                            x       y       z     vdW  Elec       q    Type
REMARK                         _______ _______ _______ _____ _____    ______ ____
ROOT
ATOM      1  C   UNL     1       0.353  10.409  21.361  0.00  0.00    +0.000 A 
ATOM      2  C   UNL     1       0.982   9.179  21.123  0.00  0.00    +0.000 A 
ATOM      3  C   UNL     1       1.499   8.850  19.844  0.00  0.00    +0.000 A 
ATOM      4  C   UNL     1       2.118   7.642  19.491  0.00  0.00    +0.000 A 
ATOM      5  N   UNL     1       2.226   6.598  20.449  0.00  0.00    +0.000 N 
ATOM      6  N   UNL     1       2.594   7.419  18.248  0.00  0.00    +0.000 NA
ATOM      7  C   UNL     1       2.441   8.391  17.352  0.00  0.00    +0.000 A 
ATOM      8  N   UNL     1       1.845   9.561  17.571  0.00  0.00    +0.000 NA
ATOM      9  C   UNL     1       1.379   9.769  18.805  0.00  0.00    +0.000 A 
ATOM     10  C   UNL     1       0.699  10.948  19.038  0.00  0.00    +0.000 A 
ATOM     11  C   UNL     1       0.109  11.262  20.279  0.00  0.00    +0.000 A 
ATOM     12  H   UNL     1       2.783   6.912  21.239  0.00  0.00    +0.000 HD
ENDROOT
BRANCH   5  13
ATOM     13  C   UNL     1       2.536   5.262  20.090  0.00  0.00    +0.000 A 
ATOM     14  C   UNL     1       1.534   4.282  20.035  0.00  0.00    +0.000 A 
ATOM     15  C   UNL     1       1.820   2.998  19.580  0.00  0.00    +0.000 A 
ATOM     16  C   UNL     1       3.121   2.676  19.201  0.00  0.00    +0.000 A 
ATOM     17 CL   UNL     1       3.457   1.110  18.576  0.00  0.00    +0.000 Cl
ATOM     18  C   UNL     1       4.145   3.614  19.310  0.00  0.00    +0.000 A 
ATOM     19  C   UNL     1       3.846   4.892  19.760  0.00  0.00    +0.000 A 
ATOM     20  F   UNL     1       4.825   5.809  19.839  0.00  0.00    +0.000 F 
ENDBRANCH   5  13
BRANCH   1  22
ATOM     21  C   UNL     1      -0.736   9.772  23.359  0.00  0.00    +0.000 C 
ATOM     22  O   UNL     1      -0.060  10.788  22.612  0.00  0.00    +0.000 OA
ENDBRANCH   1  22
BRANCH  11  23
ATOM     23  O   UNL     1      -0.731  12.362  20.437  0.00  0.00    +0.000 OA
BRANCH  23  24
ATOM     24  C   UNL     1      -2.020  12.111  19.846  0.00  0.00    +0.000 C 
BRANCH  24  25
ATOM     25  C   UNL     1      -3.213  12.934  20.356  0.00  0.00    +0.000 C 
BRANCH  25  26
ATOM     26  N   UNL     1      -4.499  12.320  19.920  0.00  0.00    +0.000 NA
ATOM     27  C   UNL     1      -4.386  11.695  18.590  0.00  0.00    +0.000 C 
ATOM     28  C   UNL     1      -5.733  11.113  18.079  0.00  0.00    +0.000 C 
ATOM     29  N   UNL     1      -6.873  12.051  18.084  0.00  0.00    +0.000 NA
ATOM     30  C   UNL     1      -6.763  13.058  17.033  0.00  0.00    +0.000 C 
ATOM     31  C   UNL     1      -6.960  12.674  19.412  0.00  0.00    +0.000 C 
ATOM     32  C   UNL     1      -5.633  13.271  19.933  0.00  0.00    +0.000 C 
ENDBRANCH  25  26
ENDBRANCH  24  25
ENDBRANCH  23  24
ENDBRANCH  11  23
TORSDOF 6
ENDMDL
MODEL 3
REMARK VINA RESULT:      -7.9      0.857      1.219
REMARK  Name = 
REMARK  8 active torsions:
REMARK  status: ('A' for Active; 'I' for Inactive)
REMARK    1  A    between atoms: C_1  and  O_2
REMARK    2  A    between atoms: O_2  and  C_3
REMARK    3  A    between atoms: N_7  and  C_8
REMARK    4  A    between atoms: C_21  and  O_22
REMARK    5  A    between atoms: O_22  and  C_23
REMARK    6  A    between atoms: C_23  and  C_24
REMARK    7  A    between atoms: C_24  and  N_25
REMARK    8  A    between atoms: N_28  and  C_29
REMARK                            x       y       z     vdW  Elec       q    Type
REMARK                         _______ _______ _______ _____ _____    ______ ____
ROOT
ATOM      1  C   UNL     1       0.345  10.281  21.553  0.00  0.00    +0.000 A 
ATOM      2  C   UNL     1       0.994   9.082  21.228  0.00  0.00    +0.000 A 
ATOM      3  C   UNL     1       1.495   8.844  19.923  0.00  0.00    +0.000 A 
ATOM      4  C   UNL     1       2.131   7.674  19.485  0.00  0.00    +0.000 A 
ATOM      5  N   UNL     1       2.278   6.574  20.373  0.00  0.00    +0.000 N 
ATOM      6  N   UNL     1       2.590   7.538  18.223  0.00  0.00    +0.000 NA
ATOM      7  C   UNL     1       2.402   8.561  17.391  0.00  0.00    +0.000 A 
ATOM      8  N   UNL     1       1.787   9.702  17.693  0.00  0.00    +0.000 NA
ATOM      9  C   UNL     1       1.338   9.823  18.945  0.00  0.00    +0.000 A 
ATOM     10  C   UNL     1       0.639  10.970  19.263  0.00  0.00    +0.000 A 
ATOM     11  C   UNL     1       0.065  11.194  20.530  0.00  0.00    +0.000 A 
ATOM     12  H   UNL     1       2.842   6.850  21.173  0.00  0.00    +0.000 HD
ENDROOT
BRANCH   5  13
ATOM     13  C   UNL     1       2.609   5.270  19.927  0.00  0.00    +0.000 A 
ATOM     14  C   UNL     1       3.909   4.965  19.500  0.00  0.00    +0.000 A 
ATOM     15  C   UNL     1       4.260   3.660  19.165  0.00  0.00    +0.000 A 
ATOM     16  C   UNL     1       3.301   2.653  19.229  0.00  0.00    +0.000 A 
ATOM     17 CL   UNL     1       3.754   1.030  18.879  0.00  0.00    +0.000 Cl
ATOM     18  C   UNL     1       1.986   2.944  19.588  0.00  0.00    +0.000 A 
ATOM     19  C   UNL     1       1.652   4.248  19.924  0.00  0.00    +0.000 A 
ATOM     20  F   UNL     1       0.392   4.529  20.299  0.00  0.00    +0.000 F 
ENDBRANCH   5  13
BRANCH   1  22
ATOM     21  C   UNL     1      -0.033   9.466  23.739  0.00  0.00    +0.000 C 
ATOM     22  O   UNL     1      -0.054  10.573  22.831  0.00  0.00    +0.000 OA
ENDBRANCH   1  22
BRANCH  11  23
ATOM     23  O   UNL     1      -0.795  12.264  20.770  0.00  0.00    +0.000 OA
BRANCH  23  24
ATOM     24  C   UNL     1      -2.073  12.045  20.144  0.00  0.00    +0.000 C 
BRANCH  24  25
ATOM     25  C   UNL     1      -3.289  12.787  20.721  0.00  0.00    +0.000 C 
BRANCH  25  26
ATOM     26  N   UNL     1      -4.449  12.697  19.790  0.00  0.00    +0.000 NA
ATOM     27  C   UNL     1      -5.708  12.427  20.507  0.00  0.00    +0.000 C 
ATOM     28  C   UNL     1      -6.922  12.253  19.553  0.00  0.00    +0.000 C 
ATOM     29  N   UNL     1      -6.747  11.256  18.478  0.00  0.00    +0.000 NA
ATOM     30  C   UNL     1      -6.786   9.887  18.984  0.00  0.00    +0.000 C 
ATOM     31  C   UNL     1      -5.480  11.532  17.786  0.00  0.00    +0.000 C 
ATOM     32  C   UNL     1      -4.258  11.696  18.717  0.00  0.00    +0.000 C 
ENDBRANCH  25  26
ENDBRANCH  24  25
ENDBRANCH  23  24
ENDBRANCH  11  23
TORSDOF 6
ENDMDL
MODEL 4
REMARK VINA RESULT:      -7.7      0.959      1.638
REMARK  Name = 
REMARK  8 active torsions:
REMARK  status: ('A' for Active; 'I' for Inactive)
REMARK    1  A    between atoms: C_1  and  O_2
REMARK    2  A    between atoms: O_2  and  C_3
REMARK    3  A    between atoms: N_7  and  C_8
REMARK    4  A    between atoms: C_21  and  O_22
REMARK    5  A    between atoms: O_22  and  C_23
REMARK    6  A    between atoms: C_23  and  C_24
REMARK    7  A    between atoms: C_24  and  N_25
REMARK    8  A    between atoms: N_28  and  C_29
REMARK                            x       y       z     vdW  Elec       q    Type
REMARK                         _______ _______ _______ _____ _____    ______ ____
ROOT
ATOM      1  C   UNL     1       0.383  10.264  21.517  0.00  0.00    +0.000 A 
ATOM      2  C   UNL     1       1.041   9.067  21.204  0.00  0.00    +0.000 A 
ATOM      3  C   UNL     1       1.510   8.805  19.892  0.00  0.00    +0.000 A 
ATOM      4  C   UNL     1       2.153   7.633  19.465  0.00  0.00    +0.000 A 
ATOM      5  N   UNL     1       2.340   6.558  20.375  0.00  0.00    +0.000 N 
ATOM      6  N   UNL     1       2.580   7.473  18.195  0.00  0.00    +0.000 NA
ATOM      7  C   UNL     1       2.354   8.472  17.344  0.00  0.00    +0.000 A 
ATOM      8  N   UNL     1       1.730   9.611  17.635  0.00  0.00    +0.000 NA
ATOM      9  C   UNL     1       1.313   9.757  18.895  0.00  0.00    +0.000 A 
ATOM     10  C   UNL     1       0.605  10.901  19.204  0.00  0.00    +0.000 A 
ATOM     11  C   UNL     1       0.062  11.148  20.481  0.00  0.00    +0.000 A 
ATOM     12  H   UNL     1       2.920   6.862  21.153  0.00  0.00    +0.000 HD
ENDROOT
BRANCH   5  13
ATOM     13  C   UNL     1       2.678   5.248  19.952  0.00  0.00    +0.000 A 
ATOM     14  C   UNL     1       3.979   4.945  19.525  0.00  0.00    +0.000 A 
ATOM     15  C   UNL     1       4.338   3.637  19.213  0.00  0.00    +0.000 A 
ATOM     16  C   UNL     1       3.387   2.623  19.300  0.00  0.00    +0.000 A 
ATOM     17 CL   UNL     1       3.850   0.998  18.978  0.00  0.00    +0.000 Cl
ATOM     18  C   UNL     1       2.071   2.912  19.658  0.00  0.00    +0.000 A 
ATOM     19  C   UNL     1       1.729   4.219  19.972  0.00  0.00    +0.000 A 
ATOM     20  F   UNL     1       0.469   4.499  20.347  0.00  0.00    +0.000 F 
ENDBRANCH   5  13
BRANCH   1  22
ATOM     21  C   UNL     1      -0.198   9.460  23.662  0.00  0.00    +0.000 C 
ATOM     22  O   UNL     1       0.014  10.581  22.798  0.00  0.00    +0.000 OA
ENDBRANCH   1  22
BRANCH  11  23
ATOM     23  O   UNL     1      -0.808  12.210  20.718  0.00  0.00    +0.000 OA
BRANCH  23  24
ATOM     24  C   UNL     1      -2.022  12.059  19.959  0.00  0.00    +0.000 C 
BRANCH  24  25
ATOM     25  C   UNL     1      -3.248  12.874  20.400  0.00  0.00    +0.000 C 
BRANCH  25  26
ATOM     26  N   UNL     1      -4.504  12.117  20.137  0.00  0.00    +0.000 NA
ATOM     27  C   UNL     1      -4.758  11.958  18.694  0.00  0.00    +0.000 C 
ATOM     28  C   UNL     1      -6.101  11.238  18.392  0.00  0.00    +0.000 C 
ATOM     29  N   UNL     1      -7.294  11.820  19.039  0.00  0.00    +0.000 NA
ATOM     30  C   UNL     1      -7.689  13.086  18.428  0.00  0.00    +0.000 C 
ATOM     31  C   UNL     1      -7.015  11.984  20.473  0.00  0.00    +0.000 C 
ATOM     32  C   UNL     1      -5.690  12.710  20.794  0.00  0.00    +0.000 C 
ENDBRANCH  25  26
ENDBRANCH  24  25
ENDBRANCH  23  24
ENDBRANCH  11  23
TORSDOF 6
ENDMDL
MODEL 5
REMARK VINA RESULT:      -7.7      1.808      2.677
REMARK  Name = 
REMARK  8 active torsions:
REMARK  status: ('A' for Active; 'I' for Inactive)
REMARK    1  A    between atoms: C_1  and  O_2
REMARK    2  A    between atoms: O_2  and  C_3
REMARK    3  A    between atoms: N_7  and  C_8
REMARK    4  A    between atoms: C_21  and  O_22
REMARK    5  A    between atoms: O_22  and  C_23
REMARK    6  A    between atoms: C_23  and  C_24
REMARK    7  A    between atoms: C_24  and  N_25
REMARK    8  A    between atoms: N_28  and  C_29
REMARK                            x       y       z     vdW  Elec       q    Type
REMARK                         _______ _______ _______ _____ _____    ______ ____
ROOT
ATOM      1  C   UNL     1       0.537  10.312  21.472  0.00  0.00    +0.000 A 
ATOM      2  C   UNL     1       1.158   9.084  21.205  0.00  0.00    +0.000 A 
ATOM      3  C   UNL     1       1.606   8.753  19.902  0.00  0.00    +0.000 A 
ATOM      4  C   UNL     1       2.211   7.546  19.520  0.00  0.00    +0.000 A 
ATOM      5  N   UNL     1       2.375   6.505  20.474  0.00  0.00    +0.000 N 
ATOM      6  N   UNL     1       2.621   7.320  18.255  0.00  0.00    +0.000 NA
ATOM      7  C   UNL     1       2.416   8.288  17.364  0.00  0.00    +0.000 A 
ATOM      8  N   UNL     1       1.828   9.456  17.611  0.00  0.00    +0.000 NA
ATOM      9  C   UNL     1       1.428   9.667  18.867  0.00  0.00    +0.000 A 
ATOM     10  C   UNL     1       0.756  10.844  19.133  0.00  0.00    +0.000 A 
ATOM     11  C   UNL     1       0.232  11.160  20.402  0.00  0.00    +0.000 A 
ATOM     12  H   UNL     1       2.972   6.825  21.233  0.00  0.00    +0.000 HD
ENDROOT
BRANCH   5  13
ATOM     13  C   UNL     1       2.672   5.170  20.105  0.00  0.00    +0.000 A 
ATOM     14  C   UNL     1       1.665   4.193  20.073  0.00  0.00    +0.000 A 
ATOM     15  C   UNL     1       1.935   2.909  19.607  0.00  0.00    +0.000 A 
ATOM     16  C   UNL     1       3.224   2.585  19.194  0.00  0.00    +0.000 A 
ATOM     17 CL   UNL     1       3.539   1.018  18.556  0.00  0.00    +0.000 Cl
ATOM     18  C   UNL     1       4.254   3.519  19.279  0.00  0.00    +0.000 A 
ATOM     19  C   UNL     1       3.971   4.796  19.740  0.00  0.00    +0.000 A 
ATOM     20  F   UNL     1       4.954   5.710  19.797  0.00  0.00    +0.000 F 
ENDBRANCH   5  13
BRANCH   1  22
ATOM     21  C   UNL     1      -0.939  10.008  23.293  0.00  0.00    +0.000 C 
ATOM     22  O   UNL     1       0.190  10.694  22.742  0.00  0.00    +0.000 OA
ENDBRANCH   1  22
BRANCH  11  23
ATOM     23  O   UNL     1      -0.604  12.257  20.601  0.00  0.00    +0.000 OA
BRANCH  23  24
ATOM     24  C   UNL     1      -1.744  12.199  19.723  0.00  0.00    +0.000 C 
BRANCH  24  25
ATOM     25  C   UNL     1      -3.082  12.740  20.250  0.00  0.00    +0.000 C 
BRANCH  25  26
ATOM     26  N   UNL     1      -2.911  13.328  21.609  0.00  0.00    +0.000 NA
ATOM     27  C   UNL     1      -3.798  12.690  22.599  0.00  0.00    +0.000 C 
ATOM     28  C   UNL     1      -3.695  13.336  24.008  0.00  0.00    +0.000 C 
ATOM     29  N   UNL     1      -3.884  14.799  24.052  0.00  0.00    +0.000 NA
ATOM     30  C   UNL     1      -5.278  15.181  23.839  0.00  0.00    +0.000 C 
ATOM     31  C   UNL     1      -3.004  15.415  23.048  0.00  0.00    +0.000 C 
ATOM     32  C   UNL     1      -3.101  14.795  21.637  0.00  0.00    +0.000 C 
ENDBRANCH  25  26
ENDBRANCH  24  25
ENDBRANCH  23  24
ENDBRANCH  11  23
TORSDOF 6
ENDMDL
MODEL 6
REMARK VINA RESULT:      -7.6      3.273      4.975
REMARK  Name = 
REMARK  8 active torsions:
REMARK  status: ('A' for Active; 'I' for Inactive)
REMARK    1  A    between atoms: C_1  and  O_2
REMARK    2  A    between atoms: O_2  and  C_3
REMARK    3  A    between atoms: N_7  and  C_8
REMARK    4  A    between atoms: C_21  and  O_22
REMARK    5  A    between atoms: O_22  and  C_23
REMARK    6  A    between atoms: C_23  and  C_24
REMARK    7  A    between atoms: C_24  and  N_25
REMARK    8  A    between atoms: N_28  and  C_29
REMARK                            x       y       z     vdW  Elec       q    Type
REMARK                         _______ _______ _______ _____ _____    ______ ____
ROOT
ATOM      1  C   UNL     1       0.419  10.274  21.394  0.00  0.00    +0.000 A 
ATOM      2  C   UNL     1       1.062   9.056  21.133  0.00  0.00    +0.000 A 
ATOM      3  C   UNL     1       1.563   8.749  19.843  0.00  0.00    +0.000 A 
ATOM      4  C   UNL     1       2.194   7.554  19.467  0.00  0.00    +0.000 A 
ATOM      5  N   UNL     1       2.333   6.501  20.412  0.00  0.00    +0.000 N 
ATOM      6  N   UNL     1       2.655   7.351  18.215  0.00  0.00    +0.000 NA
ATOM      7  C   UNL     1       2.473   8.330  17.331  0.00  0.00    +0.000 A 
ATOM      8  N   UNL     1       1.864   9.488  17.573  0.00  0.00    +0.000 NA
ATOM      9  C   UNL     1       1.414   9.677  18.815  0.00  0.00    +0.000 A 
ATOM     10  C   UNL     1       0.721  10.843  19.072  0.00  0.00    +0.000 A 
ATOM     11  C   UNL     1       0.146  11.135  20.325  0.00  0.00    +0.000 A 
ATOM     12  H   UNL     1       2.897   6.815  21.198  0.00  0.00    +0.000 HD
ENDROOT
BRANCH   5  13
ATOM     13  C   UNL     1       2.657   5.174  20.035  0.00  0.00    +0.000 A 
ATOM     14  C   UNL     1       1.665   4.185  19.963  0.00  0.00    +0.000 A 
ATOM     15  C   UNL     1       1.964   2.911  19.489  0.00  0.00    +0.000 A 
ATOM     16  C   UNL     1       3.269   2.607  19.108  0.00  0.00    +0.000 A 
ATOM     17 CL   UNL     1       3.622   1.053  18.461  0.00  0.00    +0.000 Cl
ATOM     18  C   UNL     1       4.284   3.554  19.233  0.00  0.00    +0.000 A 
ATOM     19  C   UNL     1       3.971   4.822  19.702  0.00  0.00    +0.000 A 
ATOM     20  F   UNL     1       4.940   5.747  19.797  0.00  0.00    +0.000 F 
ENDBRANCH   5  13
BRANCH   1  22
ATOM     21  C   UNL     1      -0.248   9.541  23.540  0.00  0.00    +0.000 C 
ATOM     22  O   UNL     1       0.020  10.634  22.655  0.00  0.00    +0.000 OA
ENDBRANCH   1  22
BRANCH  11  23
ATOM     23  O   UNL     1      -0.708  12.220  20.508  0.00  0.00    +0.000 OA
BRANCH  23  24
ATOM     24  C   UNL     1      -0.138  13.421  19.955  0.00  0.00    +0.000 C 
BRANCH  24  25
ATOM     25  C   UNL     1       0.835  14.221  20.836  0.00  0.00    +0.000 C 
BRANCH  25  26
ATOM     26  N   UNL     1       2.230  14.095  20.326  0.00  0.00    +0.000 NA
ATOM     27  C   UNL     1       3.171  14.936  21.088  0.00  0.00    +0.000 C 
ATOM     28  C   UNL     1       4.619  14.882  20.528  0.00  0.00    +0.000 C 
ATOM     29  N   UNL     1       4.755  15.175  19.088  0.00  0.00    +0.000 NA
ATOM     30  C   UNL     1       4.559  16.591  18.793  0.00  0.00    +0.000 C 
ATOM     31  C   UNL     1       3.799  14.338  18.348  0.00  0.00    +0.000 C 
ATOM     32  C   UNL     1       2.350  14.389  18.881  0.00  0.00    +0.000 C 
ENDBRANCH  25  26
ENDBRANCH  24  25
ENDBRANCH  23  24
ENDBRANCH  11  23
TORSDOF 6
ENDMDL
MODEL 7
REMARK VINA RESULT:      -7.5      3.292      4.941
REMARK  Name = 
REMARK  8 active torsions:
REMARK  status: ('A' for Active; 'I' for Inactive)
REMARK    1  A    between atoms: C_1  and  O_2
REMARK    2  A    between atoms: O_2  and  C_3
REMARK    3  A    between atoms: N_7  and  C_8
REMARK    4  A    between atoms: C_21  and  O_22
REMARK    5  A    between atoms: O_22  and  C_23
REMARK    6  A    between atoms: C_23  and  C_24
REMARK    7  A    between atoms: C_24  and  N_25
REMARK    8  A    between atoms: N_28  and  C_29
REMARK                            x       y       z     vdW  Elec       q    Type
REMARK                         _______ _______ _______ _____ _____    ______ ____
ROOT
ATOM      1  C   UNL     1       0.503  10.195  21.617  0.00  0.00    +0.000 A 
ATOM      2  C   UNL     1       1.141   8.985  21.309  0.00  0.00    +0.000 A 
ATOM      3  C   UNL     1       1.560   8.688  19.988  0.00  0.00    +0.000 A 
ATOM      4  C   UNL     1       2.178   7.501  19.566  0.00  0.00    +0.000 A 
ATOM      5  N   UNL     1       2.390   6.447  20.495  0.00  0.00    +0.000 N 
ATOM      6  N   UNL     1       2.557   7.308  18.286  0.00  0.00    +0.000 NA
ATOM      7  C   UNL     1       2.307   8.288  17.420  0.00  0.00    +0.000 A 
ATOM      8  N   UNL     1       1.702   9.439  17.705  0.00  0.00    +0.000 NA
ATOM      9  C   UNL     1       1.333   9.618  18.976  0.00  0.00    +0.000 A 
ATOM     10  C   UNL     1       0.646  10.775  19.282  0.00  0.00    +0.000 A 
ATOM     11  C   UNL     1       0.151  11.057  20.572  0.00  0.00    +0.000 A 
ATOM     12  H   UNL     1       3.001   6.765  21.243  0.00  0.00    +0.000 HD
ENDROOT
BRANCH   5  13
ATOM     13  C   UNL     1       2.703   5.125  20.092  0.00  0.00    +0.000 A 
ATOM     14  C   UNL     1       1.710   4.134  20.045  0.00  0.00    +0.000 A 
ATOM     15  C   UNL     1       1.995   2.866  19.547  0.00  0.00    +0.000 A 
ATOM     16  C   UNL     1       3.286   2.570  19.116  0.00  0.00    +0.000 A 
ATOM     17 CL   UNL     1       3.619   1.024  18.439  0.00  0.00    +0.000 Cl
ATOM     18  C   UNL     1       4.303   3.518  19.214  0.00  0.00    +0.000 A 
ATOM     19  C   UNL     1       4.004   4.779  19.708  0.00  0.00    +0.000 A 
ATOM     20  F   UNL     1       4.975   5.707  19.778  0.00  0.00    +0.000 F 
ENDBRANCH   5  13
BRANCH   1  22
ATOM     21  C   UNL     1      -1.205  10.446  23.230  0.00  0.00    +0.000 C 
ATOM     22  O   UNL     1       0.184  10.546  22.903  0.00  0.00    +0.000 OA
ENDBRANCH   1  22
BRANCH  11  23
ATOM     23  O   UNL     1      -0.701  12.131  20.815  0.00  0.00    +0.000 OA
BRANCH  23  24
ATOM     24  C   UNL     1       0.007  13.381  20.711  0.00  0.00    +0.000 C 
BRANCH  24  25
ATOM     25  C   UNL     1       0.261  14.168  22.006  0.00  0.00    +0.000 C 
BRANCH  25  26
ATOM     26  N   UNL     1       1.702  14.528  22.128  0.00  0.00    +0.000 NA
ATOM     27  C   UNL     1       1.895  15.982  22.276  0.00  0.00    +0.000 C 
ATOM     28  C   UNL     1       3.393  16.391  22.328  0.00  0.00    +0.000 C 
ATOM     29  N   UNL     1       4.226  15.898  21.213  0.00  0.00    +0.000 NA
ATOM     30  C   UNL     1       3.945  16.600  19.964  0.00  0.00    +0.000 C 
ATOM     31  C   UNL     1       4.008  14.451  21.072  0.00  0.00    +0.000 C 
ATOM     32  C   UNL     1       2.525  14.025  21.005  0.00  0.00    +0.000 C 
ENDBRANCH  25  26
ENDBRANCH  24  25
ENDBRANCH  23  24
ENDBRANCH  11  23
TORSDOF 6
ENDMDL
MODEL 8
REMARK VINA RESULT:      -7.5      3.184      4.741
REMARK  Name = 
REMARK  8 active torsions:
REMARK  status: ('A' for Active; 'I' for Inactive)
REMARK    1  A    between atoms: C_1  and  O_2
REMARK    2  A    between atoms: O_2  and  C_3
REMARK    3  A    between atoms: N_7  and  C_8
REMARK    4  A    between atoms: C_21  and  O_22
REMARK    5  A    between atoms: O_22  and  C_23
REMARK    6  A    between atoms: C_23  and  C_24
REMARK    7  A    between atoms: C_24  and  N_25
REMARK    8  A    between atoms: N_28  and  C_29
REMARK                            x       y       z     vdW  Elec       q    Type
REMARK                         _______ _______ _______ _____ _____    ______ ____
ROOT
ATOM      1  C   UNL     1       0.047  10.142  21.198  0.00  0.00    +0.000 A 
ATOM      2  C   UNL     1       0.736   8.940  20.981  0.00  0.00    +0.000 A 
ATOM      3  C   UNL     1       1.414   8.690  19.761  0.00  0.00    +0.000 A 
ATOM      4  C   UNL     1       2.106   7.516  19.429  0.00  0.00    +0.000 A 
ATOM      5  N   UNL     1       2.127   6.426  20.341  0.00  0.00    +0.000 N 
ATOM      6  N   UNL     1       2.737   7.367  18.245  0.00  0.00    +0.000 NA
ATOM      7  C   UNL     1       2.666   8.381  17.384  0.00  0.00    +0.000 A 
ATOM      8  N   UNL     1       2.015   9.524  17.585  0.00  0.00    +0.000 NA
ATOM      9  C   UNL     1       1.396   9.658  18.760  0.00  0.00    +0.000 A 
ATOM     10  C   UNL     1       0.659  10.808  18.965  0.00  0.00    +0.000 A 
ATOM     11  C   UNL     1      -0.087  11.044  20.137  0.00  0.00    +0.000 A 
ATOM     12  H   UNL     1       2.573   6.712  21.209  0.00  0.00    +0.000 HD
ENDROOT
BRANCH   5  13
ATOM     13  C   UNL     1       2.516   5.118  19.960  0.00  0.00    +0.000 A 
ATOM     14  C   UNL     1       1.562   4.102  19.800  0.00  0.00    +0.000 A 
ATOM     15  C   UNL     1       1.932   2.848  19.322  0.00  0.00    +0.000 A 
ATOM     16  C   UNL     1       3.269   2.592  19.025  0.00  0.00    +0.000 A 
ATOM     17 CL   UNL     1       3.713   1.064  18.371  0.00  0.00    +0.000 Cl
ATOM     18  C   UNL     1       4.243   3.565  19.239  0.00  0.00    +0.000 A 
ATOM     19  C   UNL     1       3.860   4.812  19.711  0.00  0.00    +0.000 A 
ATOM     20  F   UNL     1       4.792   5.764  19.891  0.00  0.00    +0.000 F 
ENDBRANCH   5  13
BRANCH   1  22
ATOM     21  C   UNL     1      -0.136   9.600  23.491  0.00  0.00    +0.000 C 
ATOM     22  O   UNL     1      -0.526  10.447  22.405  0.00  0.00    +0.000 OA
ENDBRANCH   1  22
BRANCH  11  23
ATOM     23  O   UNL     1      -0.972  12.115  20.243  0.00  0.00    +0.000 OA
BRANCH  23  24
ATOM     24  C   UNL     1      -0.289  13.303  20.683  0.00  0.00    +0.000 C 
BRANCH  24  25
ATOM     25  C   UNL     1      -0.032  14.407  19.644  0.00  0.00    +0.000 C 
BRANCH  25  26
ATOM     26  N   UNL     1       1.292  15.049  19.878  0.00  0.00    +0.000 NA
ATOM     27  C   UNL     1       1.663  15.958  18.779  0.00  0.00    +0.000 C 
ATOM     28  C   UNL     1       3.074  16.583  18.960  0.00  0.00    +0.000 C 
ATOM     29  N   UNL     1       4.170  15.621  19.192  0.00  0.00    +0.000 NA
ATOM     30  C   UNL     1       4.515  14.878  17.983  0.00  0.00    +0.000 C 
ATOM     31  C   UNL     1       3.775  14.715  20.280  0.00  0.00    +0.000 C 
ATOM     32  C   UNL     1       2.380  14.073  20.111  0.00  0.00    +0.000 C 
ENDBRANCH  25  26
ENDBRANCH  24  25
ENDBRANCH  23  24
ENDBRANCH  11  23
TORSDOF 6
ENDMDL
MODEL 9
REMARK VINA RESULT:      -7.5      1.739      2.494
REMARK  Name = 
REMARK  8 active torsions:
REMARK  status: ('A' for Active; 'I' for Inactive)
REMARK    1  A    between atoms: C_1  and  O_2
REMARK    2  A    between atoms: O_2  and  C_3
REMARK    3  A    between atoms: N_7  and  C_8
REMARK    4  A    between atoms: C_21  and  O_22
REMARK    5  A    between atoms: O_22  and  C_23
REMARK    6  A    between atoms: C_23  and  C_24
REMARK    7  A    between atoms: C_24  and  N_25
REMARK    8  A    between atoms: N_28  and  C_29
REMARK                            x       y       z     vdW  Elec       q    Type
REMARK                         _______ _______ _______ _____ _____    ______ ____
ROOT
ATOM      1  C   UNL     1       0.424  10.094  21.852  0.00  0.00    +0.000 A 
ATOM      2  C   UNL     1       1.069   8.914  21.456  0.00  0.00    +0.000 A 
ATOM      3  C   UNL     1       1.514   8.730  20.123  0.00  0.00    +0.000 A 
ATOM      4  C   UNL     1       2.141   7.583  19.614  0.00  0.00    +0.000 A 
ATOM      5  N   UNL     1       2.336   6.453  20.455  0.00  0.00    +0.000 N 
ATOM      6  N   UNL     1       2.546   7.498  18.330  0.00  0.00    +0.000 NA
ATOM      7  C   UNL     1       2.313   8.548  17.546  0.00  0.00    +0.000 A 
ATOM      8  N   UNL     1       1.702   9.671  17.916  0.00  0.00    +0.000 NA
ATOM      9  C   UNL     1       1.307   9.742  19.189  0.00  0.00    +0.000 A 
ATOM     10  C   UNL     1       0.613  10.870  19.579  0.00  0.00    +0.000 A 
ATOM     11  C   UNL     1       0.092  11.042  20.877  0.00  0.00    +0.000 A 
ATOM     12  H   UNL     1       2.931   6.705  21.239  0.00  0.00    +0.000 HD
ENDROOT
BRANCH   5  13
ATOM     13  C   UNL     1       2.658   5.169  19.947  0.00  0.00    +0.000 A 
ATOM     14  C   UNL     1       3.947   4.888  19.472  0.00  0.00    +0.000 A 
ATOM     15  C   UNL     1       4.292   3.599  19.074  0.00  0.00    +0.000 A 
ATOM     16  C   UNL     1       3.338   2.585  19.124  0.00  0.00    +0.000 A 
ATOM     17 CL   UNL     1       3.785   0.980  18.696  0.00  0.00    +0.000 Cl
ATOM     18  C   UNL     1       2.033   2.857  19.530  0.00  0.00    +0.000 A 
ATOM     19  C   UNL     1       1.704   4.144  19.928  0.00  0.00    +0.000 A 
ATOM     20  F   UNL     1       0.454   4.405  20.348  0.00  0.00    +0.000 F 
ENDBRANCH   5  13
BRANCH   1  22
ATOM     21  C   UNL     1      -1.321  10.522  23.388  0.00  0.00    +0.000 C 
ATOM     22  O   UNL     1       0.079  10.335  23.157  0.00  0.00    +0.000 OA
ENDBRANCH   1  22
BRANCH  11  23
ATOM     23  O   UNL     1      -0.765  12.093  21.193  0.00  0.00    +0.000 OA
BRANCH  23  24
ATOM     24  C   UNL     1      -1.742  12.288  20.154  0.00  0.00    +0.000 C 
BRANCH  24  25
ATOM     25  C   UNL     1      -2.853  13.321  20.401  0.00  0.00    +0.000 C 
BRANCH  25  26
ATOM     26  N   UNL     1      -3.803  12.832  21.440  0.00  0.00    +0.000 NA
ATOM     27  C   UNL     1      -5.206  12.976  21.012  0.00  0.00    +0.000 C 
ATOM     28  C   UNL     1      -6.220  12.544  22.108  0.00  0.00    +0.000 C 
ATOM     29  N   UNL     1      -6.041  13.183  23.427  0.00  0.00    +0.000 NA
ATOM     30  C   UNL     1      -6.452  14.585  23.420  0.00  0.00    +0.000 C 
ATOM     31  C   UNL     1      -4.634  13.042  23.828  0.00  0.00    +0.000 C 
ATOM     32  C   UNL     1      -3.610  13.479  22.757  0.00  0.00    +0.000 C 
ENDBRANCH  25  26
ENDBRANCH  24  25
ENDBRANCH  23  24
ENDBRANCH  11  23
TORSDOF 6
ENDMDL
