MODEL 1
REMARK VINA RESULT:      -7.3      0.000      0.000
REMARK  Name = 
REMARK  2 active torsions:
REMARK  status: ('A' for Active; 'I' for Inactive)
REMARK    1  A    between atoms: C_2  and  C_15
REMARK    2  A    between atoms: C_7  and  C_8
REMARK                            x       y       z     vdW  Elec       q    Type
REMARK                         _______ _______ _______ _____ _____    ______ ____
ROOT
ATOM      1  O   UNL     1       1.474   8.882  19.250  0.00  0.00    +0.000 OA
ATOM      2  C   UNL     1       1.213   8.550  20.402  0.00  0.00    +0.000 C 
ATOM      3  N   UNL     1       1.501   7.317  20.937  0.00  0.00    +0.000 N 
ATOM      4  C   UNL     1       2.175   6.342  20.269  0.00  0.00    +0.000 A 
ATOM      5  N   UNL     1       2.341   5.103  20.674  0.00  0.00    +0.000 NA
ATOM      6  N   UNL     1       3.112   4.478  19.716  0.00  0.00    +0.000 NA
ATOM      7  C   UNL     1       3.388   5.394  18.806  0.00  0.00    +0.000 A 
ATOM      8  O   UNL     1       2.811   6.604  19.091  0.00  0.00    +0.000 OA
ATOM      9  H   UNL     1       1.156   7.068  21.851  0.00  0.00    +0.000 HD
ENDROOT
BRANCH   7  10
ATOM     10  C   UNL     1       4.215   5.301  17.613  0.00  0.00    +0.000 A 
ATOM     11  C   UNL     1       4.601   6.468  16.948  0.00  0.00    +0.000 A 
ATOM     12  C   UNL     1       5.373   6.359  15.804  0.00  0.00    +0.000 A 
ATOM     13  N   UNL     1       5.782   5.182  15.289  0.00  0.00    +0.000 NA
ATOM     14  C   UNL     1       5.402   4.063  15.943  0.00  0.00    +0.000 A 
ATOM     15  C   UNL     1       4.630   4.070  17.093  0.00  0.00    +0.000 A 
ENDBRANCH   7  10
BRANCH   2  16
ATOM     16  C   UNL     1       0.515   9.457  21.313  0.00  0.00    +0.000 A 
ATOM     17  C   UNL     1      -0.113   9.119  22.502  0.00  0.00    +0.000 A 
ATOM     18  C   UNL     1      -0.730  10.237  23.140  0.00  0.00    +0.000 A 
ATOM     19  C   UNL     1      -0.554  11.380  22.405  0.00  0.00    +0.000 A 
ATOM     20 BR   UNL     1      -1.246  13.049  22.903  0.00  0.00    +0.000 Br
ATOM     21  S   UNL     1       0.351  11.139  20.995  0.00  0.00    +0.000 S 
ENDBRANCH   2  16
TORSDOF 2
ENDMDL
MODEL 2
REMARK VINA RESULT:      -7.3      0.086      1.053
REMARK  Name = 
REMARK  2 active torsions:
REMARK  status: ('A' for Active; 'I' for Inactive)
REMARK    1  A    between atoms: C_2  and  C_15
REMARK    2  A    between atoms: C_7  and  C_8
REMARK                            x       y       z     vdW  Elec       q    Type
REMARK                         _______ _______ _______ _____ _____    ______ ____
ROOT
ATOM      1  O   UNL     1       1.438   8.910  19.272  0.00  0.00    +0.000 OA
ATOM      2  C   UNL     1       1.171   8.578  20.423  0.00  0.00    +0.000 C 
ATOM      3  N   UNL     1       1.456   7.345  20.959  0.00  0.00    +0.000 N 
ATOM      4  C   UNL     1       2.132   6.369  20.294  0.00  0.00    +0.000 A 
ATOM      5  N   UNL     1       2.295   5.129  20.700  0.00  0.00    +0.000 NA
ATOM      6  N   UNL     1       3.070   4.504  19.746  0.00  0.00    +0.000 NA
ATOM      7  C   UNL     1       3.351   5.420  18.837  0.00  0.00    +0.000 A 
ATOM      8  O   UNL     1       2.774   6.630  19.119  0.00  0.00    +0.000 OA
ATOM      9  H   UNL     1       1.106   7.096  21.872  0.00  0.00    +0.000 HD
ENDROOT
BRANCH   7  10
ATOM     10  C   UNL     1       4.183   5.326  17.648  0.00  0.00    +0.000 A 
ATOM     11  C   UNL     1       4.671   4.080  17.243  0.00  0.00    +0.000 A 
ATOM     12  C   UNL     1       5.476   4.012  16.120  0.00  0.00    +0.000 A 
ATOM     13  N   UNL     1       5.820   5.087  15.381  0.00  0.00    +0.000 NA
ATOM     14  C   UNL     1       5.340   6.283  15.783  0.00  0.00    +0.000 A 
ATOM     15  C   UNL     1       4.529   6.452  16.894  0.00  0.00    +0.000 A 
ENDBRANCH   7  10
BRANCH   2  16
ATOM     16  C   UNL     1       0.470   9.486  21.331  0.00  0.00    +0.000 A 
ATOM     17  C   UNL     1      -0.188   9.144  22.502  0.00  0.00    +0.000 A 
ATOM     18  C   UNL     1      -0.799  10.264  23.142  0.00  0.00    +0.000 A 
ATOM     19  C   UNL     1      -0.588  11.413  22.425  0.00  0.00    +0.000 A 
ATOM     20 BR   UNL     1      -1.262  13.087  22.930  0.00  0.00    +0.000 Br
ATOM     21  S   UNL     1       0.342  11.174  21.031  0.00  0.00    +0.000 S 
ENDBRANCH   2  16
TORSDOF 2
ENDMDL
MODEL 3
REMARK VINA RESULT:      -7.2      1.229      1.349
REMARK  Name = 
REMARK  2 active torsions:
REMARK  status: ('A' for Active; 'I' for Inactive)
REMARK    1  A    between atoms: C_2  and  C_15
REMARK    2  A    between atoms: C_7  and  C_8
REMARK                            x       y       z     vdW  Elec       q    Type
REMARK                         _______ _______ _______ _____ _____    ______ ____
ROOT
ATOM      1  O   UNL     1       2.320   8.279  19.045  0.00  0.00    +0.000 OA
ATOM      2  C   UNL     1       1.797   7.949  20.105  0.00  0.00    +0.000 C 
ATOM      3  N   UNL     1       1.886   6.693  20.654  0.00  0.00    +0.000 N 
ATOM      4  C   UNL     1       2.627   5.684  20.119  0.00  0.00    +0.000 A 
ATOM      5  N   UNL     1       2.624   4.431  20.515  0.00  0.00    +0.000 NA
ATOM      6  N   UNL     1       3.543   3.770  19.727  0.00  0.00    +0.000 NA
ATOM      7  C   UNL     1       4.064   4.678  18.922  0.00  0.00    +0.000 A 
ATOM      8  O   UNL     1       3.516   5.919  19.111  0.00  0.00    +0.000 OA
ATOM      9  H   UNL     1       1.338   6.454  21.466  0.00  0.00    +0.000 HD
ENDROOT
BRANCH   7  10
ATOM     10  C   UNL     1       5.120   4.546  17.931  0.00  0.00    +0.000 A 
ATOM     11  C   UNL     1       6.443   4.816  18.293  0.00  0.00    +0.000 A 
ATOM     12  C   UNL     1       7.433   4.703  17.332  0.00  0.00    +0.000 A 
ATOM     13  N   UNL     1       7.197   4.341  16.055  0.00  0.00    +0.000 NA
ATOM     14  C   UNL     1       5.914   4.082  15.721  0.00  0.00    +0.000 A 
ATOM     15  C   UNL     1       4.855   4.169  16.611  0.00  0.00    +0.000 A 
ENDBRANCH   7  10
BRANCH   2  16
ATOM     16  C   UNL     1       0.978   8.888  20.871  0.00  0.00    +0.000 A 
ATOM     17  C   UNL     1       0.737   8.858  22.236  0.00  0.00    +0.000 A 
ATOM     18  C   UNL     1      -0.135   9.902  22.668  0.00  0.00    +0.000 A 
ATOM     19  C   UNL     1      -0.529  10.681  21.611  0.00  0.00    +0.000 A 
ATOM     20 BR   UNL     1      -1.700  12.134  21.776  0.00  0.00    +0.000 Br
ATOM     21  S   UNL     1       0.143  10.199  20.135  0.00  0.00    +0.000 S 
ENDBRANCH   2  16
TORSDOF 2
ENDMDL
MODEL 4
REMARK VINA RESULT:      -7.2      1.172      1.288
REMARK  Name = 
REMARK  2 active torsions:
REMARK  status: ('A' for Active; 'I' for Inactive)
REMARK    1  A    between atoms: C_2  and  C_15
REMARK    2  A    between atoms: C_7  and  C_8
REMARK                            x       y       z     vdW  Elec       q    Type
REMARK                         _______ _______ _______ _____ _____    ______ ____
ROOT
ATOM      1  O   UNL     1       2.282   8.316  19.082  0.00  0.00    +0.000 OA
ATOM      2  C   UNL     1       1.790   7.919  20.134  0.00  0.00    +0.000 C 
ATOM      3  N   UNL     1       1.938   6.643  20.624  0.00  0.00    +0.000 N 
ATOM      4  C   UNL     1       2.709   5.690  20.033  0.00  0.00    +0.000 A 
ATOM      5  N   UNL     1       2.763   4.422  20.373  0.00  0.00    +0.000 NA
ATOM      6  N   UNL     1       3.695   3.834  19.542  0.00  0.00    +0.000 NA
ATOM      7  C   UNL     1       4.166   4.797  18.772  0.00  0.00    +0.000 A 
ATOM      8  O   UNL     1       3.572   6.006  19.025  0.00  0.00    +0.000 OA
ATOM      9  H   UNL     1       1.412   6.347  21.432  0.00  0.00    +0.000 HD
ENDROOT
BRANCH   7  10
ATOM     10  C   UNL     1       5.211   4.753  17.762  0.00  0.00    +0.000 A 
ATOM     11  C   UNL     1       4.863   4.748  16.408  0.00  0.00    +0.000 A 
ATOM     12  C   UNL     1       5.870   4.687  15.461  0.00  0.00    +0.000 A 
ATOM     13  N   UNL     1       7.182   4.636  15.768  0.00  0.00    +0.000 NA
ATOM     14  C   UNL     1       7.503   4.643  17.079  0.00  0.00    +0.000 A 
ATOM     15  C   UNL     1       6.567   4.700  18.100  0.00  0.00    +0.000 A 
ENDBRANCH   7  10
BRANCH   2  16
ATOM     16  C   UNL     1       0.946   8.788  20.953  0.00  0.00    +0.000 A 
ATOM     17  C   UNL     1       0.233   8.426  22.085  0.00  0.00    +0.000 A 
ATOM     18  C   UNL     1      -0.519   9.507  22.635  0.00  0.00    +0.000 A 
ATOM     19  C   UNL     1      -0.356  10.647  21.892  0.00  0.00    +0.000 A 
ATOM     20 BR   UNL     1      -1.208  12.269  22.283  0.00  0.00    +0.000 Br
ATOM     21  S   UNL     1       0.694  10.448  20.580  0.00  0.00    +0.000 S 
ENDBRANCH   2  16
TORSDOF 2
ENDMDL
MODEL 5
REMARK VINA RESULT:      -7.1      4.253      8.195
REMARK  Name = 
REMARK  2 active torsions:
REMARK  status: ('A' for Active; 'I' for Inactive)
REMARK    1  A    between atoms: C_2  and  C_15
REMARK    2  A    between atoms: C_7  and  C_8
REMARK                            x       y       z     vdW  Elec       q    Type
REMARK                         _______ _______ _______ _____ _____    ______ ____
ROOT
ATOM      1  O   UNL     1       2.373   6.292  19.163  0.00  0.00    +0.000 OA
ATOM      2  C   UNL     1       2.961   6.694  18.164  0.00  0.00    +0.000 C 
ATOM      3  N   UNL     1       2.822   7.957  17.640  0.00  0.00    +0.000 N 
ATOM      4  C   UNL     1       2.067   8.934  18.212  0.00  0.00    +0.000 A 
ATOM      5  N   UNL     1       1.780  10.100  17.676  0.00  0.00    +0.000 NA
ATOM      6  N   UNL     1       1.030  10.785  18.610  0.00  0.00    +0.000 NA
ATOM      7  C   UNL     1       0.939   9.996  19.665  0.00  0.00    +0.000 A 
ATOM      8  O   UNL     1       1.569   8.794  19.474  0.00  0.00    +0.000 OA
ATOM      9  H   UNL     1       3.242   8.187  16.753  0.00  0.00    +0.000 HD
ENDROOT
BRANCH   7  10
ATOM     10  C   UNL     1       0.317  10.238  20.957  0.00  0.00    +0.000 A 
ATOM     11  C   UNL     1       0.395   9.262  21.954  0.00  0.00    +0.000 A 
ATOM     12  C   UNL     1      -0.219   9.502  23.172  0.00  0.00    +0.000 A 
ATOM     13  N   UNL     1      -0.892  10.635  23.458  0.00  0.00    +0.000 NA
ATOM     14  C   UNL     1      -0.957  11.569  22.485  0.00  0.00    +0.000 A 
ATOM     15  C   UNL     1      -0.377  11.420  21.235  0.00  0.00    +0.000 A 
ENDBRANCH   7  10
BRANCH   2  16
ATOM     16  C   UNL     1       3.854   5.819  17.405  0.00  0.00    +0.000 A 
ATOM     17  C   UNL     1       3.906   4.435  17.464  0.00  0.00    +0.000 A 
ATOM     18  C   UNL     1       4.914   3.882  16.618  0.00  0.00    +0.000 A 
ATOM     19  C   UNL     1       5.595   4.870  15.956  0.00  0.00    +0.000 A 
ATOM     20 BR   UNL     1       7.013   4.539  14.776  0.00  0.00    +0.000 Br
ATOM     21  S   UNL     1       5.032   6.426  16.310  0.00  0.00    +0.000 S 
ENDBRANCH   2  16
TORSDOF 2
ENDMDL
MODEL 6
REMARK VINA RESULT:      -7.1      4.250      8.144
REMARK  Name = 
REMARK  2 active torsions:
REMARK  status: ('A' for Active; 'I' for Inactive)
REMARK    1  A    between atoms: C_2  and  C_15
REMARK    2  A    between atoms: C_7  and  C_8
REMARK                            x       y       z     vdW  Elec       q    Type
REMARK                         _______ _______ _______ _____ _____    ______ ____
ROOT
ATOM      1  O   UNL     1       2.297   6.300  19.161  0.00  0.00    +0.000 OA
ATOM      2  C   UNL     1       2.908   6.705  18.177  0.00  0.00    +0.000 C 
ATOM      3  N   UNL     1       2.796   7.975  17.664  0.00  0.00    +0.000 N 
ATOM      4  C   UNL     1       2.045   8.957  18.233  0.00  0.00    +0.000 A 
ATOM      5  N   UNL     1       1.783  10.132  17.705  0.00  0.00    +0.000 NA
ATOM      6  N   UNL     1       1.027  10.818  18.633  0.00  0.00    +0.000 NA
ATOM      7  C   UNL     1       0.907  10.019  19.677  0.00  0.00    +0.000 A 
ATOM      8  O   UNL     1       1.524   8.810  19.485  0.00  0.00    +0.000 OA
ATOM      9  H   UNL     1       3.234   8.208  16.786  0.00  0.00    +0.000 HD
ENDROOT
BRANCH   7  10
ATOM     10  C   UNL     1       0.266  10.257  20.961  0.00  0.00    +0.000 A 
ATOM     11  C   UNL     1      -0.412  11.459  21.182  0.00  0.00    +0.000 A 
ATOM     12  C   UNL     1      -1.001  11.676  22.415  0.00  0.00    +0.000 A 
ATOM     13  N   UNL     1      -0.963  10.786  23.428  0.00  0.00    +0.000 NA
ATOM     14  C   UNL     1      -0.305   9.628  23.199  0.00  0.00    +0.000 A 
ATOM     15  C   UNL     1       0.317   9.322  21.999  0.00  0.00    +0.000 A 
ENDBRANCH   7  10
BRANCH   2  16
ATOM     16  C   UNL     1       3.801   5.824  17.424  0.00  0.00    +0.000 A 
ATOM     17  C   UNL     1       3.822   4.439  17.457  0.00  0.00    +0.000 A 
ATOM     18  C   UNL     1       4.840   3.880  16.627  0.00  0.00    +0.000 A 
ATOM     19  C   UNL     1       5.559   4.865  16.001  0.00  0.00    +0.000 A 
ATOM     20 BR   UNL     1       6.999   4.526  14.852  0.00  0.00    +0.000 Br
ATOM     21  S   UNL     1       5.019   6.427  16.371  0.00  0.00    +0.000 S 
ENDBRANCH   2  16
TORSDOF 2
ENDMDL
MODEL 7
REMARK VINA RESULT:      -7.1      1.508      1.797
REMARK  Name = 
REMARK  2 active torsions:
REMARK  status: ('A' for Active; 'I' for Inactive)
REMARK    1  A    between atoms: C_2  and  C_15
REMARK    2  A    between atoms: C_7  and  C_8
REMARK                            x       y       z     vdW  Elec       q    Type
REMARK                         _______ _______ _______ _____ _____    ______ ____
ROOT
ATOM      1  O   UNL     1       2.347   8.518  18.326  0.00  0.00    +0.000 OA
ATOM      2  C   UNL     1       1.803   8.325  19.409  0.00  0.00    +0.000 C 
ATOM      3  N   UNL     1       1.920   7.166  20.138  0.00  0.00    +0.000 N 
ATOM      4  C   UNL     1       2.713   6.121  19.776  0.00  0.00    +0.000 A 
ATOM      5  N   UNL     1       2.742   4.939  20.352  0.00  0.00    +0.000 NA
ATOM      6  N   UNL     1       3.709   4.208  19.693  0.00  0.00    +0.000 NA
ATOM      7  C   UNL     1       4.223   5.010  18.779  0.00  0.00    +0.000 A 
ATOM      8  O   UNL     1       3.624   6.243  18.769  0.00  0.00    +0.000 OA
ATOM      9  H   UNL     1       1.354   7.026  20.962  0.00  0.00    +0.000 HD
ENDROOT
BRANCH   7  10
ATOM     10  C   UNL     1       5.314   4.778  17.846  0.00  0.00    +0.000 A 
ATOM     11  C   UNL     1       6.634   4.808  18.306  0.00  0.00    +0.000 A 
ATOM     12  C   UNL     1       7.661   4.604  17.402  0.00  0.00    +0.000 A 
ATOM     13  N   UNL     1       7.463   4.371  16.088  0.00  0.00    +0.000 NA
ATOM     14  C   UNL     1       6.183   4.344  15.658  0.00  0.00    +0.000 A 
ATOM     15  C   UNL     1       5.090   4.539  16.486  0.00  0.00    +0.000 A 
ENDBRANCH   7  10
BRANCH   2  16
ATOM     16  C   UNL     1       0.926   9.331  20.007  0.00  0.00    +0.000 A 
ATOM     17  C   UNL     1       0.401  10.452  19.382  0.00  0.00    +0.000 A 
ATOM     18  C   UNL     1      -0.394  11.252  20.256  0.00  0.00    +0.000 A 
ATOM     19  C   UNL     1      -0.435  10.712  21.515  0.00  0.00    +0.000 A 
ATOM     20 BR   UNL     1      -1.356  11.492  22.948  0.00  0.00    +0.000 Br
ATOM     21  S   UNL     1       0.433   9.265  21.653  0.00  0.00    +0.000 S 
ENDBRANCH   2  16
TORSDOF 2
ENDMDL
MODEL 8
REMARK VINA RESULT:      -7.0      1.481      1.790
REMARK  Name = 
REMARK  2 active torsions:
REMARK  status: ('A' for Active; 'I' for Inactive)
REMARK    1  A    between atoms: C_2  and  C_15
REMARK    2  A    between atoms: C_7  and  C_8
REMARK                            x       y       z     vdW  Elec       q    Type
REMARK                         _______ _______ _______ _____ _____    ______ ____
ROOT
ATOM      1  O   UNL     1       2.285   8.533  18.502  0.00  0.00    +0.000 OA
ATOM      2  C   UNL     1       1.708   8.315  19.563  0.00  0.00    +0.000 C 
ATOM      3  N   UNL     1       1.810   7.143  20.273  0.00  0.00    +0.000 N 
ATOM      4  C   UNL     1       2.621   6.110  19.916  0.00  0.00    +0.000 A 
ATOM      5  N   UNL     1       2.640   4.918  20.469  0.00  0.00    +0.000 NA
ATOM      6  N   UNL     1       3.633   4.206  19.828  0.00  0.00    +0.000 NA
ATOM      7  C   UNL     1       4.169   5.028  18.946  0.00  0.00    +0.000 A 
ATOM      8  O   UNL     1       3.563   6.257  18.941  0.00  0.00    +0.000 OA
ATOM      9  H   UNL     1       1.220   6.983  21.076  0.00  0.00    +0.000 HD
ENDROOT
BRANCH   7  10
ATOM     10  C   UNL     1       5.291   4.822  18.044  0.00  0.00    +0.000 A 
ATOM     11  C   UNL     1       5.053   4.427  16.724  0.00  0.00    +0.000 A 
ATOM     12  C   UNL     1       6.134   4.218  15.885  0.00  0.00    +0.000 A 
ATOM     13  N   UNL     1       7.418   4.378  16.267  0.00  0.00    +0.000 NA
ATOM     14  C   UNL     1       7.632   4.761  17.544  0.00  0.00    +0.000 A 
ATOM     15  C   UNL     1       6.616   4.993  18.458  0.00  0.00    +0.000 A 
ENDBRANCH   7  10
BRANCH   2  16
ATOM     16  C   UNL     1       0.806   9.304  20.153  0.00  0.00    +0.000 A 
ATOM     17  C   UNL     1       0.244  10.399  19.516  0.00  0.00    +0.000 A 
ATOM     18  C   UNL     1      -0.569  11.188  20.383  0.00  0.00    +0.000 A 
ATOM     19  C   UNL     1      -0.586  10.666  21.650  0.00  0.00    +0.000 A 
ATOM     20 BR   UNL     1      -1.519  11.440  23.078  0.00  0.00    +0.000 Br
ATOM     21  S   UNL     1       0.326   9.248  21.803  0.00  0.00    +0.000 S 
ENDBRANCH   2  16
TORSDOF 2
ENDMDL
MODEL 9
REMARK VINA RESULT:      -7.0      6.839      7.255
REMARK  Name = 
REMARK  2 active torsions:
REMARK  status: ('A' for Active; 'I' for Inactive)
REMARK    1  A    between atoms: C_2  and  C_15
REMARK    2  A    between atoms: C_7  and  C_8
REMARK                            x       y       z     vdW  Elec       q    Type
REMARK                         _______ _______ _______ _____ _____    ______ ____
ROOT
ATOM      1  O   UNL     1       7.896   9.363  17.435  0.00  0.00    +0.000 OA
ATOM      2  C   UNL     1       8.568   9.199  18.449  0.00  0.00    +0.000 C 
ATOM      3  N   UNL     1       8.683   8.004  19.117  0.00  0.00    +0.000 N 
ATOM      4  C   UNL     1       8.118   6.842  18.689  0.00  0.00    +0.000 A 
ATOM      5  N   UNL     1       8.069   5.714  19.364  0.00  0.00    +0.000 NA
ATOM      6  N   UNL     1       7.447   4.796  18.544  0.00  0.00    +0.000 NA
ATOM      7  C   UNL     1       7.188   5.423  17.411  0.00  0.00    +0.000 A 
ATOM      8  O   UNL     1       7.580   6.736  17.440  0.00  0.00    +0.000 OA
ATOM      9  H   UNL     1       9.155   7.964  20.007  0.00  0.00    +0.000 HD
ENDROOT
BRANCH   7  10
ATOM     10  C   UNL     1       6.601   4.917  16.181  0.00  0.00    +0.000 A 
ATOM     11  C   UNL     1       7.344   4.949  14.997  0.00  0.00    +0.000 A 
ATOM     12  C   UNL     1       6.762   4.480  13.832  0.00  0.00    +0.000 A 
ATOM     13  N   UNL     1       5.509   3.986  13.770  0.00  0.00    +0.000 NA
ATOM     14  C   UNL     1       4.804   3.961  14.921  0.00  0.00    +0.000 A 
ATOM     15  C   UNL     1       5.299   4.409  16.136  0.00  0.00    +0.000 A 
ENDBRANCH   7  10
BRANCH   2  16
ATOM     16  C   UNL     1       9.290  10.311  19.068  0.00  0.00    +0.000 A 
ATOM     17  C   UNL     1       9.347  10.614  20.419  0.00  0.00    +0.000 A 
ATOM     18  C   UNL     1      10.113  11.786  20.693  0.00  0.00    +0.000 A 
ATOM     19  C   UNL     1      10.602  12.334  19.535  0.00  0.00    +0.000 A 
ATOM     20 BR   UNL     1      11.631  13.899  19.484  0.00  0.00    +0.000 Br
ATOM     21  S   UNL     1      10.182  11.458  18.149  0.00  0.00    +0.000 S 
ENDBRANCH   2  16
TORSDOF 2
ENDMDL
