MODEL 1
REMARK VINA RESULT:      -8.1      0.000      0.000
REMARK  Name = 
REMARK  8 active torsions:
REMARK  status: ('A' for Active; 'I' for Inactive)
REMARK    1  A    between atoms: C_1  and  C_2
REMARK    2  A    between atoms: C_2  and  O_3
REMARK    3  A    between atoms: O_3  and  C_4
REMARK    4  A    between atoms: C_4  and  C_6
REMARK    5  A    between atoms: C_10  and  O_11
REMARK    6  A    between atoms: O_11  and  C_12
REMARK    7  A    between atoms: C_12  and  C_13
REMARK    8  A    between atoms: N_15  and  N_16
REMARK                            x       y       z     vdW  Elec       q    Type
REMARK                         _______ _______ _______ _____ _____    ______ ____
ROOT
ATOM      1  C   UNL     1       2.779   5.979  18.409  0.00  0.00    +0.000 A 
ATOM      2  C   UNL     1       3.787   5.707  17.419  0.00  0.00    +0.000 A 
ATOM      3  C   UNL     1       4.619   6.523  16.619  0.00  0.00    +0.000 A 
ATOM      4  C   UNL     1       5.536   5.952  15.735  0.00  0.00    +0.000 A 
ATOM      5  C   UNL     1       5.651   4.572  15.639  0.00  0.00    +0.000 A 
ATOM      6  C   UNL     1       4.798   3.737  16.370  0.00  0.00    +0.000 A 
ATOM      7  C   UNL     1       3.880   4.320  17.266  0.00  0.00    +0.000 A 
ATOM      8  N   UNL     1       2.947   3.743  18.118  0.00  0.00    +0.000 N 
ATOM      9  C   UNL     1       2.662   2.385  18.299  0.00  0.00    +0.000 A 
ATOM     10  C   UNL     1       1.708   2.013  19.170  0.00  0.00    +0.000 A 
ATOM     11  C   UNL     1       0.992   3.036  19.908  0.00  0.00    +0.000 A 
ATOM     12  C   UNL     1       1.267   4.344  19.740  0.00  0.00    +0.000 A 
ATOM     13  C   UNL     1       2.283   4.748  18.814  0.00  0.00    +0.000 A 
ENDROOT
BRANCH   1  14
ATOM     14  C   UNL     1       2.301   7.276  18.878  0.00  0.00    +0.000 C 
ATOM     15  O   UNL     1       2.259   7.608  20.057  0.00  0.00    +0.000 OA
BRANCH  14  16
ATOM     16  O   UNL     1       1.825   8.046  17.858  0.00  0.00    +0.000 OA
BRANCH  16  18
ATOM     17  C   UNL     1       0.403   9.925  18.230  0.00  0.00    +0.000 C 
ATOM     18  C   UNL     1       1.840   9.459  18.082  0.00  0.00    +0.000 C 
ENDBRANCH  16  18
ENDBRANCH  14  16
ENDBRANCH   1  14
BRANCH   5  19
ATOM     19  O   UNL     1       6.565   3.927  14.847  0.00  0.00    +0.000 OA
BRANCH  19  20
ATOM     20  C   UNL     1       6.607   4.366  13.488  0.00  0.00    +0.000 C 
BRANCH  20  21
ATOM     21  C   UNL     1       5.870   3.399  12.569  0.00  0.00    +0.000 C 
ATOM     22  O   UNL     1       4.687   3.546  12.262  0.00  0.00    +0.000 OA
ATOM     23  N   UNL     1       6.650   2.347  12.111  0.00  0.00    +0.000 N 
ATOM     24  H   UNL     1       7.655   2.381  12.288  0.00  0.00    +0.000 HD
BRANCH  23  25
ATOM     25  N   UNL     1       6.127   1.442  11.167  0.00  0.00    +0.000 NA
ATOM     26  H   UNL     1       5.516   0.791  11.682  0.00  0.00    +0.000 HD
ATOM     27  H   UNL     1       6.897   0.852  10.841  0.00  0.00    +0.000 HD
ENDBRANCH  23  25
ENDBRANCH  20  21
ENDBRANCH  19  20
ENDBRANCH   5  19
TORSDOF 7
ENDMDL
MODEL 2
REMARK VINA RESULT:      -7.9      1.610      1.723
REMARK  Name = 
REMARK  8 active torsions:
REMARK  status: ('A' for Active; 'I' for Inactive)
REMARK    1  A    between atoms: C_1  and  C_2
REMARK    2  A    between atoms: C_2  and  O_3
REMARK    3  A    between atoms: O_3  and  C_4
REMARK    4  A    between atoms: C_4  and  C_6
REMARK    5  A    between atoms: C_10  and  O_11
REMARK    6  A    between atoms: O_11  and  C_12
REMARK    7  A    between atoms: C_12  and  C_13
REMARK    8  A    between atoms: N_15  and  N_16
REMARK                            x       y       z     vdW  Elec       q    Type
REMARK                         _______ _______ _______ _____ _____    ______ ____
ROOT
ATOM      1  C   UNL     1       2.642   6.312  18.905  0.00  0.00    +0.000 A 
ATOM      2  C   UNL     1       3.614   5.994  17.893  0.00  0.00    +0.000 A 
ATOM      3  C   UNL     1       4.339   6.763  16.955  0.00  0.00    +0.000 A 
ATOM      4  C   UNL     1       5.248   6.154  16.088  0.00  0.00    +0.000 A 
ATOM      5  C   UNL     1       5.460   4.784  16.144  0.00  0.00    +0.000 A 
ATOM      6  C   UNL     1       4.712   3.985  17.018  0.00  0.00    +0.000 A 
ATOM      7  C   UNL     1       3.802   4.608  17.895  0.00  0.00    +0.000 A 
ATOM      8  N   UNL     1       2.961   4.075  18.864  0.00  0.00    +0.000 N 
ATOM      9  C   UNL     1       2.788   2.732  19.217  0.00  0.00    +0.000 A 
ATOM     10  C   UNL     1       1.912   2.402  20.182  0.00  0.00    +0.000 A 
ATOM     11  C   UNL     1       1.162   3.455  20.840  0.00  0.00    +0.000 A 
ATOM     12  C   UNL     1       1.330   4.749  20.506  0.00  0.00    +0.000 A 
ATOM     13  C   UNL     1       2.262   5.108  19.479  0.00  0.00    +0.000 A 
ENDROOT
BRANCH   1  14
ATOM     14  C   UNL     1       2.095   7.621  19.251  0.00  0.00    +0.000 C 
ATOM     15  O   UNL     1       1.913   8.009  20.398  0.00  0.00    +0.000 OA
BRANCH  14  16
ATOM     16  O   UNL     1       1.727   8.330  18.145  0.00  0.00    +0.000 OA
BRANCH  16  18
ATOM     17  C   UNL     1       0.081  10.047  18.329  0.00  0.00    +0.000 C 
ATOM     18  C   UNL     1       1.567   9.740  18.331  0.00  0.00    +0.000 C 
ENDBRANCH  16  18
ENDBRANCH  14  16
ENDBRANCH   1  14
BRANCH   5  19
ATOM     19  O   UNL     1       6.376   4.113  15.377  0.00  0.00    +0.000 OA
BRANCH  19  20
ATOM     20  C   UNL     1       6.079   4.065  13.980  0.00  0.00    +0.000 C 
BRANCH  20  21
ATOM     21  C   UNL     1       7.233   4.614  13.148  0.00  0.00    +0.000 C 
ATOM     22  O   UNL     1       7.385   4.335  11.959  0.00  0.00    +0.000 OA
ATOM     23  N   UNL     1       8.089   5.452  13.849  0.00  0.00    +0.000 N 
ATOM     24  H   UNL     1       7.809   5.751  14.785  0.00  0.00    +0.000 HD
BRANCH  23  25
ATOM     25  N   UNL     1       9.131   6.116  13.175  0.00  0.00    +0.000 NA
ATOM     26  H   UNL     1       9.654   6.651  13.885  0.00  0.00    +0.000 HD
ATOM     27  H   UNL     1       8.711   6.837  12.583  0.00  0.00    +0.000 HD
ENDBRANCH  23  25
ENDBRANCH  20  21
ENDBRANCH  19  20
ENDBRANCH   5  19
TORSDOF 7
ENDMDL
MODEL 3
REMARK VINA RESULT:      -7.9      1.260      1.460
REMARK  Name = 
REMARK  8 active torsions:
REMARK  status: ('A' for Active; 'I' for Inactive)
REMARK    1  A    between atoms: C_1  and  C_2
REMARK    2  A    between atoms: C_2  and  O_3
REMARK    3  A    between atoms: O_3  and  C_4
REMARK    4  A    between atoms: C_4  and  C_6
REMARK    5  A    between atoms: C_10  and  O_11
REMARK    6  A    between atoms: O_11  and  C_12
REMARK    7  A    between atoms: C_12  and  C_13
REMARK    8  A    between atoms: N_15  and  N_16
REMARK                            x       y       z     vdW  Elec       q    Type
REMARK                         _______ _______ _______ _____ _____    ______ ____
ROOT
ATOM      1  C   UNL     1       2.628   6.259  18.787  0.00  0.00    +0.000 A 
ATOM      2  C   UNL     1       3.610   5.952  17.783  0.00  0.00    +0.000 A 
ATOM      3  C   UNL     1       4.396   6.737  16.908  0.00  0.00    +0.000 A 
ATOM      4  C   UNL     1       5.299   6.135  16.030  0.00  0.00    +0.000 A 
ATOM      5  C   UNL     1       5.446   4.755  16.013  0.00  0.00    +0.000 A 
ATOM      6  C   UNL     1       4.638   3.945  16.821  0.00  0.00    +0.000 A 
ATOM      7  C   UNL     1       3.734   4.560  17.710  0.00  0.00    +0.000 A 
ATOM      8  N   UNL     1       2.844   4.014  18.625  0.00  0.00    +0.000 N 
ATOM      9  C   UNL     1       2.599   2.664  18.896  0.00  0.00    +0.000 A 
ATOM     10  C   UNL     1       1.682   2.322  19.819  0.00  0.00    +0.000 A 
ATOM     11  C   UNL     1       0.965   3.371  20.517  0.00  0.00    +0.000 A 
ATOM     12  C   UNL     1       1.201   4.672  20.262  0.00  0.00    +0.000 A 
ATOM     13  C   UNL     1       2.177   5.044  19.281  0.00  0.00    +0.000 A 
ENDROOT
BRANCH   1  14
ATOM     14  C   UNL     1       2.132   7.571  19.193  0.00  0.00    +0.000 C 
ATOM     15  O   UNL     1       1.871   8.478  18.413  0.00  0.00    +0.000 OA
BRANCH  14  16
ATOM     16  O   UNL     1       2.076   7.698  20.550  0.00  0.00    +0.000 OA
BRANCH  16  18
ATOM     17  C   UNL     1      -0.056   8.284  21.448  0.00  0.00    +0.000 C 
ATOM     18  C   UNL     1       1.311   8.804  21.042  0.00  0.00    +0.000 C 
ENDBRANCH  16  18
ENDBRANCH  14  16
ENDBRANCH   1  14
BRANCH   5  19
ATOM     19  O   UNL     1       6.351   4.085  15.232  0.00  0.00    +0.000 OA
BRANCH  19  20
ATOM     20  C   UNL     1       6.920   4.852  14.168  0.00  0.00    +0.000 C 
BRANCH  20  21
ATOM     21  C   UNL     1       6.856   4.099  12.845  0.00  0.00    +0.000 C 
ATOM     22  O   UNL     1       7.418   4.500  11.825  0.00  0.00    +0.000 OA
ATOM     23  N   UNL     1       6.115   2.927  12.894  0.00  0.00    +0.000 N 
ATOM     24  H   UNL     1       5.810   2.589  13.809  0.00  0.00    +0.000 HD
BRANCH  23  25
ATOM     25  N   UNL     1       6.066   2.077  11.773  0.00  0.00    +0.000 NA
ATOM     26  H   UNL     1       6.433   1.162  12.074  0.00  0.00    +0.000 HD
ATOM     27  H   UNL     1       6.759   2.412  11.098  0.00  0.00    +0.000 HD
ENDBRANCH  23  25
ENDBRANCH  20  21
ENDBRANCH  19  20
ENDBRANCH   5  19
TORSDOF 7
ENDMDL
MODEL 4
REMARK VINA RESULT:      -7.9      1.775      2.055
REMARK  Name = 
REMARK  8 active torsions:
REMARK  status: ('A' for Active; 'I' for Inactive)
REMARK    1  A    between atoms: C_1  and  C_2
REMARK    2  A    between atoms: C_2  and  O_3
REMARK    3  A    between atoms: O_3  and  C_4
REMARK    4  A    between atoms: C_4  and  C_6
REMARK    5  A    between atoms: C_10  and  O_11
REMARK    6  A    between atoms: O_11  and  C_12
REMARK    7  A    between atoms: C_12  and  C_13
REMARK    8  A    between atoms: N_15  and  N_16
REMARK                            x       y       z     vdW  Elec       q    Type
REMARK                         _______ _______ _______ _____ _____    ______ ____
ROOT
ATOM      1  C   UNL     1       2.604   6.332  19.113  0.00  0.00    +0.000 A 
ATOM      2  C   UNL     1       3.653   6.089  18.159  0.00  0.00    +0.000 A 
ATOM      3  C   UNL     1       4.440   6.925  17.334  0.00  0.00    +0.000 A 
ATOM      4  C   UNL     1       5.419   6.382  16.499  0.00  0.00    +0.000 A 
ATOM      5  C   UNL     1       5.639   5.012  16.478  0.00  0.00    +0.000 A 
ATOM      6  C   UNL     1       4.835   4.151  17.234  0.00  0.00    +0.000 A 
ATOM      7  C   UNL     1       3.854   4.707  18.079  0.00  0.00    +0.000 A 
ATOM      8  N   UNL     1       2.947   4.104  18.942  0.00  0.00    +0.000 N 
ATOM      9  C   UNL     1       2.761   2.739  19.187  0.00  0.00    +0.000 A 
ATOM     10  C   UNL     1       1.817   2.338  20.057  0.00  0.00    +0.000 A 
ATOM     11  C   UNL     1       1.009   3.340  20.726  0.00  0.00    +0.000 A 
ATOM     12  C   UNL     1       1.189   4.655  20.496  0.00  0.00    +0.000 A 
ATOM     13  C   UNL     1       2.193   5.089  19.571  0.00  0.00    +0.000 A 
ENDROOT
BRANCH   1  14
ATOM     14  C   UNL     1       2.019   7.610  19.504  0.00  0.00    +0.000 C 
ATOM     15  O   UNL     1       1.877   8.562  18.746  0.00  0.00    +0.000 OA
BRANCH  14  16
ATOM     16  O   UNL     1       1.727   7.653  20.836  0.00  0.00    +0.000 OA
BRANCH  16  18
ATOM     17  C   UNL     1      -0.285   8.583  21.720  0.00  0.00    +0.000 C 
ATOM     18  C   UNL     1       1.148   8.873  21.310  0.00  0.00    +0.000 C 
ENDBRANCH  16  18
ENDBRANCH  14  16
ENDBRANCH   1  14
BRANCH   5  19
ATOM     19  O   UNL     1       6.618   4.400  15.739  0.00  0.00    +0.000 OA
BRANCH  19  20
ATOM     20  C   UNL     1       6.178   3.829  14.504  0.00  0.00    +0.000 C 
BRANCH  20  21
ATOM     21  C   UNL     1       6.964   4.388  13.323  0.00  0.00    +0.000 C 
ATOM     22  O   UNL     1       6.837   3.957  12.177  0.00  0.00    +0.000 OA
ATOM     23  N   UNL     1       7.828   5.423  13.656  0.00  0.00    +0.000 N 
ATOM     24  H   UNL     1       7.763   5.820  14.595  0.00  0.00    +0.000 HD
BRANCH  23  25
ATOM     25  N   UNL     1       8.531   6.104  12.645  0.00  0.00    +0.000 NA
ATOM     26  H   UNL     1       7.839   6.659  12.120  0.00  0.00    +0.000 HD
ATOM     27  H   UNL     1       8.856   5.409  11.968  0.00  0.00    +0.000 HD
ENDBRANCH  23  25
ENDBRANCH  20  21
ENDBRANCH  19  20
ENDBRANCH   5  19
TORSDOF 7
ENDMDL
MODEL 5
REMARK VINA RESULT:      -7.6      3.219      7.198
REMARK  Name = 
REMARK  8 active torsions:
REMARK  status: ('A' for Active; 'I' for Inactive)
REMARK    1  A    between atoms: C_1  and  C_2
REMARK    2  A    between atoms: C_2  and  O_3
REMARK    3  A    between atoms: O_3  and  C_4
REMARK    4  A    between atoms: C_4  and  C_6
REMARK    5  A    between atoms: C_10  and  O_11
REMARK    6  A    between atoms: O_11  and  C_12
REMARK    7  A    between atoms: C_12  and  C_13
REMARK    8  A    between atoms: N_15  and  N_16
REMARK                            x       y       z     vdW  Elec       q    Type
REMARK                         _______ _______ _______ _____ _____    ______ ____
ROOT
ATOM      1  C   UNL     1       3.904   4.166  18.737  0.00  0.00    +0.000 A 
ATOM      2  C   UNL     1       3.143   5.277  19.244  0.00  0.00    +0.000 A 
ATOM      3  C   UNL     1       2.276   5.448  20.347  0.00  0.00    +0.000 A 
ATOM      4  C   UNL     1       1.679   6.685  20.596  0.00  0.00    +0.000 A 
ATOM      5  C   UNL     1       1.939   7.768  19.769  0.00  0.00    +0.000 A 
ATOM      6  C   UNL     1       2.742   7.616  18.632  0.00  0.00    +0.000 A 
ATOM      7  C   UNL     1       3.347   6.366  18.391  0.00  0.00    +0.000 A 
ATOM      8  N   UNL     1       4.194   5.946  17.373  0.00  0.00    +0.000 N 
ATOM      9  C   UNL     1       4.666   6.680  16.280  0.00  0.00    +0.000 A 
ATOM     10  C   UNL     1       5.477   6.095  15.381  0.00  0.00    +0.000 A 
ATOM     11  C   UNL     1       5.848   4.705  15.570  0.00  0.00    +0.000 A 
ATOM     12  C   UNL     1       5.399   3.997  16.624  0.00  0.00    +0.000 A 
ATOM     13  C   UNL     1       4.535   4.614  17.586  0.00  0.00    +0.000 A 
ENDROOT
BRANCH   1  14
ATOM     14  C   UNL     1       3.979   2.807  19.265  0.00  0.00    +0.000 C 
ATOM     15  O   UNL     1       4.841   2.419  20.044  0.00  0.00    +0.000 OA
BRANCH  14  16
ATOM     16  O   UNL     1       3.027   1.995  18.724  0.00  0.00    +0.000 OA
BRANCH  16  18
ATOM     17  C   UNL     1       0.681   2.433  18.727  0.00  0.00    +0.000 C 
ATOM     18  C   UNL     1       1.836   1.823  19.500  0.00  0.00    +0.000 C 
ENDBRANCH  16  18
ENDBRANCH  14  16
ENDBRANCH   1  14
BRANCH   5  19
ATOM     19  O   UNL     1       1.448   9.031  19.973  0.00  0.00    +0.000 OA
BRANCH  19  20
ATOM     20  C   UNL     1       0.748   9.597  18.863  0.00  0.00    +0.000 C 
BRANCH  20  21
ATOM     21  C   UNL     1       1.108  11.066  18.670  0.00  0.00    +0.000 C 
ATOM     22  O   UNL     1       0.541  11.974  19.277  0.00  0.00    +0.000 OA
ATOM     23  N   UNL     1       2.128  11.283  17.754  0.00  0.00    +0.000 N 
ATOM     24  H   UNL     1       2.646  10.473  17.409  0.00  0.00    +0.000 HD
BRANCH  23  25
ATOM     25  N   UNL     1       2.636  12.582  17.563  0.00  0.00    +0.000 NA
ATOM     26  H   UNL     1       2.787  12.699  16.549  0.00  0.00    +0.000 HD
ATOM     27  H   UNL     1       3.579  12.610  17.958  0.00  0.00    +0.000 HD
ENDBRANCH  23  25
ENDBRANCH  20  21
ENDBRANCH  19  20
ENDBRANCH   5  19
TORSDOF 7
ENDMDL
MODEL 6
REMARK VINA RESULT:      -7.5      3.393      7.407
REMARK  Name = 
REMARK  8 active torsions:
REMARK  status: ('A' for Active; 'I' for Inactive)
REMARK    1  A    between atoms: C_1  and  C_2
REMARK    2  A    between atoms: C_2  and  O_3
REMARK    3  A    between atoms: O_3  and  C_4
REMARK    4  A    between atoms: C_4  and  C_6
REMARK    5  A    between atoms: C_10  and  O_11
REMARK    6  A    between atoms: O_11  and  C_12
REMARK    7  A    between atoms: C_12  and  C_13
REMARK    8  A    between atoms: N_15  and  N_16
REMARK                            x       y       z     vdW  Elec       q    Type
REMARK                         _______ _______ _______ _____ _____    ______ ____
ROOT
ATOM      1  C   UNL     1       4.064   4.474  18.746  0.00  0.00    +0.000 A 
ATOM      2  C   UNL     1       3.322   5.693  18.933  0.00  0.00    +0.000 A 
ATOM      3  C   UNL     1       2.427   6.152  19.926  0.00  0.00    +0.000 A 
ATOM      4  C   UNL     1       1.861   7.426  19.838  0.00  0.00    +0.000 A 
ATOM      5  C   UNL     1       2.179   8.263  18.778  0.00  0.00    +0.000 A 
ATOM      6  C   UNL     1       3.012   7.815  17.746  0.00  0.00    +0.000 A 
ATOM      7  C   UNL     1       3.585   6.531  17.844  0.00  0.00    +0.000 A 
ATOM      8  N   UNL     1       4.449   5.852  16.995  0.00  0.00    +0.000 N 
ATOM      9  C   UNL     1       4.977   6.280  15.772  0.00  0.00    +0.000 A 
ATOM     10  C   UNL     1       5.797   5.472  15.078  0.00  0.00    +0.000 A 
ATOM     11  C   UNL     1       6.119   4.166  15.618  0.00  0.00    +0.000 A 
ATOM     12  C   UNL     1       5.617   3.752  16.798  0.00  0.00    +0.000 A 
ATOM     13  C   UNL     1       4.743   4.607  17.543  0.00  0.00    +0.000 A 
ENDROOT
BRANCH   1  14
ATOM     14  C   UNL     1       4.080   3.288  19.597  0.00  0.00    +0.000 C 
ATOM     15  O   UNL     1       5.101   2.729  19.977  0.00  0.00    +0.000 OA
BRANCH  14  16
ATOM     16  O   UNL     1       2.823   2.822  19.848  0.00  0.00    +0.000 OA
BRANCH  16  18
ATOM     17  C   UNL     1       0.726   2.563  18.740  0.00  0.00    +0.000 C 
ATOM     18  C   UNL     1       2.183   2.137  18.767  0.00  0.00    +0.000 C 
ENDBRANCH  16  18
ENDBRANCH  14  16
ENDBRANCH   1  14
BRANCH   5  19
ATOM     19  O   UNL     1       1.722   9.547  18.645  0.00  0.00    +0.000 OA
BRANCH  19  20
ATOM     20  C   UNL     1       0.586   9.874  19.451  0.00  0.00    +0.000 C 
BRANCH  20  21
ATOM     21  C   UNL     1       0.026  11.244  19.090  0.00  0.00    +0.000 C 
ATOM     22  O   UNL     1       0.251  12.251  19.761  0.00  0.00    +0.000 OA
ATOM     23  N   UNL     1      -0.754  11.253  17.942  0.00  0.00    +0.000 N 
ATOM     24  H   UNL     1      -0.767  10.412  17.362  0.00  0.00    +0.000 HD
BRANCH  23  25
ATOM     25  N   UNL     1      -1.243  12.472  17.433  0.00  0.00    +0.000 NA
ATOM     26  H   UNL     1      -1.981  12.238  16.753  0.00  0.00    +0.000 HD
ATOM     27  H   UNL     1      -0.504  12.890  16.861  0.00  0.00    +0.000 HD
ENDBRANCH  23  25
ENDBRANCH  20  21
ENDBRANCH  19  20
ENDBRANCH   5  19
TORSDOF 7
ENDMDL
MODEL 7
REMARK VINA RESULT:      -7.5      3.556      7.370
REMARK  Name = 
REMARK  8 active torsions:
REMARK  status: ('A' for Active; 'I' for Inactive)
REMARK    1  A    between atoms: C_1  and  C_2
REMARK    2  A    between atoms: C_2  and  O_3
REMARK    3  A    between atoms: O_3  and  C_4
REMARK    4  A    between atoms: C_4  and  C_6
REMARK    5  A    between atoms: C_10  and  O_11
REMARK    6  A    between atoms: O_11  and  C_12
REMARK    7  A    between atoms: C_12  and  C_13
REMARK    8  A    between atoms: N_15  and  N_16
REMARK                            x       y       z     vdW  Elec       q    Type
REMARK                         _______ _______ _______ _____ _____    ______ ____
ROOT
ATOM      1  C   UNL     1       4.048   4.910  18.243  0.00  0.00    +0.000 A 
ATOM      2  C   UNL     1       3.469   6.225  18.290  0.00  0.00    +0.000 A 
ATOM      3  C   UNL     1       3.612   7.388  17.499  0.00  0.00    +0.000 A 
ATOM      4  C   UNL     1       2.884   8.542  17.793  0.00  0.00    +0.000 A 
ATOM      5  C   UNL     1       1.999   8.559  18.862  0.00  0.00    +0.000 A 
ATOM      6  C   UNL     1       1.881   7.446  19.704  0.00  0.00    +0.000 A 
ATOM      7  C   UNL     1       2.614   6.282  19.396  0.00  0.00    +0.000 A 
ATOM      8  N   UNL     1       2.671   5.049  20.031  0.00  0.00    +0.000 N 
ATOM      9  C   UNL     1       2.002   4.638  21.189  0.00  0.00    +0.000 A 
ATOM     10  C   UNL     1       2.192   3.395  21.667  0.00  0.00    +0.000 A 
ATOM     11  C   UNL     1       3.093   2.503  20.963  0.00  0.00    +0.000 A 
ATOM     12  C   UNL     1       3.735   2.893  19.845  0.00  0.00    +0.000 A 
ATOM     13  C   UNL     1       3.536   4.215  19.330  0.00  0.00    +0.000 A 
ENDROOT
BRANCH   1  14
ATOM     14  C   UNL     1       5.027   4.388  17.294  0.00  0.00    +0.000 C 
ATOM     15  O   UNL     1       4.737   3.757  16.285  0.00  0.00    +0.000 OA
BRANCH  14  16
ATOM     16  O   UNL     1       6.307   4.609  17.707  0.00  0.00    +0.000 OA
BRANCH  16  18
ATOM     17  C   UNL     1       7.451   6.697  17.872  0.00  0.00    +0.000 C 
ATOM     18  C   UNL     1       7.054   5.563  16.944  0.00  0.00    +0.000 C 
ENDBRANCH  16  18
ENDBRANCH  14  16
ENDBRANCH   1  14
BRANCH   5  19
ATOM     19  O   UNL     1       1.199   9.624  19.185  0.00  0.00    +0.000 OA
BRANCH  19  20
ATOM     20  C   UNL     1       0.142   9.333  20.102  0.00  0.00    +0.000 C 
BRANCH  20  21
ATOM     21  C   UNL     1       0.404   9.955  21.468  0.00  0.00    +0.000 C 
ATOM     22  O   UNL     1       0.877  11.083  21.604  0.00  0.00    +0.000 OA
ATOM     23  N   UNL     1       0.058   9.141  22.537  0.00  0.00    +0.000 N 
ATOM     24  H   UNL     1      -0.466   8.287  22.342  0.00  0.00    +0.000 HD
BRANCH  23  25
ATOM     25  N   UNL     1       0.144   9.634  23.853  0.00  0.00    +0.000 NA
ATOM     26  H   UNL     1      -0.070   8.846  24.483  0.00  0.00    +0.000 HD
ATOM     27  H   UNL     1      -0.636  10.282  23.995  0.00  0.00    +0.000 HD
ENDBRANCH  23  25
ENDBRANCH  20  21
ENDBRANCH  19  20
ENDBRANCH   5  19
TORSDOF 7
ENDMDL
MODEL 8
REMARK VINA RESULT:      -7.4      3.520      6.870
REMARK  Name = 
REMARK  8 active torsions:
REMARK  status: ('A' for Active; 'I' for Inactive)
REMARK    1  A    between atoms: C_1  and  C_2
REMARK    2  A    between atoms: C_2  and  O_3
REMARK    3  A    between atoms: O_3  and  C_4
REMARK    4  A    between atoms: C_4  and  C_6
REMARK    5  A    between atoms: C_10  and  O_11
REMARK    6  A    between atoms: O_11  and  C_12
REMARK    7  A    between atoms: C_12  and  C_13
REMARK    8  A    between atoms: N_15  and  N_16
REMARK                            x       y       z     vdW  Elec       q    Type
REMARK                         _______ _______ _______ _____ _____    ______ ____
ROOT
ATOM      1  C   UNL     1       4.049   4.842  18.235  0.00  0.00    +0.000 A 
ATOM      2  C   UNL     1       3.441   6.142  18.336  0.00  0.00    +0.000 A 
ATOM      3  C   UNL     1       3.536   7.329  17.574  0.00  0.00    +0.000 A 
ATOM      4  C   UNL     1       2.789   8.457  17.921  0.00  0.00    +0.000 A 
ATOM      5  C   UNL     1       1.934   8.423  19.013  0.00  0.00    +0.000 A 
ATOM      6  C   UNL     1       1.865   7.284  19.825  0.00  0.00    +0.000 A 
ATOM      7  C   UNL     1       2.616   6.147  19.465  0.00  0.00    +0.000 A 
ATOM      8  N   UNL     1       2.719   4.898  20.062  0.00  0.00    +0.000 N 
ATOM      9  C   UNL     1       2.092   4.439  21.226  0.00  0.00    +0.000 A 
ATOM     10  C   UNL     1       2.324   3.188  21.662  0.00  0.00    +0.000 A 
ATOM     11  C   UNL     1       3.225   2.338  20.909  0.00  0.00    +0.000 A 
ATOM     12  C   UNL     1       3.827   2.775  19.786  0.00  0.00    +0.000 A 
ATOM     13  C   UNL     1       3.584   4.105  19.315  0.00  0.00    +0.000 A 
ENDROOT
BRANCH   1  14
ATOM     14  C   UNL     1       5.014   4.372  17.246  0.00  0.00    +0.000 C 
ATOM     15  O   UNL     1       4.715   4.003  16.116  0.00  0.00    +0.000 OA
BRANCH  14  16
ATOM     16  O   UNL     1       6.278   4.307  17.753  0.00  0.00    +0.000 OA
BRANCH  16  18
ATOM     17  C   UNL     1       7.229   6.432  17.227  0.00  0.00    +0.000 C 
ATOM     18  C   UNL     1       7.299   4.937  16.972  0.00  0.00    +0.000 C 
ENDBRANCH  16  18
ENDBRANCH  14  16
ENDBRANCH   1  14
BRANCH   5  19
ATOM     19  O   UNL     1       1.119   9.459  19.388  0.00  0.00    +0.000 OA
BRANCH  19  20
ATOM     20  C   UNL     1       0.897  10.451  18.383  0.00  0.00    +0.000 C 
BRANCH  20  21
ATOM     21  C   UNL     1       1.651  11.737  18.696  0.00  0.00    +0.000 C 
ATOM     22  O   UNL     1       1.588  12.294  19.792  0.00  0.00    +0.000 OA
ATOM     23  N   UNL     1       2.412  12.219  17.640  0.00  0.00    +0.000 N 
ATOM     24  H   UNL     1       2.530  11.622  16.820  0.00  0.00    +0.000 HD
BRANCH  23  25
ATOM     25  N   UNL     1       3.247  13.338  17.827  0.00  0.00    +0.000 NA
ATOM     26  H   UNL     1       4.165  12.980  18.128  0.00  0.00    +0.000 HD
ATOM     27  H   UNL     1       2.903  13.851  18.644  0.00  0.00    +0.000 HD
ENDBRANCH  23  25
ENDBRANCH  20  21
ENDBRANCH  19  20
ENDBRANCH   5  19
TORSDOF 7
ENDMDL
MODEL 9
REMARK VINA RESULT:      -7.4      3.493      7.085
REMARK  Name = 
REMARK  8 active torsions:
REMARK  status: ('A' for Active; 'I' for Inactive)
REMARK    1  A    between atoms: C_1  and  C_2
REMARK    2  A    between atoms: C_2  and  O_3
REMARK    3  A    between atoms: O_3  and  C_4
REMARK    4  A    between atoms: C_4  and  C_6
REMARK    5  A    between atoms: C_10  and  O_11
REMARK    6  A    between atoms: O_11  and  C_12
REMARK    7  A    between atoms: C_12  and  C_13
REMARK    8  A    between atoms: N_15  and  N_16
REMARK                            x       y       z     vdW  Elec       q    Type
REMARK                         _______ _______ _______ _____ _____    ______ ____
ROOT
ATOM      1  C   UNL     1       4.035   4.997  18.152  0.00  0.00    +0.000 A 
ATOM      2  C   UNL     1       3.385   6.269  18.319  0.00  0.00    +0.000 A 
ATOM      3  C   UNL     1       3.417   7.487  17.603  0.00  0.00    +0.000 A 
ATOM      4  C   UNL     1       2.641   8.573  18.012  0.00  0.00    +0.000 A 
ATOM      5  C   UNL     1       1.817   8.466  19.124  0.00  0.00    +0.000 A 
ATOM      6  C   UNL     1       1.810   7.296  19.892  0.00  0.00    +0.000 A 
ATOM      7  C   UNL     1       2.590   6.201  19.468  0.00  0.00    +0.000 A 
ATOM      8  N   UNL     1       2.753   4.934  20.013  0.00  0.00    +0.000 N 
ATOM      9  C   UNL     1       2.173   4.409  21.173  0.00  0.00    +0.000 A 
ATOM     10  C   UNL     1       2.460   3.151  21.554  0.00  0.00    +0.000 A 
ATOM     11  C   UNL     1       3.371   2.363  20.745  0.00  0.00    +0.000 A 
ATOM     12  C   UNL     1       3.927   2.864  19.625  0.00  0.00    +0.000 A 
ATOM     13  C   UNL     1       3.625   4.203  19.213  0.00  0.00    +0.000 A 
ENDROOT
BRANCH   1  14
ATOM     14  C   UNL     1       4.989   4.599  17.121  0.00  0.00    +0.000 C 
ATOM     15  O   UNL     1       4.676   4.064  16.065  0.00  0.00    +0.000 OA
BRANCH  14  16
ATOM     16  O   UNL     1       6.279   4.815  17.507  0.00  0.00    +0.000 OA
BRANCH  16  18
ATOM     17  C   UNL     1       7.267   6.987  17.507  0.00  0.00    +0.000 C 
ATOM     18  C   UNL     1       7.030   5.725  16.697  0.00  0.00    +0.000 C 
ENDBRANCH  16  18
ENDBRANCH  14  16
ENDBRANCH   1  14
BRANCH   5  19
ATOM     19  O   UNL     1       0.976   9.457  19.559  0.00  0.00    +0.000 OA
BRANCH  19  20
ATOM     20  C   UNL     1       0.747  10.513  18.623  0.00  0.00    +0.000 C 
BRANCH  20  21
ATOM     21  C   UNL     1      -0.687  11.022  18.700  0.00  0.00    +0.000 C 
ATOM     22  O   UNL     1      -1.292  11.145  19.765  0.00  0.00    +0.000 OA
ATOM     23  N   UNL     1      -1.245  11.333  17.468  0.00  0.00    +0.000 N 
ATOM     24  H   UNL     1      -0.630  11.347  16.652  0.00  0.00    +0.000 HD
BRANCH  23  25
ATOM     25  N   UNL     1      -2.524  11.918  17.401  0.00  0.00    +0.000 NA
ATOM     26  H   UNL     1      -3.111  11.291  16.830  0.00  0.00    +0.000 HD
ATOM     27  H   UNL     1      -2.449  12.768  16.837  0.00  0.00    +0.000 HD
ENDBRANCH  23  25
ENDBRANCH  20  21
ENDBRANCH  19  20
ENDBRANCH   5  19
TORSDOF 7
ENDMDL
