MODEL 1
REMARK VINA RESULT:      -7.1      0.000      0.000
REMARK  Name = 
REMARK  6 active torsions:
REMARK  status: ('A' for Active; 'I' for Inactive)
REMARK    1  A    between atoms: N_1  and  C_2
REMARK    2  A    between atoms: C_2  and  C_3
REMARK    3  A    between atoms: C_3  and  O_4
REMARK    4  A    between atoms: O_4  and  C_5
REMARK    5  A    between atoms: C_9  and  C_10
REMARK    6  A    between atoms: N_12  and  C_13
REMARK                            x       y       z     vdW  Elec       q    Type
REMARK                         _______ _______ _______ _____ _____    ______ ____
ROOT
ATOM      1  C   UNL     1       3.178   4.985  19.736  0.00  0.00    +0.000 A 
ATOM      2  C   UNL     1       3.992   4.008  19.137  0.00  0.00    +0.000 A 
ATOM      3 CL   UNL     1       4.300   2.413  19.736  0.00  0.00    +0.000 Cl
ATOM      4  C   UNL     1       4.646   4.281  17.928  0.00  0.00    +0.000 A 
ATOM      5  C   UNL     1       4.520   5.518  17.293  0.00  0.00    +0.000 A 
ATOM      6  C   UNL     1       3.736   6.506  17.872  0.00  0.00    +0.000 A 
ATOM      7  C   UNL     1       3.079   6.238  19.083  0.00  0.00    +0.000 A 
ATOM      8 CL   UNL     1       2.108   7.521  19.737  0.00  0.00    +0.000 Cl
ENDROOT
BRANCH   5   9
ATOM      9  C   UNL     1       5.167   5.671  15.968  0.00  0.00    +0.000 C 
ATOM     10  O   UNL     1       5.213   6.804  15.503  0.00  0.00    +0.000 OA
ATOM     11  N   UNL     1       5.607   4.514  15.352  0.00  0.00    +0.000 N 
ATOM     12  H   UNL     1       5.314   3.626  15.742  0.00  0.00    +0.000 HD
BRANCH  11  13
ATOM     13  C   UNL     1       6.283   4.457  14.112  0.00  0.00    +0.000 A 
ATOM     14  C   UNL     1       7.378   5.270  13.800  0.00  0.00    +0.000 A 
ATOM     15  C   UNL     1       7.996   5.189  12.550  0.00  0.00    +0.000 A 
ATOM     16  C   UNL     1       7.529   4.289  11.600  0.00  0.00    +0.000 A 
ATOM     17  C   UNL     1       6.452   3.459  11.905  0.00  0.00    +0.000 A 
ATOM     18  C   UNL     1       5.837   3.535  13.159  0.00  0.00    +0.000 A 
ENDBRANCH  11  13
ENDBRANCH   5   9
BRANCH   1  19
ATOM     19  O   UNL     1       2.439   4.900  20.890  0.00  0.00    +0.000 OA
BRANCH  19  20
ATOM     20  C   UNL     1       1.103   4.404  20.857  0.00  0.00    +0.000 C 
BRANCH  20  21
ATOM     21  C   UNL     1       1.093   2.880  21.030  0.00  0.00    +0.000 C 
BRANCH  21  22
ATOM     22  N   UNL     1       1.830   2.454  22.222  0.00  0.00    +0.000 NA
ATOM     23  H   UNL     1       1.753   3.174  22.939  0.00  0.00    +0.000 HD
ATOM     24  H   UNL     1       2.821   2.392  21.980  0.00  0.00    +0.000 HD
ENDBRANCH  21  22
ENDBRANCH  20  21
ENDBRANCH  19  20
ENDBRANCH   1  19
TORSDOF 6
ENDMDL
MODEL 2
REMARK VINA RESULT:      -7.0      0.829      1.345
REMARK  Name = 
REMARK  6 active torsions:
REMARK  status: ('A' for Active; 'I' for Inactive)
REMARK    1  A    between atoms: N_1  and  C_2
REMARK    2  A    between atoms: C_2  and  C_3
REMARK    3  A    between atoms: C_3  and  O_4
REMARK    4  A    between atoms: O_4  and  C_5
REMARK    5  A    between atoms: C_9  and  C_10
REMARK    6  A    between atoms: N_12  and  C_13
REMARK                            x       y       z     vdW  Elec       q    Type
REMARK                         _______ _______ _______ _____ _____    ______ ____
ROOT
ATOM      1  C   UNL     1       3.281   4.659  20.003  0.00  0.00    +0.000 A 
ATOM      2  C   UNL     1       4.129   3.728  19.377  0.00  0.00    +0.000 A 
ATOM      3 CL   UNL     1       4.538   2.150  19.958  0.00  0.00    +0.000 Cl
ATOM      4  C   UNL     1       4.734   4.041  18.152  0.00  0.00    +0.000 A 
ATOM      5  C   UNL     1       4.525   5.271  17.527  0.00  0.00    +0.000 A 
ATOM      6  C   UNL     1       3.706   6.214  18.133  0.00  0.00    +0.000 A 
ATOM      7  C   UNL     1       3.098   5.907  19.360  0.00  0.00    +0.000 A 
ATOM      8 CL   UNL     1       2.079   7.134  20.047  0.00  0.00    +0.000 Cl
ENDROOT
BRANCH   5   9
ATOM      9  C   UNL     1       5.126   5.464  16.185  0.00  0.00    +0.000 C 
ATOM     10  O   UNL     1       5.216   6.617  15.781  0.00  0.00    +0.000 OA
ATOM     11  N   UNL     1       5.476   4.321  15.490  0.00  0.00    +0.000 N 
ATOM     12  H   UNL     1       5.151   3.430  15.844  0.00  0.00    +0.000 HD
BRANCH  11  13
ATOM     13  C   UNL     1       6.099   4.298  14.221  0.00  0.00    +0.000 A 
ATOM     14  C   UNL     1       5.647   3.504  13.162  0.00  0.00    +0.000 A 
ATOM     15  C   UNL     1       6.312   3.502  11.934  0.00  0.00    +0.000 A 
ATOM     16  C   UNL     1       7.436   4.300  11.751  0.00  0.00    +0.000 A 
ATOM     17  C   UNL     1       7.886   5.110  12.791  0.00  0.00    +0.000 A 
ATOM     18  C   UNL     1       7.215   5.117  14.019  0.00  0.00    +0.000 A 
ENDBRANCH  11  13
ENDBRANCH   5   9
BRANCH   1  19
ATOM     19  O   UNL     1       2.580   4.530  21.177  0.00  0.00    +0.000 OA
BRANCH  19  20
ATOM     20  C   UNL     1       1.551   3.551  21.299  0.00  0.00    +0.000 C 
BRANCH  20  21
ATOM     21  C   UNL     1       0.634   3.580  20.069  0.00  0.00    +0.000 C 
BRANCH  21  22
ATOM     22  N   UNL     1       0.784   2.381  19.241  0.00  0.00    +0.000 NA
ATOM     23  H   UNL     1       1.168   1.627  19.808  0.00  0.00    +0.000 HD
ATOM     24  H   UNL     1       1.477   2.579  18.516  0.00  0.00    +0.000 HD
ENDBRANCH  21  22
ENDBRANCH  20  21
ENDBRANCH  19  20
ENDBRANCH   1  19
TORSDOF 6
ENDMDL
MODEL 3
REMARK VINA RESULT:      -6.9      4.196      7.031
REMARK  Name = 
REMARK  6 active torsions:
REMARK  status: ('A' for Active; 'I' for Inactive)
REMARK    1  A    between atoms: N_1  and  C_2
REMARK    2  A    between atoms: C_2  and  C_3
REMARK    3  A    between atoms: C_3  and  O_4
REMARK    4  A    between atoms: O_4  and  C_5
REMARK    5  A    between atoms: C_9  and  C_10
REMARK    6  A    between atoms: N_12  and  C_13
REMARK                            x       y       z     vdW  Elec       q    Type
REMARK                         _______ _______ _______ _____ _____    ______ ____
ROOT
ATOM      1  C   UNL     1       4.012   4.712  19.220  0.00  0.00    +0.000 A 
ATOM      2  C   UNL     1       2.926   5.244  19.938  0.00  0.00    +0.000 A 
ATOM      3 CL   UNL     1       2.186   4.561  21.345  0.00  0.00    +0.000 Cl
ATOM      4  C   UNL     1       2.339   6.451  19.535  0.00  0.00    +0.000 A 
ATOM      5  C   UNL     1       2.799   7.150  18.418  0.00  0.00    +0.000 A 
ATOM      6  C   UNL     1       3.859   6.637  17.681  0.00  0.00    +0.000 A 
ATOM      7  C   UNL     1       4.450   5.429  18.080  0.00  0.00    +0.000 A 
ATOM      8 CL   UNL     1       5.777   4.860  17.114  0.00  0.00    +0.000 Cl
ENDROOT
BRANCH   5   9
ATOM      9  C   UNL     1       2.180   8.467  18.136  0.00  0.00    +0.000 C 
ATOM     10  O   UNL     1       2.491   9.009  17.082  0.00  0.00    +0.000 OA
ATOM     11  N   UNL     1       1.355   8.988  19.115  0.00  0.00    +0.000 N 
ATOM     12  H   UNL     1       1.354   8.544  20.024  0.00  0.00    +0.000 HD
BRANCH  11  13
ATOM     13  C   UNL     1       0.641  10.206  19.016  0.00  0.00    +0.000 A 
ATOM     14  C   UNL     1       1.191  11.444  19.363  0.00  0.00    +0.000 A 
ATOM     15  C   UNL     1       0.435  12.614  19.267  0.00  0.00    +0.000 A 
ATOM     16  C   UNL     1      -0.880  12.559  18.817  0.00  0.00    +0.000 A 
ATOM     17  C   UNL     1      -1.433  11.334  18.450  0.00  0.00    +0.000 A 
ATOM     18  C   UNL     1      -0.673  10.163  18.539  0.00  0.00    +0.000 A 
ENDBRANCH  11  13
ENDBRANCH   5   9
BRANCH   1  19
ATOM     19  O   UNL     1       4.733   3.571  19.471  0.00  0.00    +0.000 OA
BRANCH  19  20
ATOM     20  C   UNL     1       4.087   2.301  19.502  0.00  0.00    +0.000 C 
BRANCH  20  21
ATOM     21  C   UNL     1       3.483   1.972  18.130  0.00  0.00    +0.000 C 
BRANCH  21  22
ATOM     22  N   UNL     1       2.042   1.726  18.207  0.00  0.00    +0.000 NA
ATOM     23  H   UNL     1       1.569   2.581  18.497  0.00  0.00    +0.000 HD
ATOM     24  H   UNL     1       1.874   1.039  18.945  0.00  0.00    +0.000 HD
ENDBRANCH  21  22
ENDBRANCH  20  21
ENDBRANCH  19  20
ENDBRANCH   1  19
TORSDOF 6
ENDMDL
MODEL 4
REMARK VINA RESULT:      -6.9      4.546      7.560
REMARK  Name = 
REMARK  6 active torsions:
REMARK  status: ('A' for Active; 'I' for Inactive)
REMARK    1  A    between atoms: N_1  and  C_2
REMARK    2  A    between atoms: C_2  and  C_3
REMARK    3  A    between atoms: C_3  and  O_4
REMARK    4  A    between atoms: O_4  and  C_5
REMARK    5  A    between atoms: C_9  and  C_10
REMARK    6  A    between atoms: N_12  and  C_13
REMARK                            x       y       z     vdW  Elec       q    Type
REMARK                         _______ _______ _______ _____ _____    ______ ____
ROOT
ATOM      1  C   UNL     1       3.815   5.197  18.514  0.00  0.00    +0.000 A 
ATOM      2  C   UNL     1       4.062   6.160  17.519  0.00  0.00    +0.000 A 
ATOM      3 CL   UNL     1       5.135   5.999  16.171  0.00  0.00    +0.000 Cl
ATOM      4  C   UNL     1       3.401   7.395  17.556  0.00  0.00    +0.000 A 
ATOM      5  C   UNL     1       2.497   7.711  18.572  0.00  0.00    +0.000 A 
ATOM      6  C   UNL     1       2.249   6.784  19.576  0.00  0.00    +0.000 A 
ATOM      7  C   UNL     1       2.908   5.546  19.545  0.00  0.00    +0.000 A 
ATOM      8 CL   UNL     1       2.535   4.439  20.829  0.00  0.00    +0.000 Cl
ENDROOT
BRANCH   5   9
ATOM      9  C   UNL     1       1.774   9.001  18.463  0.00  0.00    +0.000 C 
ATOM     10  O   UNL     1       2.023   9.692  17.482  0.00  0.00    +0.000 OA
ATOM     11  N   UNL     1       0.930   9.330  19.507  0.00  0.00    +0.000 N 
ATOM     12  H   UNL     1       0.981   8.777  20.354  0.00  0.00    +0.000 HD
BRANCH  11  13
ATOM     13  C   UNL     1       0.125  10.491  19.568  0.00  0.00    +0.000 A 
ATOM     14  C   UNL     1       0.487  11.637  20.283  0.00  0.00    +0.000 A 
ATOM     15  C   UNL     1      -0.356  12.749  20.329  0.00  0.00    +0.000 A 
ATOM     16  C   UNL     1      -1.572  12.728  19.654  0.00  0.00    +0.000 A 
ATOM     17  C   UNL     1      -1.937  11.600  18.922  0.00  0.00    +0.000 A 
ATOM     18  C   UNL     1      -1.088  10.489  18.871  0.00  0.00    +0.000 A 
ENDBRANCH  11  13
ENDBRANCH   5   9
BRANCH   1  19
ATOM     19  O   UNL     1       4.334   3.932  18.635  0.00  0.00    +0.000 OA
BRANCH  19  20
ATOM     20  C   UNL     1       3.951   2.905  17.725  0.00  0.00    +0.000 C 
BRANCH  20  21
ATOM     21  C   UNL     1       3.360   1.709  18.484  0.00  0.00    +0.000 C 
BRANCH  21  22
ATOM     22  N   UNL     1       1.896   1.724  18.484  0.00  0.00    +0.000 NA
ATOM     23  H   UNL     1       1.550   0.857  18.076  0.00  0.00    +0.000 HD
ATOM     24  H   UNL     1       1.584   2.477  17.866  0.00  0.00    +0.000 HD
ENDBRANCH  21  22
ENDBRANCH  20  21
ENDBRANCH  19  20
ENDBRANCH   1  19
TORSDOF 6
ENDMDL
MODEL 5
REMARK VINA RESULT:      -6.8      4.609      7.683
REMARK  Name = 
REMARK  6 active torsions:
REMARK  status: ('A' for Active; 'I' for Inactive)
REMARK    1  A    between atoms: N_1  and  C_2
REMARK    2  A    between atoms: C_2  and  C_3
REMARK    3  A    between atoms: C_3  and  O_4
REMARK    4  A    between atoms: O_4  and  C_5
REMARK    5  A    between atoms: C_9  and  C_10
REMARK    6  A    between atoms: N_12  and  C_13
REMARK                            x       y       z     vdW  Elec       q    Type
REMARK                         _______ _______ _______ _____ _____    ______ ____
ROOT
ATOM      1  C   UNL     1       3.852   5.353  18.529  0.00  0.00    +0.000 A 
ATOM      2  C   UNL     1       4.070   6.312  17.524  0.00  0.00    +0.000 A 
ATOM      3 CL   UNL     1       5.141   6.166  16.172  0.00  0.00    +0.000 Cl
ATOM      4  C   UNL     1       3.378   7.531  17.551  0.00  0.00    +0.000 A 
ATOM      5  C   UNL     1       2.470   7.832  18.568  0.00  0.00    +0.000 A 
ATOM      6  C   UNL     1       2.250   6.909  19.582  0.00  0.00    +0.000 A 
ATOM      7  C   UNL     1       2.941   5.688  19.560  0.00  0.00    +0.000 A 
ATOM      8 CL   UNL     1       2.602   4.583  20.856  0.00  0.00    +0.000 Cl
ENDROOT
BRANCH   5   9
ATOM      9  C   UNL     1       1.713   9.102  18.451  0.00  0.00    +0.000 C 
ATOM     10  O   UNL     1       1.974   9.812  17.487  0.00  0.00    +0.000 OA
ATOM     11  N   UNL     1       0.826   9.393  19.470  0.00  0.00    +0.000 N 
ATOM     12  H   UNL     1       0.866   8.832  20.311  0.00  0.00    +0.000 HD
BRANCH  11  13
ATOM     13  C   UNL     1      -0.015  10.530  19.518  0.00  0.00    +0.000 A 
ATOM     14  C   UNL     1      -1.237  10.605  18.842  0.00  0.00    +0.000 A 
ATOM     15  C   UNL     1      -2.019  11.760  18.904  0.00  0.00    +0.000 A 
ATOM     16  C   UNL     1      -1.588  12.853  19.649  0.00  0.00    +0.000 A 
ATOM     17  C   UNL     1      -0.382  12.783  20.343  0.00  0.00    +0.000 A 
ATOM     18  C   UNL     1       0.398  11.623  20.286  0.00  0.00    +0.000 A 
ENDBRANCH  11  13
ENDBRANCH   5   9
BRANCH   1  19
ATOM     19  O   UNL     1       4.405   4.103  18.659  0.00  0.00    +0.000 OA
BRANCH  19  20
ATOM     20  C   UNL     1       3.843   2.990  17.968  0.00  0.00    +0.000 C 
BRANCH  20  21
ATOM     21  C   UNL     1       3.853   1.743  18.862  0.00  0.00    +0.000 C 
BRANCH  21  22
ATOM     22  N   UNL     1       4.878   1.820  19.905  0.00  0.00    +0.000 NA
ATOM     23  H   UNL     1       5.430   2.666  19.772  0.00  0.00    +0.000 HD
ATOM     24  H   UNL     1       5.520   1.034  19.780  0.00  0.00    +0.000 HD
ENDBRANCH  21  22
ENDBRANCH  20  21
ENDBRANCH  19  20
ENDBRANCH   1  19
TORSDOF 6
ENDMDL
MODEL 6
REMARK VINA RESULT:      -6.8      4.305      7.365
REMARK  Name = 
REMARK  6 active torsions:
REMARK  status: ('A' for Active; 'I' for Inactive)
REMARK    1  A    between atoms: N_1  and  C_2
REMARK    2  A    between atoms: C_2  and  C_3
REMARK    3  A    between atoms: C_3  and  O_4
REMARK    4  A    between atoms: O_4  and  C_5
REMARK    5  A    between atoms: C_9  and  C_10
REMARK    6  A    between atoms: N_12  and  C_13
REMARK                            x       y       z     vdW  Elec       q    Type
REMARK                         _______ _______ _______ _____ _____    ______ ____
ROOT
ATOM      1  C   UNL     1       3.965   4.864  19.030  0.00  0.00    +0.000 A 
ATOM      2  C   UNL     1       2.931   5.314  19.869  0.00  0.00    +0.000 A 
ATOM      3 CL   UNL     1       2.322   4.512  21.277  0.00  0.00    +0.000 Cl
ATOM      4  C   UNL     1       2.287   6.530  19.603  0.00  0.00    +0.000 A 
ATOM      5  C   UNL     1       2.640   7.319  18.507  0.00  0.00    +0.000 A 
ATOM      6  C   UNL     1       3.647   6.888  17.653  0.00  0.00    +0.000 A 
ATOM      7  C   UNL     1       4.294   5.671  17.914  0.00  0.00    +0.000 A 
ATOM      8 CL   UNL     1       5.549   5.209  16.806  0.00  0.00    +0.000 Cl
ENDROOT
BRANCH   5   9
ATOM      9  C   UNL     1       1.972   8.635  18.372  0.00  0.00    +0.000 C 
ATOM     10  O   UNL     1       2.209   9.273  17.353  0.00  0.00    +0.000 OA
ATOM     11  N   UNL     1       1.190   9.047  19.434  0.00  0.00    +0.000 N 
ATOM     12  H   UNL     1       1.252   8.528  20.301  0.00  0.00    +0.000 HD
BRANCH  11  13
ATOM     13  C   UNL     1       0.441  10.246  19.478  0.00  0.00    +0.000 A 
ATOM     14  C   UNL     1      -0.803  10.394  18.856  0.00  0.00    +0.000 A 
ATOM     15  C   UNL     1      -1.491  11.608  18.911  0.00  0.00    +0.000 A 
ATOM     16  C   UNL     1      -0.944  12.687  19.595  0.00  0.00    +0.000 A 
ATOM     17  C   UNL     1       0.286  12.548  20.235  0.00  0.00    +0.000 A 
ATOM     18  C   UNL     1       0.972  11.330  20.185  0.00  0.00    +0.000 A 
ENDBRANCH  11  13
ENDBRANCH   5   9
BRANCH   1  19
ATOM     19  O   UNL     1       4.729   3.728  19.138  0.00  0.00    +0.000 OA
BRANCH  19  20
ATOM     20  C   UNL     1       4.124   2.481  19.474  0.00  0.00    +0.000 C 
BRANCH  20  21
ATOM     21  C   UNL     1       3.563   1.802  18.218  0.00  0.00    +0.000 C 
BRANCH  21  22
ATOM     22  N   UNL     1       2.098   1.788  18.207  0.00  0.00    +0.000 NA
ATOM     23  H   UNL     1       1.765   0.994  18.752  0.00  0.00    +0.000 HD
ATOM     24  H   UNL     1       1.788   1.629  17.245  0.00  0.00    +0.000 HD
ENDBRANCH  21  22
ENDBRANCH  20  21
ENDBRANCH  19  20
ENDBRANCH   1  19
TORSDOF 6
ENDMDL
MODEL 7
REMARK VINA RESULT:      -6.8      4.558      7.623
REMARK  Name = 
REMARK  6 active torsions:
REMARK  status: ('A' for Active; 'I' for Inactive)
REMARK    1  A    between atoms: N_1  and  C_2
REMARK    2  A    between atoms: C_2  and  C_3
REMARK    3  A    between atoms: C_3  and  O_4
REMARK    4  A    between atoms: O_4  and  C_5
REMARK    5  A    between atoms: C_9  and  C_10
REMARK    6  A    between atoms: N_12  and  C_13
REMARK                            x       y       z     vdW  Elec       q    Type
REMARK                         _______ _______ _______ _____ _____    ______ ____
ROOT
ATOM      1  C   UNL     1       3.778   5.265  18.564  0.00  0.00    +0.000 A 
ATOM      2  C   UNL     1       2.847   5.645  19.546  0.00  0.00    +0.000 A 
ATOM      3 CL   UNL     1       2.362   4.715  20.923  0.00  0.00    +0.000 Cl
ATOM      4  C   UNL     1       2.214   6.893  19.472  0.00  0.00    +0.000 A 
ATOM      5  C   UNL     1       2.475   7.784  18.429  0.00  0.00    +0.000 A 
ATOM      6  C   UNL     1       3.378   7.425  17.436  0.00  0.00    +0.000 A 
ATOM      7  C   UNL     1       4.014   6.177  17.505  0.00  0.00    +0.000 A 
ATOM      8 CL   UNL     1       5.137   5.809  16.233  0.00  0.00    +0.000 Cl
ENDROOT
BRANCH   5   9
ATOM      9  C   UNL     1       1.834   9.119  18.496  0.00  0.00    +0.000 C 
ATOM     10  O   UNL     1       2.068   9.891  17.574  0.00  0.00    +0.000 OA
ATOM     11  N   UNL     1       1.078   9.389  19.622  0.00  0.00    +0.000 N 
ATOM     12  H   UNL     1       1.143   8.750  20.404  0.00  0.00    +0.000 HD
BRANCH  11  13
ATOM     13  C   UNL     1       0.356  10.583  19.850  0.00  0.00    +0.000 A 
ATOM     14  C   UNL     1       0.876  11.666  20.567  0.00  0.00    +0.000 A 
ATOM     15  C   UNL     1       0.112  12.814  20.783  0.00  0.00    +0.000 A 
ATOM     16  C   UNL     1      -1.182  12.894  20.280  0.00  0.00    +0.000 A 
ATOM     17  C   UNL     1      -1.705  11.831  19.548  0.00  0.00    +0.000 A 
ATOM     18  C   UNL     1      -0.937  10.683  19.325  0.00  0.00    +0.000 A 
ENDBRANCH  11  13
ENDBRANCH   5   9
BRANCH   1  19
ATOM     19  O   UNL     1       4.517   4.111  18.478  0.00  0.00    +0.000 OA
BRANCH  19  20
ATOM     20  C   UNL     1       3.913   2.900  18.031  0.00  0.00    +0.000 C 
BRANCH  20  21
ATOM     21  C   UNL     1       3.858   1.875  19.172  0.00  0.00    +0.000 C 
BRANCH  21  22
ATOM     22  N   UNL     1       4.991   2.012  20.091  0.00  0.00    +0.000 NA
ATOM     23  H   UNL     1       5.745   1.398  19.789  0.00  0.00    +0.000 HD
ATOM     24  H   UNL     1       4.697   1.678  21.012  0.00  0.00    +0.000 HD
ENDBRANCH  21  22
ENDBRANCH  20  21
ENDBRANCH  19  20
ENDBRANCH   1  19
TORSDOF 6
ENDMDL
MODEL 8
REMARK VINA RESULT:      -6.8      4.188      6.906
REMARK  Name = 
REMARK  6 active torsions:
REMARK  status: ('A' for Active; 'I' for Inactive)
REMARK    1  A    between atoms: N_1  and  C_2
REMARK    2  A    between atoms: C_2  and  C_3
REMARK    3  A    between atoms: C_3  and  O_4
REMARK    4  A    between atoms: O_4  and  C_5
REMARK    5  A    between atoms: C_9  and  C_10
REMARK    6  A    between atoms: N_12  and  C_13
REMARK                            x       y       z     vdW  Elec       q    Type
REMARK                         _______ _______ _______ _____ _____    ______ ____
ROOT
ATOM      1  C   UNL     1       3.749   4.505  19.118  0.00  0.00    +0.000 A 
ATOM      2  C   UNL     1       4.194   5.251  18.012  0.00  0.00    +0.000 A 
ATOM      3 CL   UNL     1       5.364   4.755  16.837  0.00  0.00    +0.000 Cl
ATOM      4  C   UNL     1       3.675   6.530  17.770  0.00  0.00    +0.000 A 
ATOM      5  C   UNL     1       2.720   7.102  18.613  0.00  0.00    +0.000 A 
ATOM      6  C   UNL     1       2.276   6.393  19.722  0.00  0.00    +0.000 A 
ATOM      7  C   UNL     1       2.793   5.112  19.969  0.00  0.00    +0.000 A 
ATOM      8 CL   UNL     1       2.180   4.287  21.368  0.00  0.00    +0.000 Cl
ENDROOT
BRANCH   5   9
ATOM      9  C   UNL     1       2.159   8.415  18.213  0.00  0.00    +0.000 C 
ATOM     10  O   UNL     1       2.520   8.864  17.132  0.00  0.00    +0.000 OA
ATOM     11  N   UNL     1       1.325   9.037  19.123  0.00  0.00    +0.000 N 
ATOM     12  H   UNL     1       1.281   8.664  20.063  0.00  0.00    +0.000 HD
BRANCH  11  13
ATOM     13  C   UNL     1       0.661  10.268  18.910  0.00  0.00    +0.000 A 
ATOM     14  C   UNL     1       1.263  11.510  19.130  0.00  0.00    +0.000 A 
ATOM     15  C   UNL     1       0.555  12.696  18.926  0.00  0.00    +0.000 A 
ATOM     16  C   UNL     1      -0.766  12.651  18.492  0.00  0.00    +0.000 A 
ATOM     17  C   UNL     1      -1.372  11.420  18.251  0.00  0.00    +0.000 A 
ATOM     18  C   UNL     1      -0.660  10.233  18.449  0.00  0.00    +0.000 A 
ENDBRANCH  11  13
ENDBRANCH   5   9
BRANCH   1  19
ATOM     19  O   UNL     1       4.110   3.238  19.503  0.00  0.00    +0.000 OA
BRANCH  19  20
ATOM     20  C   UNL     1       3.714   2.108  18.729  0.00  0.00    +0.000 C 
BRANCH  20  21
ATOM     21  C   UNL     1       2.382   2.384  18.020  0.00  0.00    +0.000 C 
BRANCH  21  22
ATOM     22  N   UNL     1       1.243   1.818  18.745  0.00  0.00    +0.000 NA
ATOM     23  H   UNL     1       1.570   1.407  19.618  0.00  0.00    +0.000 HD
ATOM     24  H   UNL     1       0.861   1.048  18.190  0.00  0.00    +0.000 HD
ENDBRANCH  21  22
ENDBRANCH  20  21
ENDBRANCH  19  20
ENDBRANCH   1  19
TORSDOF 6
ENDMDL
MODEL 9
REMARK VINA RESULT:      -6.7      4.343      7.038
REMARK  Name = 
REMARK  6 active torsions:
REMARK  status: ('A' for Active; 'I' for Inactive)
REMARK    1  A    between atoms: N_1  and  C_2
REMARK    2  A    between atoms: C_2  and  C_3
REMARK    3  A    between atoms: C_3  and  O_4
REMARK    4  A    between atoms: O_4  and  C_5
REMARK    5  A    between atoms: C_9  and  C_10
REMARK    6  A    between atoms: N_12  and  C_13
REMARK                            x       y       z     vdW  Elec       q    Type
REMARK                         _______ _______ _______ _____ _____    ______ ____
ROOT
ATOM      1  C   UNL     1       3.631   4.490  19.355  0.00  0.00    +0.000 A 
ATOM      2  C   UNL     1       2.708   4.760  20.381  0.00  0.00    +0.000 A 
ATOM      3 CL   UNL     1       2.256   3.695  21.669  0.00  0.00    +0.000 Cl
ATOM      4  C   UNL     1       2.055   5.999  20.434  0.00  0.00    +0.000 A 
ATOM      5  C   UNL     1       2.288   6.988  19.477  0.00  0.00    +0.000 A 
ATOM      6  C   UNL     1       3.182   6.741  18.444  0.00  0.00    +0.000 A 
ATOM      7  C   UNL     1       3.838   5.502  18.386  0.00  0.00    +0.000 A 
ATOM      8 CL   UNL     1       4.949   5.274  17.070  0.00  0.00    +0.000 Cl
ENDROOT
BRANCH   5   9
ATOM      9  C   UNL     1       1.628   8.300  19.679  0.00  0.00    +0.000 C 
ATOM     10  O   UNL     1       1.297   8.580  20.826  0.00  0.00    +0.000 OA
ATOM     11  N   UNL     1       1.394   9.060  18.549  0.00  0.00    +0.000 N 
ATOM     12  H   UNL     1       1.519   8.620  17.645  0.00  0.00    +0.000 HD
BRANCH  11  13
ATOM     13  C   UNL     1       0.817  10.351  18.540  0.00  0.00    +0.000 A 
ATOM     14  C   UNL     1       1.566  11.524  18.677  0.00  0.00    +0.000 A 
ATOM     15  C   UNL     1       0.943  12.774  18.684  0.00  0.00    +0.000 A 
ATOM     16  C   UNL     1      -0.438  12.864  18.547  0.00  0.00    +0.000 A 
ATOM     17  C   UNL     1      -1.194  11.704  18.390  0.00  0.00    +0.000 A 
ATOM     18  C   UNL     1      -0.569  10.453  18.376  0.00  0.00    +0.000 A 
ENDBRANCH  11  13
ENDBRANCH   5   9
BRANCH   1  19
ATOM     19  O   UNL     1       4.386   3.361  19.151  0.00  0.00    +0.000 OA
BRANCH  19  20
ATOM     20  C   UNL     1       3.761   2.084  19.053  0.00  0.00    +0.000 C 
BRANCH  20  21
ATOM     21  C   UNL     1       2.667   2.103  17.977  0.00  0.00    +0.000 C 
BRANCH  21  22
ATOM     22  N   UNL     1       1.346   1.793  18.528  0.00  0.00    +0.000 NA
ATOM     23  H   UNL     1       1.457   1.354  19.441  0.00  0.00    +0.000 HD
ATOM     24  H   UNL     1       0.903   1.097  17.924  0.00  0.00    +0.000 HD
ENDBRANCH  21  22
ENDBRANCH  20  21
ENDBRANCH  19  20
ENDBRANCH   1  19
TORSDOF 6
ENDMDL
