MODEL 1
REMARK VINA RESULT:      -6.8      0.000      0.000
REMARK  Name = 
REMARK  19 active torsions:
REMARK  status: ('A' for Active; 'I' for Inactive)
REMARK    1  A    between atoms: C_1  and  C_2
REMARK    2  A    between atoms: C_2  and  C_3
REMARK    3  A    between atoms: C_2  and  C_4
REMARK    4  A    between atoms: C_7  and  C_8
REMARK    5  A    between atoms: C_8  and  N_9
REMARK    6  A    between atoms: N_9  and  C_10
REMARK    7  A    between atoms: C_10  and  C_11
REMARK    8  A    between atoms: C_11  and  C_12
REMARK    9  A    between atoms: C_12  and  C_13
REMARK   10  A    between atoms: C_13  and  N_14
REMARK   11  A    between atoms: N_14  and  C_15
REMARK   12  A    between atoms: C_15  and  C_16
REMARK   13  A    between atoms: C_16  and  C_17
REMARK   14  A    between atoms: C_17  and  N_18
REMARK   15  A    between atoms: N_18  and  C_19
REMARK   16  A    between atoms: C_19  and  C_20
REMARK   17  A    between atoms: C_23  and  C_24
REMARK   18  A    between atoms: C_24  and  C_25
REMARK   19  A    between atoms: C_24  and  C_26
REMARK                            x       y       z     vdW  Elec       q    Type
REMARK                         _______ _______ _______ _____ _____    ______ ____
ROOT
ATOM      1  N   UNL     1       1.909   5.586  19.435  0.00  0.00    +0.000 NA
ATOM      2  H   UNL     1       0.937   5.798  19.211  0.00  0.00    +0.000 HD
ENDROOT
BRANCH   1   3
ATOM      3  C   UNL     1       2.031   5.300  20.858  0.00  0.00    +0.000 C 
BRANCH   3   4
ATOM      4  C   UNL     1       1.752   3.821  21.082  0.00  0.00    +0.000 C 
BRANCH   4   5
ATOM      5  C   UNL     1       0.620   3.374  20.171  0.00  0.00    +0.000 C 
BRANCH   5   6
ATOM      6  C   UNL     1       1.071   2.243  19.259  0.00  0.00    +0.000 C 
BRANCH   6   7
ATOM      7  N   UNL     1       1.443   2.823  17.976  0.00  0.00    +0.000 NA
ATOM      8  H   UNL     1       0.720   2.635  17.282  0.00  0.00    +0.000 HD
BRANCH   7   9
ATOM      9  C   UNL     1       2.695   2.248  17.496  0.00  0.00    +0.000 C 
BRANCH   9  13
ATOM     10  C   UNL     1       5.853   5.135  18.124  0.00  0.00    +0.000 A 
ATOM     11  C   UNL     1       5.150   5.073  16.911  0.00  0.00    +0.000 A 
ATOM     12  C   UNL     1       4.149   4.126  16.719  0.00  0.00    +0.000 A 
ATOM     13  C   UNL     1       3.825   3.214  17.729  0.00  0.00    +0.000 A 
ATOM     14  C   UNL     1       4.543   3.247  18.931  0.00  0.00    +0.000 A 
ATOM     15  C   UNL     1       5.547   4.201  19.125  0.00  0.00    +0.000 A 
BRANCH  10  17
ATOM     16  C   UNL     1       8.004   5.757  19.198  0.00  0.00    +0.000 C 
ATOM     17  C   UNL     1       6.836   6.267  18.347  0.00  0.00    +0.000 C 
ATOM     18  C   UNL     1       7.360   6.907  17.057  0.00  0.00    +0.000 C 
ENDBRANCH  10  17
ENDBRANCH   9  13
ENDBRANCH   7   9
ENDBRANCH   6   7
ENDBRANCH   5   6
ENDBRANCH   4   5
ENDBRANCH   3   4
ENDBRANCH   1   3
BRANCH   1  19
ATOM     19  C   UNL     1       2.765   6.708  19.055  0.00  0.00    +0.000 C 
BRANCH  19  20
ATOM     20  C   UNL     1       2.033   7.602  18.047  0.00  0.00    +0.000 C 
BRANCH  20  21
ATOM     21  C   UNL     1       2.678   8.990  17.981  0.00  0.00    +0.000 C 
BRANCH  21  22
ATOM     22  N   UNL     1       1.685   9.988  17.581  0.00  0.00    +0.000 NA
ATOM     23  H   UNL     1       1.710  10.146  16.573  0.00  0.00    +0.000 HD
BRANCH  22  24
ATOM     24  C   UNL     1       0.335   9.595  17.972  0.00  0.00    +0.000 C 
BRANCH  24  25
ATOM     25  C   UNL     1      -0.078  10.286  19.258  0.00  0.00    +0.000 A 
ATOM     26  C   UNL     1       0.189   9.696  20.503  0.00  0.00    +0.000 A 
ATOM     27  C   UNL     1      -0.208  10.324  21.691  0.00  0.00    +0.000 A 
ATOM     28  C   UNL     1      -0.886  11.551  21.663  0.00  0.00    +0.000 A 
ATOM     29  C   UNL     1      -1.160  12.136  20.418  0.00  0.00    +0.000 A 
ATOM     30  C   UNL     1      -0.748  11.520  19.231  0.00  0.00    +0.000 A 
BRANCH  28  31
ATOM     31  C   UNL     1      -1.288  12.226  22.960  0.00  0.00    +0.000 C 
ATOM     32  C   UNL     1      -0.940  13.716  22.934  0.00  0.00    +0.000 C 
ATOM     33  C   UNL     1      -2.769  12.016  23.280  0.00  0.00    +0.000 C 
ENDBRANCH  28  31
ENDBRANCH  24  25
ENDBRANCH  22  24
ENDBRANCH  21  22
ENDBRANCH  20  21
ENDBRANCH  19  20
ENDBRANCH   1  19
TORSDOF 15
ENDMDL
MODEL 2
REMARK VINA RESULT:      -6.5      1.928      9.217
REMARK  Name = 
REMARK  19 active torsions:
REMARK  status: ('A' for Active; 'I' for Inactive)
REMARK    1  A    between atoms: C_1  and  C_2
REMARK    2  A    between atoms: C_2  and  C_3
REMARK    3  A    between atoms: C_2  and  C_4
REMARK    4  A    between atoms: C_7  and  C_8
REMARK    5  A    between atoms: C_8  and  N_9
REMARK    6  A    between atoms: N_9  and  C_10
REMARK    7  A    between atoms: C_10  and  C_11
REMARK    8  A    between atoms: C_11  and  C_12
REMARK    9  A    between atoms: C_12  and  C_13
REMARK   10  A    between atoms: C_13  and  N_14
REMARK   11  A    between atoms: N_14  and  C_15
REMARK   12  A    between atoms: C_15  and  C_16
REMARK   13  A    between atoms: C_16  and  C_17
REMARK   14  A    between atoms: C_17  and  N_18
REMARK   15  A    between atoms: N_18  and  C_19
REMARK   16  A    between atoms: C_19  and  C_20
REMARK   17  A    between atoms: C_23  and  C_24
REMARK   18  A    between atoms: C_24  and  C_25
REMARK   19  A    between atoms: C_24  and  C_26
REMARK                            x       y       z     vdW  Elec       q    Type
REMARK                         _______ _______ _______ _____ _____    ______ ____
ROOT
ATOM      1  N   UNL     1       1.201   4.482  20.468  0.00  0.00    +0.000 NA
ATOM      2  H   UNL     1       1.122   3.949  19.602  0.00  0.00    +0.000 HD
ENDROOT
BRANCH   1   3
ATOM      3  C   UNL     1       1.979   5.690  20.230  0.00  0.00    +0.000 C 
BRANCH   3   4
ATOM      4  C   UNL     1       1.952   6.000  18.740  0.00  0.00    +0.000 C 
BRANCH   4   5
ATOM      5  C   UNL     1       2.715   7.288  18.476  0.00  0.00    +0.000 C 
BRANCH   5   6
ATOM      6  C   UNL     1       2.042   8.468  19.159  0.00  0.00    +0.000 C 
BRANCH   6   7
ATOM      7  N   UNL     1       1.003   8.968  18.269  0.00  0.00    +0.000 NA
ATOM      8  H   UNL     1       1.268   8.812  17.297  0.00  0.00    +0.000 HD
BRANCH   7   9
ATOM      9  C   UNL     1       0.804  10.399  18.464  0.00  0.00    +0.000 C 
BRANCH   9  13
ATOM     10  C   UNL     1      -3.434  11.214  18.185  0.00  0.00    +0.000 A 
ATOM     11  C   UNL     1      -2.834  10.197  17.427  0.00  0.00    +0.000 A 
ATOM     12  C   UNL     1      -1.466   9.960  17.516  0.00  0.00    +0.000 A 
ATOM     13  C   UNL     1      -0.660  10.733  18.358  0.00  0.00    +0.000 A 
ATOM     14  C   UNL     1      -1.244  11.771  19.093  0.00  0.00    +0.000 A 
ATOM     15  C   UNL     1      -2.619  12.007  19.007  0.00  0.00    +0.000 A 
BRANCH  10  17
ATOM     16  C   UNL     1      -5.411  11.907  19.518  0.00  0.00    +0.000 C 
ATOM     17  C   UNL     1      -4.944  11.350  18.169  0.00  0.00    +0.000 C 
ATOM     18  C   UNL     1      -5.485  12.211  17.023  0.00  0.00    +0.000 C 
ENDBRANCH  10  17
ENDBRANCH   9  13
ENDBRANCH   7   9
ENDBRANCH   6   7
ENDBRANCH   5   6
ENDBRANCH   4   5
ENDBRANCH   3   4
ENDBRANCH   1   3
BRANCH   1  19
ATOM     19  C   UNL     1       1.820   3.660  21.506  0.00  0.00    +0.000 C 
BRANCH  19  20
ATOM     20  C   UNL     1       2.249   2.313  20.915  0.00  0.00    +0.000 C 
BRANCH  20  21
ATOM     21  C   UNL     1       1.608   2.092  19.541  0.00  0.00    +0.000 C 
BRANCH  21  22
ATOM     22  N   UNL     1       2.624   1.682  18.570  0.00  0.00    +0.000 NA
ATOM     23  H   UNL     1       2.433   0.745  18.214  0.00  0.00    +0.000 HD
BRANCH  22  24
ATOM     24  C   UNL     1       2.707   2.613  17.449  0.00  0.00    +0.000 C 
BRANCH  24  25
ATOM     25  C   UNL     1       3.960   3.463  17.546  0.00  0.00    +0.000 A 
ATOM     26  C   UNL     1       4.622   3.623  18.773  0.00  0.00    +0.000 A 
ATOM     27  C   UNL     1       5.768   4.423  18.868  0.00  0.00    +0.000 A 
ATOM     28  C   UNL     1       6.275   5.089  17.742  0.00  0.00    +0.000 A 
ATOM     29  C   UNL     1       5.608   4.935  16.518  0.00  0.00    +0.000 A 
ATOM     30  C   UNL     1       4.475   4.121  16.417  0.00  0.00    +0.000 A 
BRANCH  28  31
ATOM     31  C   UNL     1       7.529   5.932  17.860  0.00  0.00    +0.000 C 
ATOM     32  C   UNL     1       7.269   7.368  17.398  0.00  0.00    +0.000 C 
ATOM     33  C   UNL     1       8.103   5.910  19.277  0.00  0.00    +0.000 C 
ENDBRANCH  28  31
ENDBRANCH  24  25
ENDBRANCH  22  24
ENDBRANCH  21  22
ENDBRANCH  20  21
ENDBRANCH  19  20
ENDBRANCH   1  19
TORSDOF 15
ENDMDL
MODEL 3
REMARK VINA RESULT:      -6.5      2.888      9.080
REMARK  Name = 
REMARK  19 active torsions:
REMARK  status: ('A' for Active; 'I' for Inactive)
REMARK    1  A    between atoms: C_1  and  C_2
REMARK    2  A    between atoms: C_2  and  C_3
REMARK    3  A    between atoms: C_2  and  C_4
REMARK    4  A    between atoms: C_7  and  C_8
REMARK    5  A    between atoms: C_8  and  N_9
REMARK    6  A    between atoms: N_9  and  C_10
REMARK    7  A    between atoms: C_10  and  C_11
REMARK    8  A    between atoms: C_11  and  C_12
REMARK    9  A    between atoms: C_12  and  C_13
REMARK   10  A    between atoms: C_13  and  N_14
REMARK   11  A    between atoms: N_14  and  C_15
REMARK   12  A    between atoms: C_15  and  C_16
REMARK   13  A    between atoms: C_16  and  C_17
REMARK   14  A    between atoms: C_17  and  N_18
REMARK   15  A    between atoms: N_18  and  C_19
REMARK   16  A    between atoms: C_19  and  C_20
REMARK   17  A    between atoms: C_23  and  C_24
REMARK   18  A    between atoms: C_24  and  C_25
REMARK   19  A    between atoms: C_24  and  C_26
REMARK                            x       y       z     vdW  Elec       q    Type
REMARK                         _______ _______ _______ _____ _____    ______ ____
ROOT
ATOM      1  N   UNL     1       3.720   3.119  17.600  0.00  0.00    +0.000 NA
ATOM      2  H   UNL     1       3.155   3.965  17.540  0.00  0.00    +0.000 HD
ENDROOT
BRANCH   1   3
ATOM      3  C   UNL     1       2.901   2.017  18.087  0.00  0.00    +0.000 C 
BRANCH   3   4
ATOM      4  C   UNL     1       1.533   2.562  18.474  0.00  0.00    +0.000 C 
BRANCH   4   5
ATOM      5  C   UNL     1       1.579   3.078  19.903  0.00  0.00    +0.000 C 
BRANCH   5   6
ATOM      6  C   UNL     1       1.250   4.562  19.955  0.00  0.00    +0.000 C 
BRANCH   6   7
ATOM      7  N   UNL     1       2.289   5.224  20.732  0.00  0.00    +0.000 NA
ATOM      8  H   UNL     1       1.877   5.704  21.533  0.00  0.00    +0.000 HD
BRANCH   7   9
ATOM      9  C   UNL     1       2.988   6.212  19.919  0.00  0.00    +0.000 C 
BRANCH   9  13
ATOM     10  C   UNL     1       0.498   9.711  19.410  0.00  0.00    +0.000 A 
ATOM     11  C   UNL     1       1.250   9.189  18.347  0.00  0.00    +0.000 A 
ATOM     12  C   UNL     1       2.060   8.073  18.533  0.00  0.00    +0.000 A 
ATOM     13  C   UNL     1       2.144   7.452  19.783  0.00  0.00    +0.000 A 
ATOM     14  C   UNL     1       1.423   7.985  20.858  0.00  0.00    +0.000 A 
ATOM     15  C   UNL     1       0.607   9.105  20.670  0.00  0.00    +0.000 A 
BRANCH  10  17
ATOM     16  C   UNL     1       0.303  12.137  18.913  0.00  0.00    +0.000 C 
ATOM     17  C   UNL     1      -0.479  10.839  19.136  0.00  0.00    +0.000 C 
ATOM     18  C   UNL     1      -1.421  10.579  17.956  0.00  0.00    +0.000 C 
ENDBRANCH  10  17
ENDBRANCH   9  13
ENDBRANCH   7   9
ENDBRANCH   6   7
ENDBRANCH   5   6
ENDBRANCH   4   5
ENDBRANCH   3   4
ENDBRANCH   1   3
BRANCH   1  19
ATOM     19  C   UNL     1       4.865   3.344  18.481  0.00  0.00    +0.000 C 
BRANCH  19  20
ATOM     20  C   UNL     1       5.317   4.805  18.382  0.00  0.00    +0.000 C 
BRANCH  20  21
ATOM     21  C   UNL     1       6.836   4.918  18.541  0.00  0.00    +0.000 C 
BRANCH  21  22
ATOM     22  N   UNL     1       7.494   4.715  17.249  0.00  0.00    +0.000 NA
ATOM     23  H   UNL     1       7.346   3.765  16.908  0.00  0.00    +0.000 HD
BRANCH  22  24
ATOM     24  C   UNL     1       7.021   5.664  16.245  0.00  0.00    +0.000 C 
BRANCH  24  25
ATOM     25  C   UNL     1       6.607   4.944  14.975  0.00  0.00    +0.000 A 
ATOM     26  C   UNL     1       7.471   4.890  13.871  0.00  0.00    +0.000 A 
ATOM     27  C   UNL     1       7.084   4.242  12.691  0.00  0.00    +0.000 A 
ATOM     28  C   UNL     1       5.822   3.640  12.583  0.00  0.00    +0.000 A 
ATOM     29  C   UNL     1       4.955   3.702  13.684  0.00  0.00    +0.000 A 
ATOM     30  C   UNL     1       5.348   4.332  14.870  0.00  0.00    +0.000 A 
BRANCH  28  31
ATOM     31  C   UNL     1       5.428   2.925  11.306  0.00  0.00    +0.000 C 
ATOM     32  C   UNL     1       5.934   1.480  11.308  0.00  0.00    +0.000 C 
ATOM     33  C   UNL     1       3.919   2.976  11.063  0.00  0.00    +0.000 C 
ENDBRANCH  28  31
ENDBRANCH  24  25
ENDBRANCH  22  24
ENDBRANCH  21  22
ENDBRANCH  20  21
ENDBRANCH  19  20
ENDBRANCH   1  19
TORSDOF 15
ENDMDL
MODEL 4
REMARK VINA RESULT:      -6.4      1.952      2.623
REMARK  Name = 
REMARK  19 active torsions:
REMARK  status: ('A' for Active; 'I' for Inactive)
REMARK    1  A    between atoms: C_1  and  C_2
REMARK    2  A    between atoms: C_2  and  C_3
REMARK    3  A    between atoms: C_2  and  C_4
REMARK    4  A    between atoms: C_7  and  C_8
REMARK    5  A    between atoms: C_8  and  N_9
REMARK    6  A    between atoms: N_9  and  C_10
REMARK    7  A    between atoms: C_10  and  C_11
REMARK    8  A    between atoms: C_11  and  C_12
REMARK    9  A    between atoms: C_12  and  C_13
REMARK   10  A    between atoms: C_13  and  N_14
REMARK   11  A    between atoms: N_14  and  C_15
REMARK   12  A    between atoms: C_15  and  C_16
REMARK   13  A    between atoms: C_16  and  C_17
REMARK   14  A    between atoms: C_17  and  N_18
REMARK   15  A    between atoms: N_18  and  C_19
REMARK   16  A    between atoms: C_19  and  C_20
REMARK   17  A    between atoms: C_23  and  C_24
REMARK   18  A    between atoms: C_24  and  C_25
REMARK   19  A    between atoms: C_24  and  C_26
REMARK                            x       y       z     vdW  Elec       q    Type
REMARK                         _______ _______ _______ _____ _____    ______ ____
ROOT
ATOM      1  N   UNL     1       2.701   5.789  19.945  0.00  0.00    +0.000 NA
ATOM      2  H   UNL     1       3.004   5.350  19.076  0.00  0.00    +0.000 HD
ENDROOT
BRANCH   1   3
ATOM      3  C   UNL     1       1.536   5.087  20.467  0.00  0.00    +0.000 C 
BRANCH   3   4
ATOM      4  C   UNL     1       2.008   4.015  21.438  0.00  0.00    +0.000 C 
BRANCH   4   5
ATOM      5  C   UNL     1       1.665   2.642  20.883  0.00  0.00    +0.000 C 
BRANCH   5   6
ATOM      6  C   UNL     1       0.852   2.760  19.603  0.00  0.00    +0.000 C 
BRANCH   6   7
ATOM      7  N   UNL     1       1.565   2.050  18.552  0.00  0.00    +0.000 NA
ATOM      8  H   UNL     1       1.109   1.157  18.360  0.00  0.00    +0.000 HD
BRANCH   7   9
ATOM      9  C   UNL     1       2.940   1.780  18.955  0.00  0.00    +0.000 C 
BRANCH   9  13
ATOM     10  C   UNL     1       5.447   4.900  17.317  0.00  0.00    +0.000 A 
ATOM     11  C   UNL     1       4.372   4.369  16.589  0.00  0.00    +0.000 A 
ATOM     12  C   UNL     1       3.586   3.353  17.124  0.00  0.00    +0.000 A 
ATOM     13  C   UNL     1       3.854   2.837  18.396  0.00  0.00    +0.000 A 
ATOM     14  C   UNL     1       4.945   3.338  19.117  0.00  0.00    +0.000 A 
ATOM     15  C   UNL     1       5.732   4.362  18.580  0.00  0.00    +0.000 A 
BRANCH  10  17
ATOM     16  C   UNL     1       7.244   6.551  17.778  0.00  0.00    +0.000 C 
ATOM     17  C   UNL     1       6.190   6.100  16.761  0.00  0.00    +0.000 C 
ATOM     18  C   UNL     1       6.841   5.857  15.396  0.00  0.00    +0.000 C 
ENDBRANCH  10  17
ENDBRANCH   9  13
ENDBRANCH   7   9
ENDBRANCH   6   7
ENDBRANCH   5   6
ENDBRANCH   4   5
ENDBRANCH   3   4
ENDBRANCH   1   3
BRANCH   1  19
ATOM     19  C   UNL     1       2.398   7.199  19.713  0.00  0.00    +0.000 C 
BRANCH  19  20
ATOM     20  C   UNL     1       2.779   7.583  18.279  0.00  0.00    +0.000 C 
BRANCH  20  21
ATOM     21  C   UNL     1       1.862   8.689  17.748  0.00  0.00    +0.000 C 
BRANCH  21  22
ATOM     22  N   UNL     1       1.144   9.324  18.855  0.00  0.00    +0.000 NA
ATOM     23  H   UNL     1       1.694   9.291  19.714  0.00  0.00    +0.000 HD
BRANCH  22  24
ATOM     24  C   UNL     1       0.805  10.711  18.555  0.00  0.00    +0.000 C 
BRANCH  24  25
ATOM     25  C   UNL     1      -0.700  10.899  18.498  0.00  0.00    +0.000 A 
ATOM     26  C   UNL     1      -1.470  10.213  17.546  0.00  0.00    +0.000 A 
ATOM     27  C   UNL     1      -2.857  10.400  17.479  0.00  0.00    +0.000 A 
ATOM     28  C   UNL     1      -3.506  11.280  18.357  0.00  0.00    +0.000 A 
ATOM     29  C   UNL     1      -2.735  11.971  19.303  0.00  0.00    +0.000 A 
ATOM     30  C   UNL     1      -1.352  11.772  19.384  0.00  0.00    +0.000 A 
BRANCH  28  31
ATOM     31  C   UNL     1      -5.010  11.452  18.285  0.00  0.00    +0.000 C 
ATOM     32  C   UNL     1      -5.540  12.176  19.525  0.00  0.00    +0.000 C 
ATOM     33  C   UNL     1      -5.444  12.169  17.006  0.00  0.00    +0.000 C 
ENDBRANCH  28  31
ENDBRANCH  24  25
ENDBRANCH  22  24
ENDBRANCH  21  22
ENDBRANCH  20  21
ENDBRANCH  19  20
ENDBRANCH   1  19
TORSDOF 15
ENDMDL
MODEL 5
REMARK VINA RESULT:      -6.2      1.950      8.862
REMARK  Name = 
REMARK  19 active torsions:
REMARK  status: ('A' for Active; 'I' for Inactive)
REMARK    1  A    between atoms: C_1  and  C_2
REMARK    2  A    between atoms: C_2  and  C_3
REMARK    3  A    between atoms: C_2  and  C_4
REMARK    4  A    between atoms: C_7  and  C_8
REMARK    5  A    between atoms: C_8  and  N_9
REMARK    6  A    between atoms: N_9  and  C_10
REMARK    7  A    between atoms: C_10  and  C_11
REMARK    8  A    between atoms: C_11  and  C_12
REMARK    9  A    between atoms: C_12  and  C_13
REMARK   10  A    between atoms: C_13  and  N_14
REMARK   11  A    between atoms: N_14  and  C_15
REMARK   12  A    between atoms: C_15  and  C_16
REMARK   13  A    between atoms: C_16  and  C_17
REMARK   14  A    between atoms: C_17  and  N_18
REMARK   15  A    between atoms: N_18  and  C_19
REMARK   16  A    between atoms: C_19  and  C_20
REMARK   17  A    between atoms: C_23  and  C_24
REMARK   18  A    between atoms: C_24  and  C_25
REMARK   19  A    between atoms: C_24  and  C_26
REMARK                            x       y       z     vdW  Elec       q    Type
REMARK                         _______ _______ _______ _____ _____    ______ ____
ROOT
ATOM      1  N   UNL     1       1.935   6.246  20.520  0.00  0.00    +0.000 NA
ATOM      2  H   UNL     1       1.006   6.302  20.103  0.00  0.00    +0.000 HD
ENDROOT
BRANCH   1   3
ATOM      3  C   UNL     1       2.933   6.675  19.549  0.00  0.00    +0.000 C 
BRANCH   3   4
ATOM      4  C   UNL     1       2.250   6.871  18.203  0.00  0.00    +0.000 C 
BRANCH   4   5
ATOM      5  C   UNL     1       2.792   8.125  17.537  0.00  0.00    +0.000 C 
BRANCH   5   6
ATOM      6  C   UNL     1       2.258   9.376  18.218  0.00  0.00    +0.000 C 
BRANCH   6   7
ATOM      7  N   UNL     1       0.804   9.346  18.133  0.00  0.00    +0.000 NA
ATOM      8  H   UNL     1       0.489   9.865  17.313  0.00  0.00    +0.000 HD
BRANCH   7   9
ATOM      9  C   UNL     1       0.209   9.959  19.315  0.00  0.00    +0.000 C 
BRANCH   9  13
ATOM     10  C   UNL     1       0.700  14.255  19.250  0.00  0.00    +0.000 A 
ATOM     11  C   UNL     1      -0.210  13.611  18.399  0.00  0.00    +0.000 A 
ATOM     12  C   UNL     1      -0.343  12.226  18.420  0.00  0.00    +0.000 A 
ATOM     13  C   UNL     1       0.431  11.448  19.287  0.00  0.00    +0.000 A 
ATOM     14  C   UNL     1       1.365  12.079  20.118  0.00  0.00    +0.000 A 
ATOM     15  C   UNL     1       1.495  13.471  20.098  0.00  0.00    +0.000 A 
BRANCH  10  17
ATOM     16  C   UNL     1       2.027  16.279  18.694  0.00  0.00    +0.000 C 
ATOM     17  C   UNL     1       0.715  15.771  19.299  0.00  0.00    +0.000 C 
ATOM     18  C   UNL     1      -0.480  16.433  18.606  0.00  0.00    +0.000 C 
ENDBRANCH  10  17
ENDBRANCH   9  13
ENDBRANCH   7   9
ENDBRANCH   6   7
ENDBRANCH   5   6
ENDBRANCH   4   5
ENDBRANCH   3   4
ENDBRANCH   1   3
BRANCH   1  19
ATOM     19  C   UNL     1       2.199   4.880  20.967  0.00  0.00    +0.000 C 
BRANCH  19  20
ATOM     20  C   UNL     1       0.994   3.987  20.651  0.00  0.00    +0.000 C 
BRANCH  20  21
ATOM     21  C   UNL     1       1.076   3.447  19.220  0.00  0.00    +0.000 C 
BRANCH  21  22
ATOM     22  N   UNL     1       1.987   2.301  19.166  0.00  0.00    +0.000 NA
ATOM     23  H   UNL     1       1.487   1.428  19.335  0.00  0.00    +0.000 HD
BRANCH  22  24
ATOM     24  C   UNL     1       2.675   2.218  17.881  0.00  0.00    +0.000 C 
BRANCH  24  25
ATOM     25  C   UNL     1       3.832   3.199  17.824  0.00  0.00    +0.000 A 
ATOM     26  C   UNL     1       4.659   3.392  18.941  0.00  0.00    +0.000 A 
ATOM     27  C   UNL     1       5.716   4.310  18.898  0.00  0.00    +0.000 A 
ATOM     28  C   UNL     1       5.967   5.062  17.740  0.00  0.00    +0.000 A 
ATOM     29  C   UNL     1       5.134   4.874  16.627  0.00  0.00    +0.000 A 
ATOM     30  C   UNL     1       4.090   3.944  16.663  0.00  0.00    +0.000 A 
BRANCH  28  31
ATOM     31  C   UNL     1       7.129   6.035  17.704  0.00  0.00    +0.000 C 
ATOM     32  C   UNL     1       6.660   7.434  17.298  0.00  0.00    +0.000 C 
ATOM     33  C   UNL     1       7.883   6.075  19.034  0.00  0.00    +0.000 C 
ENDBRANCH  28  31
ENDBRANCH  24  25
ENDBRANCH  22  24
ENDBRANCH  21  22
ENDBRANCH  20  21
ENDBRANCH  19  20
ENDBRANCH   1  19
TORSDOF 15
ENDMDL
MODEL 6
REMARK VINA RESULT:      -6.2      2.275      9.461
REMARK  Name = 
REMARK  19 active torsions:
REMARK  status: ('A' for Active; 'I' for Inactive)
REMARK    1  A    between atoms: C_1  and  C_2
REMARK    2  A    between atoms: C_2  and  C_3
REMARK    3  A    between atoms: C_2  and  C_4
REMARK    4  A    between atoms: C_7  and  C_8
REMARK    5  A    between atoms: C_8  and  N_9
REMARK    6  A    between atoms: N_9  and  C_10
REMARK    7  A    between atoms: C_10  and  C_11
REMARK    8  A    between atoms: C_11  and  C_12
REMARK    9  A    between atoms: C_12  and  C_13
REMARK   10  A    between atoms: C_13  and  N_14
REMARK   11  A    between atoms: N_14  and  C_15
REMARK   12  A    between atoms: C_15  and  C_16
REMARK   13  A    between atoms: C_16  and  C_17
REMARK   14  A    between atoms: C_17  and  N_18
REMARK   15  A    between atoms: N_18  and  C_19
REMARK   16  A    between atoms: C_19  and  C_20
REMARK   17  A    between atoms: C_23  and  C_24
REMARK   18  A    between atoms: C_24  and  C_25
REMARK   19  A    between atoms: C_24  and  C_26
REMARK                            x       y       z     vdW  Elec       q    Type
REMARK                         _______ _______ _______ _____ _____    ______ ____
ROOT
ATOM      1  N   UNL     1       2.454   5.463  21.081  0.00  0.00    +0.000 NA
ATOM      2  H   UNL     1       2.058   6.024  21.835  0.00  0.00    +0.000 HD
ENDROOT
BRANCH   1   3
ATOM      3  C   UNL     1       2.106   6.055  19.796  0.00  0.00    +0.000 C 
BRANCH   3   4
ATOM      4  C   UNL     1       2.170   7.570  19.926  0.00  0.00    +0.000 C 
BRANCH   4   5
ATOM      5  C   UNL     1       1.129   8.037  20.930  0.00  0.00    +0.000 C 
BRANCH   5   6
ATOM      6  C   UNL     1       0.548   9.383  20.524  0.00  0.00    +0.000 C 
BRANCH   6   7
ATOM      7  N   UNL     1       0.735   9.537  19.088  0.00  0.00    +0.000 NA
ATOM      8  H   UNL     1       1.723   9.445  18.850  0.00  0.00    +0.000 HD
BRANCH   7   9
ATOM      9  C   UNL     1       0.283  10.852  18.650  0.00  0.00    +0.000 C 
BRANCH   9  13
ATOM     10  C   UNL     1      -3.981  10.934  17.934  0.00  0.00    +0.000 A 
ATOM     11  C   UNL     1      -3.365  11.867  18.780  0.00  0.00    +0.000 A 
ATOM     12  C   UNL     1      -1.994  11.816  19.014  0.00  0.00    +0.000 A 
ATOM     13  C   UNL     1      -1.204  10.831  18.413  0.00  0.00    +0.000 A 
ATOM     14  C   UNL     1      -1.815   9.874  17.592  0.00  0.00    +0.000 A 
ATOM     15  C   UNL     1      -3.192   9.929  17.355  0.00  0.00    +0.000 A 
BRANCH  10  17
ATOM     16  C   UNL     1      -6.299  10.631  18.775  0.00  0.00    +0.000 C 
ATOM     17  C   UNL     1      -5.449  11.107  17.592  0.00  0.00    +0.000 C 
ATOM     18  C   UNL     1      -5.837  12.536  17.201  0.00  0.00    +0.000 C 
ENDBRANCH  10  17
ENDBRANCH   9  13
ENDBRANCH   7   9
ENDBRANCH   6   7
ENDBRANCH   5   6
ENDBRANCH   4   5
ENDBRANCH   3   4
ENDBRANCH   1   3
BRANCH   1  19
ATOM     19  C   UNL     1       1.964   4.089  21.170  0.00  0.00    +0.000 C 
BRANCH  19  20
ATOM     20  C   UNL     1       0.691   3.937  20.330  0.00  0.00    +0.000 C 
BRANCH  20  21
ATOM     21  C   UNL     1       0.814   2.757  19.361  0.00  0.00    +0.000 C 
BRANCH  21  22
ATOM     22  N   UNL     1       2.109   2.096  19.535  0.00  0.00    +0.000 NA
ATOM     23  H   UNL     1       2.009   1.228  20.062  0.00  0.00    +0.000 HD
BRANCH  22  24
ATOM     24  C   UNL     1       2.745   1.807  18.252  0.00  0.00    +0.000 C 
BRANCH  24  25
ATOM     25  C   UNL     1       3.813   2.838  17.936  0.00  0.00    +0.000 A 
ATOM     26  C   UNL     1       4.652   3.330  18.947  0.00  0.00    +0.000 A 
ATOM     27  C   UNL     1       5.626   4.296  18.661  0.00  0.00    +0.000 A 
ATOM     28  C   UNL     1       5.779   4.798  17.360  0.00  0.00    +0.000 A 
ATOM     29  C   UNL     1       4.934   4.311  16.352  0.00  0.00    +0.000 A 
ATOM     30  C   UNL     1       3.974   3.332  16.632  0.00  0.00    +0.000 A 
BRANCH  28  31
ATOM     31  C   UNL     1       6.852   5.826  17.065  0.00  0.00    +0.000 C 
ATOM     32  C   UNL     1       7.403   5.653  15.647  0.00  0.00    +0.000 C 
ATOM     33  C   UNL     1       6.354   7.254  17.286  0.00  0.00    +0.000 C 
ENDBRANCH  28  31
ENDBRANCH  24  25
ENDBRANCH  22  24
ENDBRANCH  21  22
ENDBRANCH  20  21
ENDBRANCH  19  20
ENDBRANCH   1  19
TORSDOF 15
ENDMDL
MODEL 7
REMARK VINA RESULT:      -6.1      2.586      9.052
REMARK  Name = 
REMARK  19 active torsions:
REMARK  status: ('A' for Active; 'I' for Inactive)
REMARK    1  A    between atoms: C_1  and  C_2
REMARK    2  A    between atoms: C_2  and  C_3
REMARK    3  A    between atoms: C_2  and  C_4
REMARK    4  A    between atoms: C_7  and  C_8
REMARK    5  A    between atoms: C_8  and  N_9
REMARK    6  A    between atoms: N_9  and  C_10
REMARK    7  A    between atoms: C_10  and  C_11
REMARK    8  A    between atoms: C_11  and  C_12
REMARK    9  A    between atoms: C_12  and  C_13
REMARK   10  A    between atoms: C_13  and  N_14
REMARK   11  A    between atoms: N_14  and  C_15
REMARK   12  A    between atoms: C_15  and  C_16
REMARK   13  A    between atoms: C_16  and  C_17
REMARK   14  A    between atoms: C_17  and  N_18
REMARK   15  A    between atoms: N_18  and  C_19
REMARK   16  A    between atoms: C_19  and  C_20
REMARK   17  A    between atoms: C_23  and  C_24
REMARK   18  A    between atoms: C_24  and  C_25
REMARK   19  A    between atoms: C_24  and  C_26
REMARK                            x       y       z     vdW  Elec       q    Type
REMARK                         _______ _______ _______ _____ _____    ______ ____
ROOT
ATOM      1  N   UNL     1       2.435   6.575  20.229  0.00  0.00    +0.000 NA
ATOM      2  H   UNL     1       1.786   7.262  20.615  0.00  0.00    +0.000 HD
ENDROOT
BRANCH   1   3
ATOM      3  C   UNL     1       2.188   6.417  18.803  0.00  0.00    +0.000 C 
BRANCH   3   4
ATOM      4  C   UNL     1       3.180   7.282  18.038  0.00  0.00    +0.000 C 
BRANCH   4   5
ATOM      5  C   UNL     1       2.659   8.709  17.969  0.00  0.00    +0.000 C 
BRANCH   5   6
ATOM      6  C   UNL     1       1.139   8.733  17.958  0.00  0.00    +0.000 C 
BRANCH   6   7
ATOM      7  N   UNL     1       0.714  10.099  17.690  0.00  0.00    +0.000 NA
ATOM      8  H   UNL     1       1.458  10.613  17.218  0.00  0.00    +0.000 HD
BRANCH   7   9
ATOM      9  C   UNL     1       0.402  10.793  18.934  0.00  0.00    +0.000 C 
BRANCH   9  13
ATOM     10  C   UNL     1       1.882  14.843  18.606  0.00  0.00    +0.000 A 
ATOM     11  C   UNL     1       2.694  13.742  18.300  0.00  0.00    +0.000 A 
ATOM     12  C   UNL     1       2.208  12.444  18.428  0.00  0.00    +0.000 A 
ATOM     13  C   UNL     1       0.902  12.212  18.869  0.00  0.00    +0.000 A 
ATOM     14  C   UNL     1       0.093  13.304  19.208  0.00  0.00    +0.000 A 
ATOM     15  C   UNL     1       0.581  14.608  19.076  0.00  0.00    +0.000 A 
BRANCH  10  17
ATOM     16  C   UNL     1       2.055  17.154  19.501  0.00  0.00    +0.000 C 
ATOM     17  C   UNL     1       2.398  16.241  18.320  0.00  0.00    +0.000 C 
ATOM     18  C   UNL     1       3.899  16.305  18.018  0.00  0.00    +0.000 C 
ENDBRANCH  10  17
ENDBRANCH   9  13
ENDBRANCH   7   9
ENDBRANCH   6   7
ENDBRANCH   5   6
ENDBRANCH   4   5
ENDBRANCH   3   4
ENDBRANCH   1   3
BRANCH   1  19
ATOM     19  C   UNL     1       2.286   5.300  20.928  0.00  0.00    +0.000 C 
BRANCH  19  20
ATOM     20  C   UNL     1       1.030   4.578  20.428  0.00  0.00    +0.000 C 
BRANCH  20  21
ATOM     21  C   UNL     1       1.171   3.062  20.592  0.00  0.00    +0.000 C 
BRANCH  21  22
ATOM     22  N   UNL     1       1.408   2.434  19.291  0.00  0.00    +0.000 NA
ATOM     23  H   UNL     1       1.258   3.098  18.531  0.00  0.00    +0.000 HD
BRANCH  22  24
ATOM     24  C   UNL     1       2.759   1.889  19.191  0.00  0.00    +0.000 C 
BRANCH  24  25
ATOM     25  C   UNL     1       3.681   2.861  18.478  0.00  0.00    +0.000 A 
ATOM     26  C   UNL     1       4.746   3.467  19.162  0.00  0.00    +0.000 A 
ATOM     27  C   UNL     1       5.587   4.379  18.512  0.00  0.00    +0.000 A 
ATOM     28  C   UNL     1       5.378   4.713  17.165  0.00  0.00    +0.000 A 
ATOM     29  C   UNL     1       4.308   4.114  16.485  0.00  0.00    +0.000 A 
ATOM     30  C   UNL     1       3.479   3.188  17.128  0.00  0.00    +0.000 A 
BRANCH  28  31
ATOM     31  C   UNL     1       6.312   5.686  16.472  0.00  0.00    +0.000 C 
ATOM     32  C   UNL     1       7.212   6.398  17.483  0.00  0.00    +0.000 C 
ATOM     33  C   UNL     1       7.143   5.005  15.384  0.00  0.00    +0.000 C 
ENDBRANCH  28  31
ENDBRANCH  24  25
ENDBRANCH  22  24
ENDBRANCH  21  22
ENDBRANCH  20  21
ENDBRANCH  19  20
ENDBRANCH   1  19
TORSDOF 15
ENDMDL
MODEL 8
REMARK VINA RESULT:      -6.1      1.111      1.738
REMARK  Name = 
REMARK  19 active torsions:
REMARK  status: ('A' for Active; 'I' for Inactive)
REMARK    1  A    between atoms: C_1  and  C_2
REMARK    2  A    between atoms: C_2  and  C_3
REMARK    3  A    between atoms: C_2  and  C_4
REMARK    4  A    between atoms: C_7  and  C_8
REMARK    5  A    between atoms: C_8  and  N_9
REMARK    6  A    between atoms: N_9  and  C_10
REMARK    7  A    between atoms: C_10  and  C_11
REMARK    8  A    between atoms: C_11  and  C_12
REMARK    9  A    between atoms: C_12  and  C_13
REMARK   10  A    between atoms: C_13  and  N_14
REMARK   11  A    between atoms: N_14  and  C_15
REMARK   12  A    between atoms: C_15  and  C_16
REMARK   13  A    between atoms: C_16  and  C_17
REMARK   14  A    between atoms: C_17  and  N_18
REMARK   15  A    between atoms: N_18  and  C_19
REMARK   16  A    between atoms: C_19  and  C_20
REMARK   17  A    between atoms: C_23  and  C_24
REMARK   18  A    between atoms: C_24  and  C_25
REMARK   19  A    between atoms: C_24  and  C_26
REMARK                            x       y       z     vdW  Elec       q    Type
REMARK                         _______ _______ _______ _____ _____    ______ ____
ROOT
ATOM      1  N   UNL     1       2.897   5.789  20.081  0.00  0.00    +0.000 NA
ATOM      2  H   UNL     1       2.998   5.195  19.257  0.00  0.00    +0.000 HD
ENDROOT
BRANCH   1   3
ATOM      3  C   UNL     1       2.103   5.097  21.087  0.00  0.00    +0.000 C 
BRANCH   3   4
ATOM      4  C   UNL     1       0.891   4.475  20.408  0.00  0.00    +0.000 C 
BRANCH   4   5
ATOM      5  C   UNL     1       1.288   3.152  19.773  0.00  0.00    +0.000 C 
BRANCH   5   6
ATOM      6  C   UNL     1       1.274   3.252  18.256  0.00  0.00    +0.000 C 
BRANCH   6   7
ATOM      7  N   UNL     1       2.000   2.107  17.725  0.00  0.00    +0.000 NA
ATOM      8  H   UNL     1       1.440   1.260  17.821  0.00  0.00    +0.000 HD
BRANCH   7   9
ATOM      9  C   UNL     1       3.250   1.910  18.451  0.00  0.00    +0.000 C 
BRANCH   9  13
ATOM     10  C   UNL     1       6.018   5.166  17.794  0.00  0.00    +0.000 A 
ATOM     11  C   UNL     1       5.933   4.519  19.035  0.00  0.00    +0.000 A 
ATOM     12  C   UNL     1       5.024   3.484  19.235  0.00  0.00    +0.000 A 
ATOM     13  C   UNL     1       4.174   3.072  18.204  0.00  0.00    +0.000 A 
ATOM     14  C   UNL     1       4.228   3.734  16.971  0.00  0.00    +0.000 A 
ATOM     15  C   UNL     1       5.144   4.771  16.770  0.00  0.00    +0.000 A 
BRANCH  10  17
ATOM     16  C   UNL     1       6.484   7.508  17.108  0.00  0.00    +0.000 C 
ATOM     17  C   UNL     1       7.115   6.190  17.571  0.00  0.00    +0.000 C 
ATOM     18  C   UNL     1       8.007   6.429  18.793  0.00  0.00    +0.000 C 
ENDBRANCH  10  17
ENDBRANCH   9  13
ENDBRANCH   7   9
ENDBRANCH   6   7
ENDBRANCH   5   6
ENDBRANCH   4   5
ENDBRANCH   3   4
ENDBRANCH   1   3
BRANCH   1  19
ATOM     19  C   UNL     1       2.273   7.056  19.707  0.00  0.00    +0.000 C 
BRANCH  19  20
ATOM     20  C   UNL     1       2.281   7.210  18.182  0.00  0.00    +0.000 C 
BRANCH  20  21
ATOM     21  C   UNL     1       2.807   8.590  17.776  0.00  0.00    +0.000 C 
BRANCH  21  22
ATOM     22  N   UNL     1       1.690   9.511  17.556  0.00  0.00    +0.000 NA
ATOM     23  H   UNL     1       0.843   9.175  18.015  0.00  0.00    +0.000 HD
BRANCH  22  24
ATOM     24  C   UNL     1       1.995  10.855  18.037  0.00  0.00    +0.000 C 
BRANCH  24  25
ATOM     25  C   UNL     1       0.934  11.332  19.013  0.00  0.00    +0.000 A 
ATOM     26  C   UNL     1      -0.428  11.240  18.689  0.00  0.00    +0.000 A 
ATOM     27  C   UNL     1      -1.407  11.698  19.580  0.00  0.00    +0.000 A 
ATOM     28  C   UNL     1      -1.048  12.265  20.812  0.00  0.00    +0.000 A 
ATOM     29  C   UNL     1       0.314  12.364  21.131  0.00  0.00    +0.000 A 
ATOM     30  C   UNL     1       1.292  11.890  20.251  0.00  0.00    +0.000 A 
BRANCH  28  31
ATOM     31  C   UNL     1      -2.122  12.734  21.773  0.00  0.00    +0.000 C 
ATOM     32  C   UNL     1      -3.490  12.781  21.087  0.00  0.00    +0.000 C 
ATOM     33  C   UNL     1      -2.175  11.875  23.037  0.00  0.00    +0.000 C 
ENDBRANCH  28  31
ENDBRANCH  24  25
ENDBRANCH  22  24
ENDBRANCH  21  22
ENDBRANCH  20  21
ENDBRANCH  19  20
ENDBRANCH   1  19
TORSDOF 15
ENDMDL
MODEL 9
REMARK VINA RESULT:      -6.0      5.325      9.602
REMARK  Name = 
REMARK  19 active torsions:
REMARK  status: ('A' for Active; 'I' for Inactive)
REMARK    1  A    between atoms: C_1  and  C_2
REMARK    2  A    between atoms: C_2  and  C_3
REMARK    3  A    between atoms: C_2  and  C_4
REMARK    4  A    between atoms: C_7  and  C_8
REMARK    5  A    between atoms: C_8  and  N_9
REMARK    6  A    between atoms: N_9  and  C_10
REMARK    7  A    between atoms: C_10  and  C_11
REMARK    8  A    between atoms: C_11  and  C_12
REMARK    9  A    between atoms: C_12  and  C_13
REMARK   10  A    between atoms: C_13  and  N_14
REMARK   11  A    between atoms: N_14  and  C_15
REMARK   12  A    between atoms: C_15  and  C_16
REMARK   13  A    between atoms: C_16  and  C_17
REMARK   14  A    between atoms: C_17  and  N_18
REMARK   15  A    between atoms: N_18  and  C_19
REMARK   16  A    between atoms: C_19  and  C_20
REMARK   17  A    between atoms: C_23  and  C_24
REMARK   18  A    between atoms: C_24  and  C_25
REMARK   19  A    between atoms: C_24  and  C_26
REMARK                            x       y       z     vdW  Elec       q    Type
REMARK                         _______ _______ _______ _____ _____    ______ ____
ROOT
ATOM      1  N   UNL     1       8.053   7.870  17.352  0.00  0.00    +0.000 NA
ATOM      2  H   UNL     1       8.959   7.765  16.896  0.00  0.00    +0.000 HD
ENDROOT
BRANCH   1   3
ATOM      3  C   UNL     1       7.843   9.267  17.706  0.00  0.00    +0.000 C 
BRANCH   3   4
ATOM      4  C   UNL     1       8.959   9.704  18.644  0.00  0.00    +0.000 C 
BRANCH   4   5
ATOM      5  C   UNL     1       9.717  10.865  18.022  0.00  0.00    +0.000 C 
BRANCH   5   6
ATOM      6  C   UNL     1       9.256  12.192  18.606  0.00  0.00    +0.000 C 
BRANCH   6   7
ATOM      7  N   UNL     1      10.425  12.875  19.143  0.00  0.00    +0.000 NA
ATOM      8  H   UNL     1      11.206  12.801  18.491  0.00  0.00    +0.000 HD
BRANCH   7   9
ATOM      9  C   UNL     1      10.832  12.278  20.410  0.00  0.00    +0.000 C 
BRANCH   9  13
ATOM     10  C   UNL     1       7.867  12.890  23.498  0.00  0.00    +0.000 A 
ATOM     11  C   UNL     1       8.099  11.620  22.949  0.00  0.00    +0.000 A 
ATOM     12  C   UNL     1       9.044  11.443  21.944  0.00  0.00    +0.000 A 
ATOM     13  C   UNL     1       9.779  12.529  21.456  0.00  0.00    +0.000 A 
ATOM     14  C   UNL     1       9.532  13.806  21.975  0.00  0.00    +0.000 A 
ATOM     15  C   UNL     1       8.585  13.982  22.988  0.00  0.00    +0.000 A 
BRANCH  10  17
ATOM     16  C   UNL     1       5.944  14.158  24.426  0.00  0.00    +0.000 C 
ATOM     17  C   UNL     1       6.934  13.019  24.687  0.00  0.00    +0.000 C 
ATOM     18  C   UNL     1       6.181  11.731  25.035  0.00  0.00    +0.000 C 
ENDBRANCH  10  17
ENDBRANCH   9  13
ENDBRANCH   7   9
ENDBRANCH   6   7
ENDBRANCH   5   6
ENDBRANCH   4   5
ENDBRANCH   3   4
ENDBRANCH   1   3
BRANCH   1  19
ATOM     19  C   UNL     1       7.990   7.018  18.538  0.00  0.00    +0.000 C 
BRANCH  19  20
ATOM     20  C   UNL     1       7.639   5.583  18.129  0.00  0.00    +0.000 C 
BRANCH  20  21
ATOM     21  C   UNL     1       7.118   5.538  16.689  0.00  0.00    +0.000 C 
BRANCH  21  22
ATOM     22  N   UNL     1       6.741   4.170  16.331  0.00  0.00    +0.000 NA
ATOM     23  H   UNL     1       6.846   3.541  17.127  0.00  0.00    +0.000 HD
BRANCH  22  24
ATOM     24  C   UNL     1       5.368   4.098  15.841  0.00  0.00    +0.000 C 
BRANCH  24  25
ATOM     25  C   UNL     1       4.383   4.085  16.997  0.00  0.00    +0.000 A 
ATOM     26  C   UNL     1       4.064   2.884  17.649  0.00  0.00    +0.000 A 
ATOM     27  C   UNL     1       3.141   2.867  18.703  0.00  0.00    +0.000 A 
ATOM     28  C   UNL     1       2.511   4.047  19.125  0.00  0.00    +0.000 A 
ATOM     29  C   UNL     1       2.825   5.245  18.466  0.00  0.00    +0.000 A 
ATOM     30  C   UNL     1       3.760   5.267  17.426  0.00  0.00    +0.000 A 
BRANCH  28  31
ATOM     31  C   UNL     1       1.532   4.013  20.281  0.00  0.00    +0.000 C 
ATOM     32  C   UNL     1       0.358   3.079  19.979  0.00  0.00    +0.000 C 
ATOM     33  C   UNL     1       2.212   3.629  21.596  0.00  0.00    +0.000 C 
ENDBRANCH  28  31
ENDBRANCH  24  25
ENDBRANCH  22  24
ENDBRANCH  21  22
ENDBRANCH  20  21
ENDBRANCH  19  20
ENDBRANCH   1  19
TORSDOF 15
ENDMDL
