MODEL 1
REMARK VINA RESULT:      -6.4      0.000      0.000
REMARK  Name = 
REMARK  5 active torsions:
REMARK  status: ('A' for Active; 'I' for Inactive)
REMARK    1  A    between atoms: C_1  and  O_2
REMARK    2  A    between atoms: O_2  and  C_3
REMARK    3  A    between atoms: C_3  and  C_4
REMARK    4  A    between atoms: N_16  and  C_17
REMARK    5  A    between atoms: C_17  and  C_18
REMARK                            x       y       z     vdW  Elec       q    Type
REMARK                         _______ _______ _______ _____ _____    ______ ____
ROOT
ATOM      1  C   UNL     1       7.140   4.960  16.639  0.00  0.00    +0.000 C 
ATOM      2  O   UNL     1       7.944   4.096  17.002  0.00  0.00    +0.000 OA
ATOM      3  N   UNL     1       5.955   5.226  17.333  0.00  0.00    +0.000 N 
ATOM      4  C   UNL     1       5.616   4.463  18.542  0.00  0.00    +0.000 C 
ATOM      5  C   UNL     1       4.677   5.233  19.502  0.00  0.00    +0.000 C 
ATOM      6  C   UNL     1       3.442   5.876  18.766  0.00  0.00    +0.000 C 
ATOM      7  C   UNL     1       4.087   6.736  17.663  0.00  0.00    +0.000 C 
ATOM      8  C   UNL     1       4.859   5.908  16.678  0.00  0.00    +0.000 C 
ATOM      9  C   UNL     1       2.544   4.692  18.278  0.00  0.00    +0.000 C 
ATOM     10  O   UNL     1       1.996   3.964  19.394  0.00  0.00    +0.000 OA
ATOM     11  C   UNL     1       1.238   4.798  20.278  0.00  0.00    +0.000 C 
ATOM     12  C   UNL     1       2.026   6.037  20.737  0.00  0.00    +0.000 C 
ATOM     13  N   UNL     1       2.604   6.811  19.614  0.00  0.00    +0.000 NA
ENDROOT
BRANCH   1  14
ATOM     14  C   UNL     1       7.439   5.882  15.433  0.00  0.00    +0.000 C 
BRANCH  14  16
ATOM     15  C   UNL     1       6.615   4.377  13.842  0.00  0.00    +0.000 C 
ATOM     16  O   UNL     1       7.717   5.193  14.225  0.00  0.00    +0.000 OA
ENDBRANCH  14  16
ENDBRANCH   1  14
BRANCH  13  17
ATOM     17  C   UNL     1       1.521   7.457  18.814  0.00  0.00    +0.000 C 
BRANCH  17  18
ATOM     18  C   UNL     1       1.414   8.951  18.955  0.00  0.00    +0.000 A 
ATOM     19  C   UNL     1       1.959   9.790  17.981  0.00  0.00    +0.000 A 
ATOM     20  C   UNL     1       1.910  11.176  18.137  0.00  0.00    +0.000 A 
ATOM     21  C   UNL     1       1.303  11.714  19.266  0.00  0.00    +0.000 A 
ATOM     22  F   UNL     1       1.291  13.041  19.439  0.00  0.00    +0.000 F 
ATOM     23  C   UNL     1       0.711  10.897  20.221  0.00  0.00    +0.000 A 
ATOM     24  C   UNL     1       0.754   9.514  20.063  0.00  0.00    +0.000 A 
ENDBRANCH  17  18
ENDBRANCH  13  17
TORSDOF 4
ENDMDL
MODEL 2
REMARK VINA RESULT:      -6.3      0.263      1.016
REMARK  Name = 
REMARK  5 active torsions:
REMARK  status: ('A' for Active; 'I' for Inactive)
REMARK    1  A    between atoms: C_1  and  O_2
REMARK    2  A    between atoms: O_2  and  C_3
REMARK    3  A    between atoms: C_3  and  C_4
REMARK    4  A    between atoms: N_16  and  C_17
REMARK    5  A    between atoms: C_17  and  C_18
REMARK                            x       y       z     vdW  Elec       q    Type
REMARK                         _______ _______ _______ _____ _____    ______ ____
ROOT
ATOM      1  C   UNL     1       7.163   5.001  16.693  0.00  0.00    +0.000 C 
ATOM      2  O   UNL     1       7.949   4.110  17.029  0.00  0.00    +0.000 OA
ATOM      3  N   UNL     1       5.966   5.244  17.372  0.00  0.00    +0.000 N 
ATOM      4  C   UNL     1       5.590   4.425  18.532  0.00  0.00    +0.000 C 
ATOM      5  C   UNL     1       4.638   5.156  19.509  0.00  0.00    +0.000 C 
ATOM      6  C   UNL     1       3.427   5.850  18.780  0.00  0.00    +0.000 C 
ATOM      7  C   UNL     1       4.106   6.758  17.737  0.00  0.00    +0.000 C 
ATOM      8  C   UNL     1       4.892   5.973  16.729  0.00  0.00    +0.000 C 
ATOM      9  C   UNL     1       2.528   4.703  18.211  0.00  0.00    +0.000 C 
ATOM     10  O   UNL     1       1.946   3.926  19.275  0.00  0.00    +0.000 OA
ATOM     11  C   UNL     1       1.177   4.722  20.184  0.00  0.00    +0.000 C 
ATOM     12  C   UNL     1       1.967   5.927  20.724  0.00  0.00    +0.000 C 
ATOM     13  N   UNL     1       2.580   6.750  19.656  0.00  0.00    +0.000 NA
ENDROOT
BRANCH   1  14
ATOM     14  C   UNL     1       7.500   5.980  15.543  0.00  0.00    +0.000 C 
BRANCH  14  16
ATOM     15  C   UNL     1       6.720   4.553  13.859  0.00  0.00    +0.000 C 
ATOM     16  O   UNL     1       7.811   5.350  14.311  0.00  0.00    +0.000 OA
ENDBRANCH  14  16
ENDBRANCH   1  14
BRANCH  13  17
ATOM     17  C   UNL     1       1.522   7.449  18.865  0.00  0.00    +0.000 C 
BRANCH  17  18
ATOM     18  C   UNL     1       1.363   8.917  19.152  0.00  0.00    +0.000 A 
ATOM     19  C   UNL     1       0.844   9.342  20.377  0.00  0.00    +0.000 A 
ATOM     20  C   UNL     1       0.645  10.700  20.625  0.00  0.00    +0.000 A 
ATOM     21  C   UNL     1       0.978  11.628  19.645  0.00  0.00    +0.000 A 
ATOM     22  F   UNL     1       0.749  12.929  19.864  0.00  0.00    +0.000 F 
ATOM     23  C   UNL     1       1.542  11.229  18.440  0.00  0.00    +0.000 A 
ATOM     24  C   UNL     1       1.747   9.874  18.194  0.00  0.00    +0.000 A 
ENDBRANCH  17  18
ENDBRANCH  13  17
TORSDOF 4
ENDMDL
MODEL 3
REMARK VINA RESULT:      -6.3      4.141      5.622
REMARK  Name = 
REMARK  5 active torsions:
REMARK  status: ('A' for Active; 'I' for Inactive)
REMARK    1  A    between atoms: C_1  and  O_2
REMARK    2  A    between atoms: O_2  and  C_3
REMARK    3  A    between atoms: C_3  and  C_4
REMARK    4  A    between atoms: N_16  and  C_17
REMARK    5  A    between atoms: C_17  and  C_18
REMARK                            x       y       z     vdW  Elec       q    Type
REMARK                         _______ _______ _______ _____ _____    ______ ____
ROOT
ATOM      1  C   UNL     1       7.354   4.979  12.832  0.00  0.00    +0.000 C 
ATOM      2  O   UNL     1       7.950   5.990  12.449  0.00  0.00    +0.000 OA
ATOM      3  N   UNL     1       6.751   4.892  14.091  0.00  0.00    +0.000 N 
ATOM      4  C   UNL     1       6.812   6.026  15.024  0.00  0.00    +0.000 C 
ATOM      5  C   UNL     1       5.645   6.040  16.040  0.00  0.00    +0.000 C 
ATOM      6  C   UNL     1       5.413   4.641  16.725  0.00  0.00    +0.000 C 
ATOM      7  C   UNL     1       5.223   3.682  15.535  0.00  0.00    +0.000 C 
ATOM      8  C   UNL     1       6.448   3.601  14.672  0.00  0.00    +0.000 C 
ATOM      9  C   UNL     1       6.660   4.373  17.632  0.00  0.00    +0.000 C 
ATOM     10  O   UNL     1       6.731   5.327  18.709  0.00  0.00    +0.000 OA
ATOM     11  C   UNL     1       5.550   5.332  19.519  0.00  0.00    +0.000 C 
ATOM     12  C   UNL     1       4.267   5.505  18.689  0.00  0.00    +0.000 C 
ATOM     13  N   UNL     1       4.161   4.539  17.571  0.00  0.00    +0.000 NA
ENDROOT
BRANCH   1  14
ATOM     14  C   UNL     1       7.152   3.762  11.899  0.00  0.00    +0.000 C 
BRANCH  14  16
ATOM     15  C   UNL     1       5.632   2.025  11.506  0.00  0.00    +0.000 C 
ATOM     16  O   UNL     1       5.795   3.433  11.652  0.00  0.00    +0.000 OA
ENDBRANCH  14  16
ENDBRANCH   1  14
BRANCH  13  17
ATOM     17  C   UNL     1       3.962   3.154  18.096  0.00  0.00    +0.000 C 
BRANCH  17  18
ATOM     18  C   UNL     1       3.068   3.040  19.300  0.00  0.00    +0.000 A 
ATOM     19  C   UNL     1       3.581   2.586  20.517  0.00  0.00    +0.000 A 
ATOM     20  C   UNL     1       2.743   2.428  21.620  0.00  0.00    +0.000 A 
ATOM     21  C   UNL     1       1.393   2.736  21.501  0.00  0.00    +0.000 A 
ATOM     22  F   UNL     1       0.577   2.545  22.545  0.00  0.00    +0.000 F 
ATOM     23  C   UNL     1       0.873   3.236  20.314  0.00  0.00    +0.000 A 
ATOM     24  C   UNL     1       1.710   3.401  19.214  0.00  0.00    +0.000 A 
ENDBRANCH  17  18
ENDBRANCH  13  17
TORSDOF 4
ENDMDL
MODEL 4
REMARK VINA RESULT:      -6.2      5.557      9.643
REMARK  Name = 
REMARK  5 active torsions:
REMARK  status: ('A' for Active; 'I' for Inactive)
REMARK    1  A    between atoms: C_1  and  O_2
REMARK    2  A    between atoms: O_2  and  C_3
REMARK    3  A    between atoms: C_3  and  C_4
REMARK    4  A    between atoms: N_16  and  C_17
REMARK    5  A    between atoms: C_17  and  C_18
REMARK                            x       y       z     vdW  Elec       q    Type
REMARK                         _______ _______ _______ _____ _____    ______ ____
ROOT
ATOM      1  C   UNL     1      -5.158  12.011  19.097  0.00  0.00    +0.000 C 
ATOM      2  O   UNL     1      -5.855  12.803  19.737  0.00  0.00    +0.000 OA
ATOM      3  N   UNL     1      -3.763  11.980  19.201  0.00  0.00    +0.000 N 
ATOM      4  C   UNL     1      -3.064  12.916  20.092  0.00  0.00    +0.000 C 
ATOM      5  C   UNL     1      -1.690  12.388  20.569  0.00  0.00    +0.000 C 
ATOM      6  C   UNL     1      -0.808  11.824  19.393  0.00  0.00    +0.000 C 
ATOM      7  C   UNL     1      -1.716  10.766  18.737  0.00  0.00    +0.000 C 
ATOM      8  C   UNL     1      -2.963  11.368  18.161  0.00  0.00    +0.000 C 
ATOM      9  C   UNL     1      -0.419  13.046  18.497  0.00  0.00    +0.000 C 
ATOM     10  O   UNL     1       0.430  13.963  19.213  0.00  0.00    +0.000 OA
ATOM     11  C   UNL     1       1.622  13.341  19.706  0.00  0.00    +0.000 C 
ATOM     12  C   UNL     1       1.327  12.075  20.529  0.00  0.00    +0.000 C 
ATOM     13  N   UNL     1       0.456  11.108  19.823  0.00  0.00    +0.000 NA
ENDROOT
BRANCH   1  14
ATOM     14  C   UNL     1      -5.793  10.923  18.199  0.00  0.00    +0.000 C 
BRANCH  14  16
ATOM     15  C   UNL     1      -6.949   9.316  19.448  0.00  0.00    +0.000 C 
ATOM     16  O   UNL     1      -7.068  10.478  18.632  0.00  0.00    +0.000 OA
ENDBRANCH  14  16
ENDBRANCH   1  14
BRANCH  13  17
ATOM     17  C   UNL     1       1.175  10.514  18.656  0.00  0.00    +0.000 C 
BRANCH  17  18
ATOM     18  C   UNL     1       1.690   9.115  18.857  0.00  0.00    +0.000 A 
ATOM     19  C   UNL     1       2.373   8.462  17.828  0.00  0.00    +0.000 A 
ATOM     20  C   UNL     1       2.803   7.146  17.992  0.00  0.00    +0.000 A 
ATOM     21  C   UNL     1       2.556   6.492  19.193  0.00  0.00    +0.000 A 
ATOM     22  F   UNL     1       2.930   5.215  19.339  0.00  0.00    +0.000 F 
ATOM     23  C   UNL     1       1.923   7.141  20.246  0.00  0.00    +0.000 A 
ATOM     24  C   UNL     1       1.499   8.457  20.086  0.00  0.00    +0.000 A 
ENDBRANCH  17  18
ENDBRANCH  13  17
TORSDOF 4
ENDMDL
MODEL 5
REMARK VINA RESULT:      -6.2      2.357      4.396
REMARK  Name = 
REMARK  5 active torsions:
REMARK  status: ('A' for Active; 'I' for Inactive)
REMARK    1  A    between atoms: C_1  and  O_2
REMARK    2  A    between atoms: O_2  and  C_3
REMARK    3  A    between atoms: C_3  and  C_4
REMARK    4  A    between atoms: N_16  and  C_17
REMARK    5  A    between atoms: C_17  and  C_18
REMARK                            x       y       z     vdW  Elec       q    Type
REMARK                         _______ _______ _______ _____ _____    ______ ____
ROOT
ATOM      1  C   UNL     1       6.343   3.364  12.201  0.00  0.00    +0.000 C 
ATOM      2  O   UNL     1       7.347   3.410  11.484  0.00  0.00    +0.000 OA
ATOM      3  N   UNL     1       6.284   3.982  13.454  0.00  0.00    +0.000 N 
ATOM      4  C   UNL     1       7.444   4.719  13.974  0.00  0.00    +0.000 C 
ATOM      5  C   UNL     1       7.058   5.813  14.998  0.00  0.00    +0.000 C 
ATOM      6  C   UNL     1       6.064   5.295  16.104  0.00  0.00    +0.000 C 
ATOM      7  C   UNL     1       4.886   4.725  15.291  0.00  0.00    +0.000 C 
ATOM      8  C   UNL     1       5.299   3.567  14.431  0.00  0.00    +0.000 C 
ATOM      9  C   UNL     1       6.858   4.268  16.976  0.00  0.00    +0.000 C 
ATOM     10  O   UNL     1       7.930   4.914  17.689  0.00  0.00    +0.000 OA
ATOM     11  C   UNL     1       7.471   5.985  18.522  0.00  0.00    +0.000 C 
ATOM     12  C   UNL     1       6.605   6.998  17.754  0.00  0.00    +0.000 C 
ATOM     13  N   UNL     1       5.492   6.368  17.007  0.00  0.00    +0.000 NA
ENDROOT
BRANCH   1  14
ATOM     14  C   UNL     1       5.037   2.692  11.715  0.00  0.00    +0.000 C 
BRANCH  14  16
ATOM     15  C   UNL     1       3.441   3.534  10.224  0.00  0.00    +0.000 C 
ATOM     16  O   UNL     1       3.945   3.583  11.555  0.00  0.00    +0.000 OA
ENDBRANCH  14  16
ENDBRANCH   1  14
BRANCH  13  17
ATOM     17  C   UNL     1       4.481   5.807  17.955  0.00  0.00    +0.000 C 
BRANCH  17  18
ATOM     18  C   UNL     1       3.422   6.771  18.416  0.00  0.00    +0.000 A 
ATOM     19  C   UNL     1       3.055   7.851  17.610  0.00  0.00    +0.000 A 
ATOM     20  C   UNL     1       2.113   8.777  18.059  0.00  0.00    +0.000 A 
ATOM     21  C   UNL     1       1.535   8.609  19.311  0.00  0.00    +0.000 A 
ATOM     22  F   UNL     1       0.662   9.518  19.763  0.00  0.00    +0.000 F 
ATOM     23  C   UNL     1       1.850   7.514  20.107  0.00  0.00    +0.000 A 
ATOM     24  C   UNL     1       2.785   6.586  19.657  0.00  0.00    +0.000 A 
ENDBRANCH  17  18
ENDBRANCH  13  17
TORSDOF 4
ENDMDL
MODEL 6
REMARK VINA RESULT:      -6.2      4.361      5.888
REMARK  Name = 
REMARK  5 active torsions:
REMARK  status: ('A' for Active; 'I' for Inactive)
REMARK    1  A    between atoms: C_1  and  O_2
REMARK    2  A    between atoms: O_2  and  C_3
REMARK    3  A    between atoms: C_3  and  C_4
REMARK    4  A    between atoms: N_16  and  C_17
REMARK    5  A    between atoms: C_17  and  C_18
REMARK                            x       y       z     vdW  Elec       q    Type
REMARK                         _______ _______ _______ _____ _____    ______ ____
ROOT
ATOM      1  C   UNL     1       6.674   4.215  12.705  0.00  0.00    +0.000 C 
ATOM      2  O   UNL     1       7.334   4.941  11.954  0.00  0.00    +0.000 OA
ATOM      3  N   UNL     1       6.588   4.437  14.083  0.00  0.00    +0.000 N 
ATOM      4  C   UNL     1       7.302   5.563  14.700  0.00  0.00    +0.000 C 
ATOM      5  C   UNL     1       6.653   6.042  16.021  0.00  0.00    +0.000 C 
ATOM      6  C   UNL     1       6.324   4.859  17.006  0.00  0.00    +0.000 C 
ATOM      7  C   UNL     1       5.447   3.916  16.159  0.00  0.00    +0.000 C 
ATOM      8  C   UNL     1       6.187   3.369  14.974  0.00  0.00    +0.000 C 
ATOM      9  C   UNL     1       7.696   4.277  17.484  0.00  0.00    +0.000 C 
ATOM     10  O   UNL     1       8.423   5.243  18.266  0.00  0.00    +0.000 OA
ATOM     11  C   UNL     1       7.683   5.701  19.403  0.00  0.00    +0.000 C 
ATOM     12  C   UNL     1       6.282   6.212  19.027  0.00  0.00    +0.000 C 
ATOM     13  N   UNL     1       5.504   5.242  18.221  0.00  0.00    +0.000 NA
ENDROOT
BRANCH   1  14
ATOM     14  C   UNL     1       5.813   3.056  12.151  0.00  0.00    +0.000 C 
BRANCH  14  16
ATOM     15  C   UNL     1       3.868   3.054  10.849  0.00  0.00    +0.000 C 
ATOM     16  O   UNL     1       4.419   3.317  12.135  0.00  0.00    +0.000 OA
ENDBRANCH  14  16
ENDBRANCH   1  14
BRANCH  13  17
ATOM     17  C   UNL     1       5.148   4.047  19.044  0.00  0.00    +0.000 C 
BRANCH  17  18
ATOM     18  C   UNL     1       3.741   3.541  18.875  0.00  0.00    +0.000 A 
ATOM     19  C   UNL     1       2.671   4.438  18.837  0.00  0.00    +0.000 A 
ATOM     20  C   UNL     1       1.362   3.969  18.735  0.00  0.00    +0.000 A 
ATOM     21  C   UNL     1       1.132   2.601  18.661  0.00  0.00    +0.000 A 
ATOM     22  F   UNL     1      -0.126   2.145  18.606  0.00  0.00    +0.000 F 
ATOM     23  C   UNL     1       2.185   1.695  18.647  0.00  0.00    +0.000 A 
ATOM     24  C   UNL     1       3.493   2.163  18.742  0.00  0.00    +0.000 A 
ENDBRANCH  17  18
ENDBRANCH  13  17
TORSDOF 4
ENDMDL
MODEL 7
REMARK VINA RESULT:      -6.1      2.341      4.363
REMARK  Name = 
REMARK  5 active torsions:
REMARK  status: ('A' for Active; 'I' for Inactive)
REMARK    1  A    between atoms: C_1  and  O_2
REMARK    2  A    between atoms: O_2  and  C_3
REMARK    3  A    between atoms: C_3  and  C_4
REMARK    4  A    between atoms: N_16  and  C_17
REMARK    5  A    between atoms: C_17  and  C_18
REMARK                            x       y       z     vdW  Elec       q    Type
REMARK                         _______ _______ _______ _____ _____    ______ ____
ROOT
ATOM      1  C   UNL     1       6.380   3.470  12.350  0.00  0.00    +0.000 C 
ATOM      2  O   UNL     1       7.415   3.486  11.678  0.00  0.00    +0.000 OA
ATOM      3  N   UNL     1       6.296   4.051  13.619  0.00  0.00    +0.000 N 
ATOM      4  C   UNL     1       7.468   4.711  14.212  0.00  0.00    +0.000 C 
ATOM      5  C   UNL     1       7.092   5.792  15.254  0.00  0.00    +0.000 C 
ATOM      6  C   UNL     1       6.025   5.291  16.299  0.00  0.00    +0.000 C 
ATOM      7  C   UNL     1       4.857   4.808  15.418  0.00  0.00    +0.000 C 
ATOM      8  C   UNL     1       5.249   3.658  14.538  0.00  0.00    +0.000 C 
ATOM      9  C   UNL     1       6.727   4.198  17.170  0.00  0.00    +0.000 C 
ATOM     10  O   UNL     1       7.797   4.766  17.949  0.00  0.00    +0.000 OA
ATOM     11  C   UNL     1       7.356   5.833  18.796  0.00  0.00    +0.000 C 
ATOM     12  C   UNL     1       6.577   6.912  18.026  0.00  0.00    +0.000 C 
ATOM     13  N   UNL     1       5.468   6.364  17.212  0.00  0.00    +0.000 NA
ENDROOT
BRANCH   1  14
ATOM     14  C   UNL     1       5.064   2.882  11.787  0.00  0.00    +0.000 C 
BRANCH  14  16
ATOM     15  C   UNL     1       3.194   3.182  10.411  0.00  0.00    +0.000 C 
ATOM     16  O   UNL     1       4.225   3.831  11.149  0.00  0.00    +0.000 OA
ENDBRANCH  14  16
ENDBRANCH   1  14
BRANCH  13  17
ATOM     17  C   UNL     1       4.389   5.827  18.096  0.00  0.00    +0.000 C 
BRANCH  17  18
ATOM     18  C   UNL     1       3.362   6.831  18.546  0.00  0.00    +0.000 A 
ATOM     19  C   UNL     1       2.766   6.710  19.803  0.00  0.00    +0.000 A 
ATOM     20  C   UNL     1       1.774   7.607  20.202  0.00  0.00    +0.000 A 
ATOM     21  C   UNL     1       1.394   8.629  19.340  0.00  0.00    +0.000 A 
ATOM     22  F   UNL     1       0.413   9.466  19.702  0.00  0.00    +0.000 F 
ATOM     23  C   UNL     1       2.010   8.796  18.107  0.00  0.00    +0.000 A 
ATOM     24  C   UNL     1       3.004   7.905  17.711  0.00  0.00    +0.000 A 
ENDBRANCH  17  18
ENDBRANCH  13  17
TORSDOF 4
ENDMDL
MODEL 8
REMARK VINA RESULT:      -6.1      4.285      5.732
REMARK  Name = 
REMARK  5 active torsions:
REMARK  status: ('A' for Active; 'I' for Inactive)
REMARK    1  A    between atoms: C_1  and  O_2
REMARK    2  A    between atoms: O_2  and  C_3
REMARK    3  A    between atoms: C_3  and  C_4
REMARK    4  A    between atoms: N_16  and  C_17
REMARK    5  A    between atoms: C_17  and  C_18
REMARK                            x       y       z     vdW  Elec       q    Type
REMARK                         _______ _______ _______ _____ _____    ______ ____
ROOT
ATOM      1  C   UNL     1       6.722   4.107  12.591  0.00  0.00    +0.000 C 
ATOM      2  O   UNL     1       7.321   4.892  11.849  0.00  0.00    +0.000 OA
ATOM      3  N   UNL     1       6.570   4.334  13.962  0.00  0.00    +0.000 N 
ATOM      4  C   UNL     1       7.136   5.540  14.582  0.00  0.00    +0.000 C 
ATOM      5  C   UNL     1       6.397   5.961  15.876  0.00  0.00    +0.000 C 
ATOM      6  C   UNL     1       6.169   4.761  16.869  0.00  0.00    +0.000 C 
ATOM      7  C   UNL     1       5.428   3.717  16.011  0.00  0.00    +0.000 C 
ATOM      8  C   UNL     1       6.260   3.240  14.857  0.00  0.00    +0.000 C 
ATOM      9  C   UNL     1       7.581   4.340  17.396  0.00  0.00    +0.000 C 
ATOM     10  O   UNL     1       8.173   5.389  18.185  0.00  0.00    +0.000 OA
ATOM     11  C   UNL     1       7.352   5.777  19.292  0.00  0.00    +0.000 C 
ATOM     12  C   UNL     1       5.916   6.125  18.866  0.00  0.00    +0.000 C 
ATOM     13  N   UNL     1       5.275   5.067  18.053  0.00  0.00    +0.000 NA
ENDROOT
BRANCH   1  14
ATOM     14  C   UNL     1       6.011   2.853  12.029  0.00  0.00    +0.000 C 
BRANCH  14  16
ATOM     15  C   UNL     1       6.193   0.737  11.045  0.00  0.00    +0.000 C 
ATOM     16  O   UNL     1       6.862   1.963  11.327  0.00  0.00    +0.000 OA
ENDBRANCH  14  16
ENDBRANCH   1  14
BRANCH  13  17
ATOM     17  C   UNL     1       5.026   3.850  18.883  0.00  0.00    +0.000 C 
BRANCH  17  18
ATOM     18  C   UNL     1       3.581   3.548  19.173  0.00  0.00    +0.000 A 
ATOM     19  C   UNL     1       2.928   2.516  18.494  0.00  0.00    +0.000 A 
ATOM     20  C   UNL     1       1.574   2.269  18.721  0.00  0.00    +0.000 A 
ATOM     21  C   UNL     1       0.883   3.052  19.637  0.00  0.00    +0.000 A 
ATOM     22  F   UNL     1      -0.427   2.846  19.826  0.00  0.00    +0.000 F 
ATOM     23  C   UNL     1       1.525   4.050  20.358  0.00  0.00    +0.000 A 
ATOM     24  C   UNL     1       2.879   4.293  20.137  0.00  0.00    +0.000 A 
ENDBRANCH  17  18
ENDBRANCH  13  17
TORSDOF 4
ENDMDL
MODEL 9
REMARK VINA RESULT:      -6.1      5.655      9.818
REMARK  Name = 
REMARK  5 active torsions:
REMARK  status: ('A' for Active; 'I' for Inactive)
REMARK    1  A    between atoms: C_1  and  O_2
REMARK    2  A    between atoms: O_2  and  C_3
REMARK    3  A    between atoms: C_3  and  C_4
REMARK    4  A    between atoms: N_16  and  C_17
REMARK    5  A    between atoms: C_17  and  C_18
REMARK                            x       y       z     vdW  Elec       q    Type
REMARK                         _______ _______ _______ _____ _____    ______ ____
ROOT
ATOM      1  C   UNL     1      -5.299  12.357  19.215  0.00  0.00    +0.000 C 
ATOM      2  O   UNL     1      -5.946  13.153  19.902  0.00  0.00    +0.000 OA
ATOM      3  N   UNL     1      -3.909  12.234  19.312  0.00  0.00    +0.000 N 
ATOM      4  C   UNL     1      -3.153  13.072  20.254  0.00  0.00    +0.000 C 
ATOM      5  C   UNL     1      -1.814  12.434  20.695  0.00  0.00    +0.000 C 
ATOM      6  C   UNL     1      -0.969  11.885  19.484  0.00  0.00    +0.000 C 
ATOM      7  C   UNL     1      -1.940  10.924  18.772  0.00  0.00    +0.000 C 
ATOM      8  C   UNL     1      -3.148  11.635  18.236  0.00  0.00    +0.000 C 
ATOM      9  C   UNL     1      -0.505  13.131  18.659  0.00  0.00    +0.000 C 
ATOM     10  O   UNL     1       0.398  13.951  19.424  0.00  0.00    +0.000 OA
ATOM     11  C   UNL     1       1.549  13.228  19.876  0.00  0.00    +0.000 C 
ATOM     12  C   UNL     1       1.177  11.938  20.626  0.00  0.00    +0.000 C 
ATOM     13  N   UNL     1       0.248  11.069  19.868  0.00  0.00    +0.000 NA
ENDROOT
BRANCH   1  14
ATOM     14  C   UNL     1      -6.000  11.364  18.258  0.00  0.00    +0.000 C 
BRANCH  14  16
ATOM     15  C   UNL     1      -6.936   9.537  19.383  0.00  0.00    +0.000 C 
ATOM     16  O   UNL     1      -7.194  10.799  18.774  0.00  0.00    +0.000 OA
ENDBRANCH  14  16
ENDBRANCH   1  14
BRANCH  13  17
ATOM     17  C   UNL     1       0.929  10.500  18.666  0.00  0.00    +0.000 C 
BRANCH  17  18
ATOM     18  C   UNL     1       1.542   9.139  18.853  0.00  0.00    +0.000 A 
ATOM     19  C   UNL     1       1.377   8.453  20.059  0.00  0.00    +0.000 A 
ATOM     20  C   UNL     1       1.988   7.215  20.255  0.00  0.00    +0.000 A 
ATOM     21  C   UNL     1       2.755   6.664  19.236  0.00  0.00    +0.000 A 
ATOM     22  F   UNL     1       3.378   5.496  19.436  0.00  0.00    +0.000 F 
ATOM     23  C   UNL     1       2.890   7.307  18.012  0.00  0.00    +0.000 A 
ATOM     24  C   UNL     1       2.275   8.540  17.812  0.00  0.00    +0.000 A 
ENDBRANCH  17  18
ENDBRANCH  13  17
TORSDOF 4
ENDMDL
