MODEL 1
REMARK VINA RESULT:      -8.3      0.000      0.000
REMARK  Name = 
REMARK  5 active torsions:
REMARK  status: ('A' for Active; 'I' for Inactive)
REMARK    1  A    between atoms: C_2  and  C_5
REMARK    2  A    between atoms: N_3  and  O_4
REMARK    3  A    between atoms: C_6  and  C_7
REMARK    4  A    between atoms: C_13  and  C_14
REMARK    5  A    between atoms: C_17  and  C_18
REMARK                            x       y       z     vdW  Elec       q    Type
REMARK                         _______ _______ _______ _____ _____    ______ ____
ROOT
ATOM      1  C   UNL     1       2.625   4.480  18.568  0.00  0.00    +0.000 C 
ATOM      2  C   UNL     1       3.318   5.400  17.591  0.00  0.00    +0.000 C 
ATOM      3  C   UNL     1       3.269   5.752  19.076  0.00  0.00    +0.000 C 
ENDROOT
BRANCH   2   4
ATOM      4  C   UNL     1       4.646   5.121  16.924  0.00  0.00    +0.000 A 
ATOM      5  C   UNL     1       4.809   4.060  16.018  0.00  0.00    +0.000 A 
ATOM      6  C   UNL     1       6.006   3.873  15.319  0.00  0.00    +0.000 A 
ATOM      7  C   UNL     1       7.069   4.752  15.506  0.00  0.00    +0.000 A 
ATOM      8  C   UNL     1       6.939   5.807  16.401  0.00  0.00    +0.000 A 
ATOM      9  C   UNL     1       5.742   5.986  17.101  0.00  0.00    +0.000 A 
ENDBRANCH   2   4
BRANCH   3  10
ATOM     10  C   UNL     1       2.451   6.960  19.480  0.00  0.00    +0.000 A 
ATOM     11  C   UNL     1       2.247   8.061  18.633  0.00  0.00    +0.000 A 
ATOM     12  C   UNL     1       1.487   9.168  19.046  0.00  0.00    +0.000 A 
ATOM     13  C   UNL     1       0.901   9.205  20.317  0.00  0.00    +0.000 A 
ATOM     14  C   UNL     1       1.085   8.102  21.158  0.00  0.00    +0.000 A 
ATOM     15  C   UNL     1       1.842   7.004  20.743  0.00  0.00    +0.000 A 
BRANCH  13  16
ATOM     16  C   UNL     1       0.128  10.368  20.748  0.00  0.00    +0.000 A 
ATOM     17  N   UNL     1       0.221  11.085  21.853  0.00  0.00    +0.000 NA
ATOM     18  C   UNL     1      -0.765  12.032  21.720  0.00  0.00    +0.000 A 
ATOM     19  C   UNL     1      -1.429  11.852  20.534  0.00  0.00    +0.000 A 
ATOM     20  O   UNL     1      -0.867  10.789  19.898  0.00  0.00    +0.000 OA
ENDBRANCH  13  16
ENDBRANCH   3  10
BRANCH   1  22
ATOM     21  O   UNL     1       2.661   2.096  18.652  0.00  0.00    +0.000 OA
ATOM     22  C   UNL     1       3.184   3.162  18.962  0.00  0.00    +0.000 C 
ATOM     23  N   UNL     1       4.354   3.228  19.678  0.00  0.00    +0.000 N 
ATOM     24  H   UNL     1       4.910   4.065  19.792  0.00  0.00    +0.000 HD
BRANCH  23  25
ATOM     25  O   UNL     1       4.982   1.996  19.967  0.00  0.00    +0.000 OA
ATOM     26  H   UNL     1       4.418   1.354  19.480  0.00  0.00    +0.000 HD
ENDBRANCH  23  25
ENDBRANCH   1  22
TORSDOF 5
ENDMDL
MODEL 2
REMARK VINA RESULT:      -8.3      0.690      1.260
REMARK  Name = 
REMARK  5 active torsions:
REMARK  status: ('A' for Active; 'I' for Inactive)
REMARK    1  A    between atoms: C_2  and  C_5
REMARK    2  A    between atoms: N_3  and  O_4
REMARK    3  A    between atoms: C_6  and  C_7
REMARK    4  A    between atoms: C_13  and  C_14
REMARK    5  A    between atoms: C_17  and  C_18
REMARK                            x       y       z     vdW  Elec       q    Type
REMARK                         _______ _______ _______ _____ _____    ______ ____
ROOT
ATOM      1  C   UNL     1       2.632   4.628  18.480  0.00  0.00    +0.000 C 
ATOM      2  C   UNL     1       3.307   5.581  17.521  0.00  0.00    +0.000 C 
ATOM      3  C   UNL     1       3.251   5.901  19.013  0.00  0.00    +0.000 C 
ENDROOT
BRANCH   2   4
ATOM      4  C   UNL     1       4.640   5.343  16.849  0.00  0.00    +0.000 A 
ATOM      5  C   UNL     1       5.769   6.120  17.155  0.00  0.00    +0.000 A 
ATOM      6  C   UNL     1       7.026   5.826  16.615  0.00  0.00    +0.000 A 
ATOM      7  C   UNL     1       7.182   4.739  15.761  0.00  0.00    +0.000 A 
ATOM      8  C   UNL     1       6.082   3.955  15.436  0.00  0.00    +0.000 A 
ATOM      9  C   UNL     1       4.827   4.257  15.974  0.00  0.00    +0.000 A 
ENDBRANCH   2   4
BRANCH   3  10
ATOM     10  C   UNL     1       2.409   7.084  19.441  0.00  0.00    +0.000 A 
ATOM     11  C   UNL     1       2.136   8.172  18.597  0.00  0.00    +0.000 A 
ATOM     12  C   UNL     1       1.356   9.256  19.033  0.00  0.00    +0.000 A 
ATOM     13  C   UNL     1       0.817   9.282  20.326  0.00  0.00    +0.000 A 
ATOM     14  C   UNL     1       1.069   8.191  21.165  0.00  0.00    +0.000 A 
ATOM     15  C   UNL     1       1.846   7.115  20.727  0.00  0.00    +0.000 A 
BRANCH  13  16
ATOM     16  C   UNL     1       0.022  10.421  20.780  0.00  0.00    +0.000 A 
ATOM     17  N   UNL     1      -0.894  11.124  20.139  0.00  0.00    +0.000 NA
ATOM     18  C   UNL     1      -1.284  12.073  21.052  0.00  0.00    +0.000 A 
ATOM     19  C   UNL     1      -0.583  11.915  22.220  0.00  0.00    +0.000 A 
ATOM     20  O   UNL     1       0.257  10.857  22.062  0.00  0.00    +0.000 OA
ENDBRANCH  13  16
ENDBRANCH   3  10
BRANCH   1  22
ATOM     21  O   UNL     1       2.754   2.244  18.460  0.00  0.00    +0.000 OA
ATOM     22  C   UNL     1       3.218   3.313  18.846  0.00  0.00    +0.000 C 
ATOM     23  N   UNL     1       4.342   3.387  19.631  0.00  0.00    +0.000 N 
ATOM     24  H   UNL     1       4.860   4.238  19.813  0.00  0.00    +0.000 HD
BRANCH  23  25
ATOM     25  O   UNL     1       5.000   2.166  19.900  0.00  0.00    +0.000 OA
ATOM     26  H   UNL     1       5.867   2.468  20.251  0.00  0.00    +0.000 HD
ENDBRANCH  23  25
ENDBRANCH   1  22
TORSDOF 5
ENDMDL
MODEL 3
REMARK VINA RESULT:      -8.3      1.131      1.278
REMARK  Name = 
REMARK  5 active torsions:
REMARK  status: ('A' for Active; 'I' for Inactive)
REMARK    1  A    between atoms: C_2  and  C_5
REMARK    2  A    between atoms: N_3  and  O_4
REMARK    3  A    between atoms: C_6  and  C_7
REMARK    4  A    between atoms: C_13  and  C_14
REMARK    5  A    between atoms: C_17  and  C_18
REMARK                            x       y       z     vdW  Elec       q    Type
REMARK                         _______ _______ _______ _____ _____    ______ ____
ROOT
ATOM      1  C   UNL     1       3.263   4.169  18.434  0.00  0.00    +0.000 C 
ATOM      2  C   UNL     1       3.666   5.052  17.276  0.00  0.00    +0.000 C 
ATOM      3  C   UNL     1       3.797   5.558  18.711  0.00  0.00    +0.000 C 
ENDROOT
BRANCH   2   4
ATOM      4  C   UNL     1       4.901   4.863  16.426  0.00  0.00    +0.000 A 
ATOM      5  C   UNL     1       4.853   4.191  15.193  0.00  0.00    +0.000 A 
ATOM      6  C   UNL     1       5.973   4.116  14.358  0.00  0.00    +0.000 A 
ATOM      7  C   UNL     1       7.168   4.720  14.736  0.00  0.00    +0.000 A 
ATOM      8  C   UNL     1       7.247   5.387  15.953  0.00  0.00    +0.000 A 
ATOM      9  C   UNL     1       6.126   5.454  16.785  0.00  0.00    +0.000 A 
ENDBRANCH   2   4
BRANCH   3  10
ATOM     10  C   UNL     1       2.893   6.696  19.134  0.00  0.00    +0.000 A 
ATOM     11  C   UNL     1       2.654   7.821  18.329  0.00  0.00    +0.000 A 
ATOM     12  C   UNL     1       1.813   8.861  18.760  0.00  0.00    +0.000 A 
ATOM     13  C   UNL     1       1.179   8.805  20.007  0.00  0.00    +0.000 A 
ATOM     14  C   UNL     1       1.397   7.677  20.806  0.00  0.00    +0.000 A 
ATOM     15  C   UNL     1       2.234   6.645  20.373  0.00  0.00    +0.000 A 
BRANCH  13  16
ATOM     16  C   UNL     1       0.321   9.899  20.458  0.00  0.00    +0.000 A 
ATOM     17  N   UNL     1      -0.722  10.455  19.869  0.00  0.00    +0.000 NA
ATOM     18  C   UNL     1      -1.113  11.438  20.745  0.00  0.00    +0.000 A 
ATOM     19  C   UNL     1      -0.286  11.447  21.838  0.00  0.00    +0.000 A 
ATOM     20  O   UNL     1       0.638  10.464  21.670  0.00  0.00    +0.000 OA
ENDBRANCH  13  16
ENDBRANCH   3  10
BRANCH   1  22
ATOM     21  O   UNL     1       4.873   3.008  19.757  0.00  0.00    +0.000 OA
ATOM     22  C   UNL     1       4.051   2.980  18.847  0.00  0.00    +0.000 C 
ATOM     23  N   UNL     1       3.765   1.834  18.147  0.00  0.00    +0.000 N 
ATOM     24  H   UNL     1       2.972   1.723  17.527  0.00  0.00    +0.000 HD
BRANCH  23  25
ATOM     25  O   UNL     1       4.403   0.654  18.590  0.00  0.00    +0.000 OA
ATOM     26  H   UNL     1       5.324   0.782  18.272  0.00  0.00    +0.000 HD
ENDBRANCH  23  25
ENDBRANCH   1  22
TORSDOF 5
ENDMDL
MODEL 4
REMARK VINA RESULT:      -8.3      1.158      1.630
REMARK  Name = 
REMARK  5 active torsions:
REMARK  status: ('A' for Active; 'I' for Inactive)
REMARK    1  A    between atoms: C_2  and  C_5
REMARK    2  A    between atoms: N_3  and  O_4
REMARK    3  A    between atoms: C_6  and  C_7
REMARK    4  A    between atoms: C_13  and  C_14
REMARK    5  A    between atoms: C_17  and  C_18
REMARK                            x       y       z     vdW  Elec       q    Type
REMARK                         _______ _______ _______ _____ _____    ______ ____
ROOT
ATOM      1  C   UNL     1       3.299   4.174  18.364  0.00  0.00    +0.000 C 
ATOM      2  C   UNL     1       3.718   5.062  17.216  0.00  0.00    +0.000 C 
ATOM      3  C   UNL     1       3.819   5.565  18.654  0.00  0.00    +0.000 C 
ENDROOT
BRANCH   2   4
ATOM      4  C   UNL     1       4.971   4.883  16.389  0.00  0.00    +0.000 A 
ATOM      5  C   UNL     1       4.976   4.112  15.215  0.00  0.00    +0.000 A 
ATOM      6  C   UNL     1       6.106   4.040  14.393  0.00  0.00    +0.000 A 
ATOM      7  C   UNL     1       7.257   4.748  14.725  0.00  0.00    +0.000 A 
ATOM      8  C   UNL     1       7.284   5.514  15.884  0.00  0.00    +0.000 A 
ATOM      9  C   UNL     1       6.153   5.578  16.704  0.00  0.00    +0.000 A 
ENDBRANCH   2   4
BRANCH   3  10
ATOM     10  C   UNL     1       2.899   6.696  19.063  0.00  0.00    +0.000 A 
ATOM     11  C   UNL     1       2.243   6.735  20.303  0.00  0.00    +0.000 A 
ATOM     12  C   UNL     1       1.391   7.799  20.645  0.00  0.00    +0.000 A 
ATOM     13  C   UNL     1       1.175   8.862  19.758  0.00  0.00    +0.000 A 
ATOM     14  C   UNL     1       1.843   8.838  18.529  0.00  0.00    +0.000 A 
ATOM     15  C   UNL     1       2.689   7.778  18.194  0.00  0.00    +0.000 A 
BRANCH  13  16
ATOM     16  C   UNL     1       0.273   9.955  20.112  0.00  0.00    +0.000 A 
ATOM     17  N   UNL     1      -0.689  10.522  19.405  0.00  0.00    +0.000 NA
ATOM     18  C   UNL     1      -1.180  11.499  20.236  0.00  0.00    +0.000 A 
ATOM     19  C   UNL     1      -0.493  11.494  21.422  0.00  0.00    +0.000 A 
ATOM     20  O   UNL     1       0.442  10.508  21.359  0.00  0.00    +0.000 OA
ENDBRANCH  13  16
ENDBRANCH   3  10
BRANCH   1  22
ATOM     21  O   UNL     1       4.937   3.034  19.672  0.00  0.00    +0.000 OA
ATOM     22  C   UNL     1       4.086   2.988  18.788  0.00  0.00    +0.000 C 
ATOM     23  N   UNL     1       3.767   1.825  18.133  0.00  0.00    +0.000 N 
ATOM     24  H   UNL     1       2.955   1.705  17.541  0.00  0.00    +0.000 HD
BRANCH  23  25
ATOM     25  O   UNL     1       4.406   0.652  18.592  0.00  0.00    +0.000 OA
ATOM     26  H   UNL     1       4.549   0.152  17.758  0.00  0.00    +0.000 HD
ENDBRANCH  23  25
ENDBRANCH   1  22
TORSDOF 5
ENDMDL
MODEL 5
REMARK VINA RESULT:      -8.2      1.202      1.709
REMARK  Name = 
REMARK  5 active torsions:
REMARK  status: ('A' for Active; 'I' for Inactive)
REMARK    1  A    between atoms: C_2  and  C_5
REMARK    2  A    between atoms: N_3  and  O_4
REMARK    3  A    between atoms: C_6  and  C_7
REMARK    4  A    between atoms: C_13  and  C_14
REMARK    5  A    between atoms: C_17  and  C_18
REMARK                            x       y       z     vdW  Elec       q    Type
REMARK                         _______ _______ _______ _____ _____    ______ ____
ROOT
ATOM      1  C   UNL     1       3.720   4.596  18.605  0.00  0.00    +0.000 C 
ATOM      2  C   UNL     1       3.877   5.203  17.231  0.00  0.00    +0.000 C 
ATOM      3  C   UNL     1       4.050   6.068  18.477  0.00  0.00    +0.000 C 
ENDROOT
BRANCH   2   4
ATOM      4  C   UNL     1       5.049   4.971  16.305  0.00  0.00    +0.000 A 
ATOM      5  C   UNL     1       5.000   4.014  15.278  0.00  0.00    +0.000 A 
ATOM      6  C   UNL     1       6.042   3.879  14.354  0.00  0.00    +0.000 A 
ATOM      7  C   UNL     1       7.157   4.707  14.433  0.00  0.00    +0.000 A 
ATOM      8  C   UNL     1       7.237   5.659  15.442  0.00  0.00    +0.000 A 
ATOM      9  C   UNL     1       6.195   5.786  16.366  0.00  0.00    +0.000 A 
ENDBRANCH   2   4
BRANCH   3  10
ATOM     10  C   UNL     1       3.017   7.146  18.727  0.00  0.00    +0.000 A 
ATOM     11  C   UNL     1       2.280   7.236  19.918  0.00  0.00    +0.000 A 
ATOM     12  C   UNL     1       1.325   8.248  20.110  0.00  0.00    +0.000 A 
ATOM     13  C   UNL     1       1.081   9.206  19.118  0.00  0.00    +0.000 A 
ATOM     14  C   UNL     1       1.827   9.133  17.937  0.00  0.00    +0.000 A 
ATOM     15  C   UNL     1       2.776   8.125  17.750  0.00  0.00    +0.000 A 
BRANCH  13  16
ATOM     16  C   UNL     1       0.072  10.245  19.316  0.00  0.00    +0.000 A 
ATOM     17  N   UNL     1      -0.167  11.003  20.371  0.00  0.00    +0.000 NA
ATOM     18  C   UNL     1      -1.237  11.776  19.988  0.00  0.00    +0.000 A 
ATOM     19  C   UNL     1      -1.614  11.453  18.710  0.00  0.00    +0.000 A 
ATOM     20  O   UNL     1      -0.783  10.474  18.265  0.00  0.00    +0.000 OA
ENDBRANCH  13  16
ENDBRANCH   3  10
BRANCH   1  22
ATOM     21  O   UNL     1       5.832   4.025  19.557  0.00  0.00    +0.000 OA
ATOM     22  C   UNL     1       4.718   3.664  19.188  0.00  0.00    +0.000 C 
ATOM     23  N   UNL     1       4.286   2.367  19.310  0.00  0.00    +0.000 N 
ATOM     24  H   UNL     1       3.326   2.069  19.196  0.00  0.00    +0.000 HD
BRANCH  23  25
ATOM     25  O   UNL     1       5.160   1.475  19.972  0.00  0.00    +0.000 OA
ATOM     26  H   UNL     1       5.420   0.862  19.249  0.00  0.00    +0.000 HD
ENDBRANCH  23  25
ENDBRANCH   1  22
TORSDOF 5
ENDMDL
MODEL 6
REMARK VINA RESULT:      -8.2      1.039      1.232
REMARK  Name = 
REMARK  5 active torsions:
REMARK  status: ('A' for Active; 'I' for Inactive)
REMARK    1  A    between atoms: C_2  and  C_5
REMARK    2  A    between atoms: N_3  and  O_4
REMARK    3  A    between atoms: C_6  and  C_7
REMARK    4  A    between atoms: C_13  and  C_14
REMARK    5  A    between atoms: C_17  and  C_18
REMARK                            x       y       z     vdW  Elec       q    Type
REMARK                         _______ _______ _______ _____ _____    ______ ____
ROOT
ATOM      1  C   UNL     1       2.414   4.863  18.526  0.00  0.00    +0.000 C 
ATOM      2  C   UNL     1       3.240   5.793  17.669  0.00  0.00    +0.000 C 
ATOM      3  C   UNL     1       3.047   6.086  19.155  0.00  0.00    +0.000 C 
ENDROOT
BRANCH   2   4
ATOM      4  C   UNL     1       4.620   5.488  17.133  0.00  0.00    +0.000 A 
ATOM      5  C   UNL     1       4.847   4.432  16.234  0.00  0.00    +0.000 A 
ATOM      6  C   UNL     1       6.103   4.223  15.654  0.00  0.00    +0.000 A 
ATOM      7  C   UNL     1       7.162   5.073  15.956  0.00  0.00    +0.000 A 
ATOM      8  C   UNL     1       6.970   6.122  16.847  0.00  0.00    +0.000 A 
ATOM      9  C   UNL     1       5.714   6.323  17.427  0.00  0.00    +0.000 A 
ENDBRANCH   2   4
BRANCH   3  10
ATOM     10  C   UNL     1       2.234   7.308  19.524  0.00  0.00    +0.000 A 
ATOM     11  C   UNL     1       2.006   8.370  18.635  0.00  0.00    +0.000 A 
ATOM     12  C   UNL     1       1.252   9.492  19.017  0.00  0.00    +0.000 A 
ATOM     13  C   UNL     1       0.696   9.585  20.300  0.00  0.00    +0.000 A 
ATOM     14  C   UNL     1       0.904   8.520  21.184  0.00  0.00    +0.000 A 
ATOM     15  C   UNL     1       1.655   7.406  20.799  0.00  0.00    +0.000 A 
BRANCH  13  16
ATOM     16  C   UNL     1      -0.070  10.763  20.697  0.00  0.00    +0.000 A 
ATOM     17  N   UNL     1      -1.000  11.431  20.038  0.00  0.00    +0.000 NA
ATOM     18  C   UNL     1      -1.348  12.448  20.894  0.00  0.00    +0.000 A 
ATOM     19  C   UNL     1      -0.610  12.363  22.046  0.00  0.00    +0.000 A 
ATOM     20  O   UNL     1       0.213  11.286  21.936  0.00  0.00    +0.000 OA
ENDBRANCH  13  16
ENDBRANCH   3  10
BRANCH   1  22
ATOM     21  O   UNL     1       3.545   3.296  19.927  0.00  0.00    +0.000 OA
ATOM     22  C   UNL     1       2.881   3.508  18.917  0.00  0.00    +0.000 C 
ATOM     23  N   UNL     1       2.484   2.501  18.072  0.00  0.00    +0.000 N 
ATOM     24  H   UNL     1       1.789   2.604  17.343  0.00  0.00    +0.000 HD
BRANCH  23  25
ATOM     25  O   UNL     1       2.803   1.185  18.473  0.00  0.00    +0.000 OA
ATOM     26  H   UNL     1       1.961   0.705  18.305  0.00  0.00    +0.000 HD
ENDBRANCH  23  25
ENDBRANCH   1  22
TORSDOF 5
ENDMDL
MODEL 7
REMARK VINA RESULT:      -8.2      1.103      1.885
REMARK  Name = 
REMARK  5 active torsions:
REMARK  status: ('A' for Active; 'I' for Inactive)
REMARK    1  A    between atoms: C_2  and  C_5
REMARK    2  A    between atoms: N_3  and  O_4
REMARK    3  A    between atoms: C_6  and  C_7
REMARK    4  A    between atoms: C_13  and  C_14
REMARK    5  A    between atoms: C_17  and  C_18
REMARK                            x       y       z     vdW  Elec       q    Type
REMARK                         _______ _______ _______ _____ _____    ______ ____
ROOT
ATOM      1  C   UNL     1       3.611   4.744  18.674  0.00  0.00    +0.000 C 
ATOM      2  C   UNL     1       3.728   5.370  17.304  0.00  0.00    +0.000 C 
ATOM      3  C   UNL     1       3.914   6.223  18.557  0.00  0.00    +0.000 C 
ENDROOT
BRANCH   2   4
ATOM      4  C   UNL     1       4.883   5.169  16.350  0.00  0.00    +0.000 A 
ATOM      5  C   UNL     1       6.025   5.986  16.391  0.00  0.00    +0.000 A 
ATOM      6  C   UNL     1       7.138   5.728  15.583  0.00  0.00    +0.000 A 
ATOM      7  C   UNL     1       7.135   4.637  14.718  0.00  0.00    +0.000 A 
ATOM      8  C   UNL     1       6.017   3.815  14.652  0.00  0.00    +0.000 A 
ATOM      9  C   UNL     1       4.906   4.081  15.458  0.00  0.00    +0.000 A 
ENDBRANCH   2   4
BRANCH   3  10
ATOM     10  C   UNL     1       2.869   7.280  18.843  0.00  0.00    +0.000 A 
ATOM     11  C   UNL     1       2.171   7.355  20.058  0.00  0.00    +0.000 A 
ATOM     12  C   UNL     1       1.202   8.347  20.283  0.00  0.00    +0.000 A 
ATOM     13  C   UNL     1       0.906   9.302  19.302  0.00  0.00    +0.000 A 
ATOM     14  C   UNL     1       1.613   9.244  18.095  0.00  0.00    +0.000 A 
ATOM     15  C   UNL     1       2.576   8.255  17.876  0.00  0.00    +0.000 A 
BRANCH  13  16
ATOM     16  C   UNL     1      -0.116  10.319  19.535  0.00  0.00    +0.000 A 
ATOM     17  N   UNL     1      -0.445  10.950  20.647  0.00  0.00    +0.000 NA
ATOM     18  C   UNL     1      -1.478  11.774  20.270  0.00  0.00    +0.000 A 
ATOM     19  C   UNL     1      -1.744  11.609  18.935  0.00  0.00    +0.000 A 
ATOM     20  O   UNL     1      -0.877  10.680  18.449  0.00  0.00    +0.000 OA
ENDBRANCH  13  16
ENDBRANCH   3  10
BRANCH   1  22
ATOM     21  O   UNL     1       5.747   4.201  19.590  0.00  0.00    +0.000 OA
ATOM     22  C   UNL     1       4.638   3.823  19.223  0.00  0.00    +0.000 C 
ATOM     23  N   UNL     1       4.239   2.513  19.318  0.00  0.00    +0.000 N 
ATOM     24  H   UNL     1       3.284   2.195  19.205  0.00  0.00    +0.000 HD
BRANCH  23  25
ATOM     25  O   UNL     1       5.140   1.627  19.948  0.00  0.00    +0.000 OA
ATOM     26  H   UNL     1       4.570   0.850  20.142  0.00  0.00    +0.000 HD
ENDBRANCH  23  25
ENDBRANCH   1  22
TORSDOF 5
ENDMDL
MODEL 8
REMARK VINA RESULT:      -8.1      1.332      1.757
REMARK  Name = 
REMARK  5 active torsions:
REMARK  status: ('A' for Active; 'I' for Inactive)
REMARK    1  A    between atoms: C_2  and  C_5
REMARK    2  A    between atoms: N_3  and  O_4
REMARK    3  A    between atoms: C_6  and  C_7
REMARK    4  A    between atoms: C_13  and  C_14
REMARK    5  A    between atoms: C_17  and  C_18
REMARK                            x       y       z     vdW  Elec       q    Type
REMARK                         _______ _______ _______ _____ _____    ______ ____
ROOT
ATOM      1  C   UNL     1       2.448   5.080  18.265  0.00  0.00    +0.000 C 
ATOM      2  C   UNL     1       3.519   5.910  17.598  0.00  0.00    +0.000 C 
ATOM      3  C   UNL     1       2.988   6.303  18.974  0.00  0.00    +0.000 C 
ENDROOT
BRANCH   2   4
ATOM      4  C   UNL     1       4.965   5.500  17.435  0.00  0.00    +0.000 A 
ATOM      5  C   UNL     1       5.912   5.719  18.448  0.00  0.00    +0.000 A 
ATOM      6  C   UNL     1       7.222   5.238  18.340  0.00  0.00    +0.000 A 
ATOM      7  C   UNL     1       7.611   4.518  17.215  0.00  0.00    +0.000 A 
ATOM      8  C   UNL     1       6.697   4.291  16.193  0.00  0.00    +0.000 A 
ATOM      9  C   UNL     1       5.391   4.778  16.305  0.00  0.00    +0.000 A 
ENDBRANCH   2   4
BRANCH   3  10
ATOM     10  C   UNL     1       2.194   7.588  19.075  0.00  0.00    +0.000 A 
ATOM     11  C   UNL     1       1.943   8.418  17.971  0.00  0.00    +0.000 A 
ATOM     12  C   UNL     1       1.207   9.607  18.106  0.00  0.00    +0.000 A 
ATOM     13  C   UNL     1       0.693  10.000  19.348  0.00  0.00    +0.000 A 
ATOM     14  C   UNL     1       0.923   9.166  20.448  0.00  0.00    +0.000 A 
ATOM     15  C   UNL     1       1.655   7.984  20.309  0.00  0.00    +0.000 A 
BRANCH  13  16
ATOM     16  C   UNL     1      -0.055  11.248  19.485  0.00  0.00    +0.000 A 
ATOM     17  N   UNL     1       0.369  12.460  19.792  0.00  0.00    +0.000 NA
ATOM     18  C   UNL     1      -0.774  13.222  19.791  0.00  0.00    +0.000 A 
ATOM     19  C   UNL     1      -1.858  12.440  19.486  0.00  0.00    +0.000 A 
ATOM     20  O   UNL     1      -1.413  11.171  19.285  0.00  0.00    +0.000 OA
ENDBRANCH  13  16
ENDBRANCH   3  10
BRANCH   1  22
ATOM     21  O   UNL     1       3.021   3.537  19.992  0.00  0.00    +0.000 OA
ATOM     22  C   UNL     1       2.713   3.728  18.820  0.00  0.00    +0.000 C 
ATOM     23  N   UNL     1       2.556   2.700  17.923  0.00  0.00    +0.000 N 
ATOM     24  H   UNL     1       2.126   2.796  17.011  0.00  0.00    +0.000 HD
BRANCH  23  25
ATOM     25  O   UNL     1       2.678   1.392  18.441  0.00  0.00    +0.000 OA
ATOM     26  H   UNL     1       1.744   1.155  18.633  0.00  0.00    +0.000 HD
ENDBRANCH  23  25
ENDBRANCH   1  22
TORSDOF 5
ENDMDL
MODEL 9
REMARK VINA RESULT:      -8.1      1.490      1.950
REMARK  Name = 
REMARK  5 active torsions:
REMARK  status: ('A' for Active; 'I' for Inactive)
REMARK    1  A    between atoms: C_2  and  C_5
REMARK    2  A    between atoms: N_3  and  O_4
REMARK    3  A    between atoms: C_6  and  C_7
REMARK    4  A    between atoms: C_13  and  C_14
REMARK    5  A    between atoms: C_17  and  C_18
REMARK                            x       y       z     vdW  Elec       q    Type
REMARK                         _______ _______ _______ _____ _____    ______ ____
ROOT
ATOM      1  C   UNL     1       2.309   5.042  18.327  0.00  0.00    +0.000 C 
ATOM      2  C   UNL     1       3.429   5.804  17.658  0.00  0.00    +0.000 C 
ATOM      3  C   UNL     1       2.923   6.231  19.033  0.00  0.00    +0.000 C 
ENDROOT
BRANCH   2   4
ATOM      4  C   UNL     1       4.847   5.305  17.497  0.00  0.00    +0.000 A 
ATOM      5  C   UNL     1       5.274   4.664  16.322  0.00  0.00    +0.000 A 
ATOM      6  C   UNL     1       6.613   4.304  16.132  0.00  0.00    +0.000 A 
ATOM      7  C   UNL     1       7.558   4.587  17.113  0.00  0.00    +0.000 A 
ATOM      8  C   UNL     1       7.164   5.216  18.288  0.00  0.00    +0.000 A 
ATOM      9  C   UNL     1       5.824   5.568  18.474  0.00  0.00    +0.000 A 
ENDBRANCH   2   4
BRANCH   3  10
ATOM     10  C   UNL     1       2.208   7.563  19.131  0.00  0.00    +0.000 A 
ATOM     11  C   UNL     1       1.600   8.018  20.311  0.00  0.00    +0.000 A 
ATOM     12  C   UNL     1       0.940   9.257  20.361  0.00  0.00    +0.000 A 
ATOM     13  C   UNL     1       0.874  10.084  19.233  0.00  0.00    +0.000 A 
ATOM     14  C   UNL     1       1.495   9.644  18.058  0.00  0.00    +0.000 A 
ATOM     15  C   UNL     1       2.150   8.411  18.014  0.00  0.00    +0.000 A 
BRANCH  13  16
ATOM     16  C   UNL     1       0.169  11.363  19.285  0.00  0.00    +0.000 A 
ATOM     17  N   UNL     1      -0.894  11.715  19.985  0.00  0.00    +0.000 NA
ATOM     18  C   UNL     1      -1.114  13.022  19.620  0.00  0.00    +0.000 A 
ATOM     19  C   UNL     1      -0.174  13.416  18.703  0.00  0.00    +0.000 A 
ATOM     20  O   UNL     1       0.658  12.363  18.479  0.00  0.00    +0.000 OA
ENDBRANCH  13  16
ENDBRANCH   3  10
BRANCH   1  22
ATOM     21  O   UNL     1       2.778   3.471  20.061  0.00  0.00    +0.000 OA
ATOM     22  C   UNL     1       2.491   3.678  18.886  0.00  0.00    +0.000 C 
ATOM     23  N   UNL     1       2.282   2.660  17.989  0.00  0.00    +0.000 N 
ATOM     24  H   UNL     1       1.865   2.779  17.074  0.00  0.00    +0.000 HD
BRANCH  23  25
ATOM     25  O   UNL     1       2.324   1.348  18.509  0.00  0.00    +0.000 OA
ATOM     26  H   UNL     1       1.952   0.817  17.770  0.00  0.00    +0.000 HD
ENDBRANCH  23  25
ENDBRANCH   1  22
TORSDOF 5
ENDMDL
