MODEL 1
REMARK VINA RESULT:      -7.0      0.000      0.000
REMARK  Name = 
REMARK  5 active torsions:
REMARK  status: ('A' for Active; 'I' for Inactive)
REMARK    1  A    between atoms: C_1  and  C_2
REMARK    2  A    between atoms: C_2  and  C_3
REMARK    3  A    between atoms: C_3  and  C_4
REMARK    4  A    between atoms: C_5  and  O_6
REMARK    5  A    between atoms: C_14  and  C_15
REMARK                            x       y       z     vdW  Elec       q    Type
REMARK                         _______ _______ _______ _____ _____    ______ ____
ROOT
ATOM      1  C   UNL     1       4.868   5.521  18.146  0.00  0.00    +0.000 A 
ATOM      2  C   UNL     1       5.544   4.387  18.594  0.00  0.00    +0.000 A 
ATOM      3  N   UNL     1       5.019   3.453  19.399  0.00  0.00    +0.000 NA
ATOM      4  C   UNL     1       3.757   3.599  19.809  0.00  0.00    +0.000 A 
ATOM      5  C   UNL     1       3.250   2.623  20.657  0.00  0.00    +0.000 A 
ATOM      6  C   UNL     1       1.944   2.673  21.143  0.00  0.00    +0.000 A 
ATOM      7  C   UNL     1       1.114   3.713  20.758  0.00  0.00    +0.000 A 
ATOM      8  C   UNL     1       1.605   4.706  19.908  0.00  0.00    +0.000 A 
ATOM      9  C   UNL     1       2.942   4.689  19.428  0.00  0.00    +0.000 A 
ATOM     10  C   UNL     1       3.532   5.687  18.591  0.00  0.00    +0.000 A 
ATOM     11  C   UNL     1       2.760   6.915  18.163  0.00  0.00    +0.000 C 
ENDROOT
BRANCH   2  12
ATOM     12  O   UNL     1       6.835   4.114  18.253  0.00  0.00    +0.000 OA
ATOM     13  H   UNL     1       6.851   3.769  17.353  0.00  0.00    +0.000 HD
ENDBRANCH   2  12
BRANCH   1  14
ATOM     14  C   UNL     1       5.540   6.520  17.228  0.00  0.00    +0.000 C 
BRANCH  14  16
ATOM     15  C   UNL     1       6.032   5.258  15.097  0.00  0.00    +0.000 C 
ATOM     16  C   UNL     1       5.157   6.312  15.760  0.00  0.00    +0.000 C 
ENDBRANCH  14  16
ENDBRANCH   1  14
TORSDOF 3
ENDMDL
MODEL 2
REMARK VINA RESULT:      -6.8      1.619      4.766
REMARK  Name = 
REMARK  5 active torsions:
REMARK  status: ('A' for Active; 'I' for Inactive)
REMARK    1  A    between atoms: C_1  and  C_2
REMARK    2  A    between atoms: C_2  and  C_3
REMARK    3  A    between atoms: C_3  and  C_4
REMARK    4  A    between atoms: C_5  and  O_6
REMARK    5  A    between atoms: C_14  and  C_15
REMARK                            x       y       z     vdW  Elec       q    Type
REMARK                         _______ _______ _______ _____ _____    ______ ____
ROOT
ATOM      1  C   UNL     1       3.250   3.176  19.073  0.00  0.00    +0.000 A 
ATOM      2  C   UNL     1       4.520   2.953  19.603  0.00  0.00    +0.000 A 
ATOM      3  N   UNL     1       5.598   3.708  19.348  0.00  0.00    +0.000 NA
ATOM      4  C   UNL     1       5.464   4.756  18.533  0.00  0.00    +0.000 A 
ATOM      5  C   UNL     1       6.604   5.507  18.275  0.00  0.00    +0.000 A 
ATOM      6  C   UNL     1       6.580   6.625  17.442  0.00  0.00    +0.000 A 
ATOM      7  C   UNL     1       5.383   7.018  16.866  0.00  0.00    +0.000 A 
ATOM      8  C   UNL     1       4.225   6.276  17.111  0.00  0.00    +0.000 A 
ATOM      9  C   UNL     1       4.237   5.116  17.931  0.00  0.00    +0.000 A 
ATOM     10  C   UNL     1       3.108   4.281  18.196  0.00  0.00    +0.000 A 
ATOM     11  C   UNL     1       1.760   4.552  17.565  0.00  0.00    +0.000 C 
ENDROOT
BRANCH   2  12
ATOM     12  O   UNL     1       4.797   1.919  20.448  0.00  0.00    +0.000 OA
ATOM     13  H   UNL     1       3.966   1.527  20.739  0.00  0.00    +0.000 HD
ENDBRANCH   2  12
BRANCH   1  14
ATOM     14  C   UNL     1       2.087   2.273  19.426  0.00  0.00    +0.000 C 
BRANCH  14  16
ATOM     15  C   UNL     1       1.637   2.654  21.881  0.00  0.00    +0.000 C 
ATOM     16  C   UNL     1       1.152   2.906  20.461  0.00  0.00    +0.000 C 
ENDBRANCH  14  16
ENDBRANCH   1  14
TORSDOF 3
ENDMDL
MODEL 3
REMARK VINA RESULT:      -6.8      1.916      5.016
REMARK  Name = 
REMARK  5 active torsions:
REMARK  status: ('A' for Active; 'I' for Inactive)
REMARK    1  A    between atoms: C_1  and  C_2
REMARK    2  A    between atoms: C_2  and  C_3
REMARK    3  A    between atoms: C_3  and  C_4
REMARK    4  A    between atoms: C_5  and  O_6
REMARK    5  A    between atoms: C_14  and  C_15
REMARK                            x       y       z     vdW  Elec       q    Type
REMARK                         _______ _______ _______ _____ _____    ______ ____
ROOT
ATOM      1  C   UNL     1       2.232   4.179  18.863  0.00  0.00    +0.000 A 
ATOM      2  C   UNL     1       2.647   3.051  18.157  0.00  0.00    +0.000 A 
ATOM      3  N   UNL     1       3.567   3.055  17.183  0.00  0.00    +0.000 NA
ATOM      4  C   UNL     1       4.142   4.213  16.853  0.00  0.00    +0.000 A 
ATOM      5  C   UNL     1       5.078   4.186  15.827  0.00  0.00    +0.000 A 
ATOM      6  C   UNL     1       5.744   5.335  15.403  0.00  0.00    +0.000 A 
ATOM      7  C   UNL     1       5.484   6.542  16.032  0.00  0.00    +0.000 A 
ATOM      8  C   UNL     1       4.545   6.593  17.064  0.00  0.00    +0.000 A 
ATOM      9  C   UNL     1       3.834   5.438  17.488  0.00  0.00    +0.000 A 
ATOM     10  C   UNL     1       2.830   5.414  18.506  0.00  0.00    +0.000 A 
ATOM     11  C   UNL     1       2.395   6.676  19.215  0.00  0.00    +0.000 C 
ENDROOT
BRANCH   2  12
ATOM     12  O   UNL     1       2.142   1.806  18.392  0.00  0.00    +0.000 OA
ATOM     13  H   UNL     1       2.866   1.170  18.367  0.00  0.00    +0.000 HD
ENDBRANCH   2  12
BRANCH   1  14
ATOM     14  C   UNL     1       1.189   4.077  19.957  0.00  0.00    +0.000 C 
BRANCH  14  16
ATOM     15  C   UNL     1       1.590   2.427  21.825  0.00  0.00    +0.000 C 
ATOM     16  C   UNL     1       1.814   3.850  21.337  0.00  0.00    +0.000 C 
ENDBRANCH  14  16
ENDBRANCH   1  14
TORSDOF 3
ENDMDL
MODEL 4
REMARK VINA RESULT:      -6.8      1.184      1.612
REMARK  Name = 
REMARK  5 active torsions:
REMARK  status: ('A' for Active; 'I' for Inactive)
REMARK    1  A    between atoms: C_1  and  C_2
REMARK    2  A    between atoms: C_2  and  C_3
REMARK    3  A    between atoms: C_3  and  C_4
REMARK    4  A    between atoms: C_5  and  O_6
REMARK    5  A    between atoms: C_14  and  C_15
REMARK                            x       y       z     vdW  Elec       q    Type
REMARK                         _______ _______ _______ _____ _____    ______ ____
ROOT
ATOM      1  C   UNL     1       5.479   5.752  17.936  0.00  0.00    +0.000 A 
ATOM      2  C   UNL     1       5.985   4.548  18.427  0.00  0.00    +0.000 A 
ATOM      3  N   UNL     1       5.290   3.671  19.163  0.00  0.00    +0.000 NA
ATOM      4  C   UNL     1       4.018   3.951  19.457  0.00  0.00    +0.000 A 
ATOM      5  C   UNL     1       3.331   3.029  20.237  0.00  0.00    +0.000 A 
ATOM      6  C   UNL     1       1.998   3.217  20.600  0.00  0.00    +0.000 A 
ATOM      7  C   UNL     1       1.324   4.343  20.157  0.00  0.00    +0.000 A 
ATOM      8  C   UNL     1       1.996   5.283  19.372  0.00  0.00    +0.000 A 
ATOM      9  C   UNL     1       3.363   5.125  19.019  0.00  0.00    +0.000 A 
ATOM     10  C   UNL     1       4.133   6.058  18.257  0.00  0.00    +0.000 A 
ATOM     11  C   UNL     1       3.541   7.365  17.780  0.00  0.00    +0.000 C 
ENDROOT
BRANCH   2  12
ATOM     12  O   UNL     1       7.266   4.140  18.203  0.00  0.00    +0.000 OA
ATOM     13  H   UNL     1       7.868   4.835  18.495  0.00  0.00    +0.000 HD
ENDBRANCH   2  12
BRANCH   1  14
ATOM     14  C   UNL     1       6.339   6.678  17.102  0.00  0.00    +0.000 C 
BRANCH  14  16
ATOM     15  C   UNL     1       7.822   8.641  17.671  0.00  0.00    +0.000 C 
ATOM     16  C   UNL     1       7.587   7.149  17.855  0.00  0.00    +0.000 C 
ENDBRANCH  14  16
ENDBRANCH   1  14
TORSDOF 3
ENDMDL
MODEL 5
REMARK VINA RESULT:      -6.8      2.193      5.216
REMARK  Name = 
REMARK  5 active torsions:
REMARK  status: ('A' for Active; 'I' for Inactive)
REMARK    1  A    between atoms: C_1  and  C_2
REMARK    2  A    between atoms: C_2  and  C_3
REMARK    3  A    between atoms: C_3  and  C_4
REMARK    4  A    between atoms: C_5  and  O_6
REMARK    5  A    between atoms: C_14  and  C_15
REMARK                            x       y       z     vdW  Elec       q    Type
REMARK                         _______ _______ _______ _____ _____    ______ ____
ROOT
ATOM      1  C   UNL     1       2.021   4.349  19.295  0.00  0.00    +0.000 A 
ATOM      2  C   UNL     1       2.369   5.653  19.645  0.00  0.00    +0.000 A 
ATOM      3  N   UNL     1       3.292   6.393  19.014  0.00  0.00    +0.000 NA
ATOM      4  C   UNL     1       3.933   5.861  17.971  0.00  0.00    +0.000 A 
ATOM      5  C   UNL     1       4.896   6.647  17.352  0.00  0.00    +0.000 A 
ATOM      6  C   UNL     1       5.623   6.195  16.251  0.00  0.00    +0.000 A 
ATOM      7  C   UNL     1       5.370   4.932  15.742  0.00  0.00    +0.000 A 
ATOM      8  C   UNL     1       4.407   4.125  16.350  0.00  0.00    +0.000 A 
ATOM      9  C   UNL     1       3.679   4.556  17.492  0.00  0.00    +0.000 A 
ATOM     10  C   UNL     1       2.710   3.776  18.196  0.00  0.00    +0.000 A 
ATOM     11  C   UNL     1       2.397   2.353  17.792  0.00  0.00    +0.000 C 
ENDROOT
BRANCH   2  12
ATOM     12  O   UNL     1       1.795   6.316  20.688  0.00  0.00    +0.000 OA
ATOM     13  H   UNL     1       1.700   5.705  21.428  0.00  0.00    +0.000 HD
ENDBRANCH   2  12
BRANCH   1  14
ATOM     14  C   UNL     1       0.957   3.592  20.062  0.00  0.00    +0.000 C 
BRANCH  14  16
ATOM     15  C   UNL     1       2.745   2.490  21.463  0.00  0.00    +0.000 C 
ATOM     16  C   UNL     1       1.412   3.223  21.477  0.00  0.00    +0.000 C 
ENDBRANCH  14  16
ENDBRANCH   1  14
TORSDOF 3
ENDMDL
MODEL 6
REMARK VINA RESULT:      -6.7      1.449      1.671
REMARK  Name = 
REMARK  5 active torsions:
REMARK  status: ('A' for Active; 'I' for Inactive)
REMARK    1  A    between atoms: C_1  and  C_2
REMARK    2  A    between atoms: C_2  and  C_3
REMARK    3  A    between atoms: C_3  and  C_4
REMARK    4  A    between atoms: C_5  and  O_6
REMARK    5  A    between atoms: C_14  and  C_15
REMARK                            x       y       z     vdW  Elec       q    Type
REMARK                         _______ _______ _______ _____ _____    ______ ____
ROOT
ATOM      1  C   UNL     1       4.566   5.157  17.078  0.00  0.00    +0.000 A 
ATOM      2  C   UNL     1       4.737   3.777  16.985  0.00  0.00    +0.000 A 
ATOM      3  N   UNL     1       4.010   2.870  17.651  0.00  0.00    +0.000 NA
ATOM      4  C   UNL     1       3.044   3.300  18.465  0.00  0.00    +0.000 A 
ATOM      5  C   UNL     1       2.321   2.335  19.155  0.00  0.00    +0.000 A 
ATOM      6  C   UNL     1       1.287   2.669  20.028  0.00  0.00    +0.000 A 
ATOM      7  C   UNL     1       0.951   4.002  20.205  0.00  0.00    +0.000 A 
ATOM      8  C   UNL     1       1.666   4.988  19.523  0.00  0.00    +0.000 A 
ATOM      9  C   UNL     1       2.743   4.668  18.654  0.00  0.00    +0.000 A 
ATOM     10  C   UNL     1       3.550   5.618  17.954  0.00  0.00    +0.000 A 
ATOM     11  C   UNL     1       3.341   7.106  18.120  0.00  0.00    +0.000 C 
ENDROOT
BRANCH   2  12
ATOM     12  O   UNL     1       5.686   3.203  16.192  0.00  0.00    +0.000 OA
ATOM     13  H   UNL     1       6.116   3.894  15.674  0.00  0.00    +0.000 HD
ENDBRANCH   2  12
BRANCH   1  14
ATOM     14  C   UNL     1       5.432   6.108  16.279  0.00  0.00    +0.000 C 
BRANCH  14  16
ATOM     15  C   UNL     1       7.256   7.389  17.465  0.00  0.00    +0.000 C 
ATOM     16  C   UNL     1       6.891   6.099  16.745  0.00  0.00    +0.000 C 
ENDBRANCH  14  16
ENDBRANCH   1  14
TORSDOF 3
ENDMDL
MODEL 7
REMARK VINA RESULT:      -6.7      1.979      2.839
REMARK  Name = 
REMARK  5 active torsions:
REMARK  status: ('A' for Active; 'I' for Inactive)
REMARK    1  A    between atoms: C_1  and  C_2
REMARK    2  A    between atoms: C_2  and  C_3
REMARK    3  A    between atoms: C_3  and  C_4
REMARK    4  A    between atoms: C_5  and  O_6
REMARK    5  A    between atoms: C_14  and  C_15
REMARK                            x       y       z     vdW  Elec       q    Type
REMARK                         _______ _______ _______ _____ _____    ______ ____
ROOT
ATOM      1  C   UNL     1       6.556   5.798  17.906  0.00  0.00    +0.000 A 
ATOM      2  C   UNL     1       6.631   5.281  19.199  0.00  0.00    +0.000 A 
ATOM      3  N   UNL     1       5.777   4.387  19.715  0.00  0.00    +0.000 NA
ATOM      4  C   UNL     1       4.776   3.945  18.951  0.00  0.00    +0.000 A 
ATOM      5  C   UNL     1       3.898   3.034  19.522  0.00  0.00    +0.000 A 
ATOM      6  C   UNL     1       2.820   2.502  18.815  0.00  0.00    +0.000 A 
ATOM      7  C   UNL     1       2.624   2.874  17.495  0.00  0.00    +0.000 A 
ATOM      8  C   UNL     1       3.494   3.791  16.901  0.00  0.00    +0.000 A 
ATOM      9  C   UNL     1       4.579   4.367  17.616  0.00  0.00    +0.000 A 
ATOM     10  C   UNL     1       5.486   5.341  17.096  0.00  0.00    +0.000 A 
ATOM     11  C   UNL     1       5.336   5.891  15.696  0.00  0.00    +0.000 C 
ENDROOT
BRANCH   2  12
ATOM     12  O   UNL     1       7.601   5.647  20.085  0.00  0.00    +0.000 OA
ATOM     13  H   UNL     1       8.459   5.393  19.726  0.00  0.00    +0.000 HD
ENDBRANCH   2  12
BRANCH   1  14
ATOM     14  C   UNL     1       7.575   6.800  17.405  0.00  0.00    +0.000 C 
BRANCH  14  16
ATOM     15  C   UNL     1       8.332   9.115  18.068  0.00  0.00    +0.000 C 
ATOM     16  C   UNL     1       7.148   8.247  17.671  0.00  0.00    +0.000 C 
ENDBRANCH  14  16
ENDBRANCH   1  14
TORSDOF 3
ENDMDL
MODEL 8
REMARK VINA RESULT:      -6.6      1.928      2.222
REMARK  Name = 
REMARK  5 active torsions:
REMARK  status: ('A' for Active; 'I' for Inactive)
REMARK    1  A    between atoms: C_1  and  C_2
REMARK    2  A    between atoms: C_2  and  C_3
REMARK    3  A    between atoms: C_3  and  C_4
REMARK    4  A    between atoms: C_5  and  O_6
REMARK    5  A    between atoms: C_14  and  C_15
REMARK                            x       y       z     vdW  Elec       q    Type
REMARK                         _______ _______ _______ _____ _____    ______ ____
ROOT
ATOM      1  C   UNL     1       5.166   5.487  16.902  0.00  0.00    +0.000 A 
ATOM      2  C   UNL     1       5.511   4.157  16.661  0.00  0.00    +0.000 A 
ATOM      3  N   UNL     1       4.747   3.102  16.974  0.00  0.00    +0.000 NA
ATOM      4  C   UNL     1       3.565   3.319  17.555  0.00  0.00    +0.000 A 
ATOM      5  C   UNL     1       2.807   2.202  17.883  0.00  0.00    +0.000 A 
ATOM      6  C   UNL     1       1.555   2.311  18.489  0.00  0.00    +0.000 A 
ATOM      7  C   UNL     1       1.037   3.567  18.758  0.00  0.00    +0.000 A 
ATOM      8  C   UNL     1       1.784   4.703  18.438  0.00  0.00    +0.000 A 
ATOM      9  C   UNL     1       3.074   4.611  17.850  0.00  0.00    +0.000 A 
ATOM     10  C   UNL     1       3.918   5.720  17.532  0.00  0.00    +0.000 A 
ATOM     11  C   UNL     1       3.506   7.140  17.847  0.00  0.00    +0.000 C 
ENDROOT
BRANCH   2  12
ATOM     12  O   UNL     1       6.687   3.793  16.075  0.00  0.00    +0.000 OA
ATOM     13  H   UNL     1       6.513   3.549  15.158  0.00  0.00    +0.000 HD
ENDBRANCH   2  12
BRANCH   1  14
ATOM     14  C   UNL     1       6.092   6.618  16.505  0.00  0.00    +0.000 C 
BRANCH  14  16
ATOM     15  C   UNL     1       7.681   8.227  17.627  0.00  0.00    +0.000 C 
ATOM     16  C   UNL     1       7.271   6.770  17.470  0.00  0.00    +0.000 C 
ENDBRANCH  14  16
ENDBRANCH   1  14
TORSDOF 3
ENDMDL
MODEL 9
REMARK VINA RESULT:      -6.6      2.129      5.313
REMARK  Name = 
REMARK  5 active torsions:
REMARK  status: ('A' for Active; 'I' for Inactive)
REMARK    1  A    between atoms: C_1  and  C_2
REMARK    2  A    between atoms: C_2  and  C_3
REMARK    3  A    between atoms: C_3  and  C_4
REMARK    4  A    between atoms: C_5  and  O_6
REMARK    5  A    between atoms: C_14  and  C_15
REMARK                            x       y       z     vdW  Elec       q    Type
REMARK                         _______ _______ _______ _____ _____    ______ ____
ROOT
ATOM      1  C   UNL     1       2.446   4.705  18.741  0.00  0.00    +0.000 A 
ATOM      2  C   UNL     1       2.818   6.048  18.686  0.00  0.00    +0.000 A 
ATOM      3  N   UNL     1       3.767   6.545  17.881  0.00  0.00    +0.000 NA
ATOM      4  C   UNL     1       4.411   5.710  17.062  0.00  0.00    +0.000 A 
ATOM      5  C   UNL     1       5.401   6.255  16.254  0.00  0.00    +0.000 A 
ATOM      6  C   UNL     1       6.134   5.477  15.358  0.00  0.00    +0.000 A 
ATOM      7  C   UNL     1       5.860   4.123  15.250  0.00  0.00    +0.000 A 
ATOM      8  C   UNL     1       4.870   3.556  16.055  0.00  0.00    +0.000 A 
ATOM      9  C   UNL     1       4.135   4.326  16.996  0.00  0.00    +0.000 A 
ATOM     10  C   UNL     1       3.138   3.814  17.883  0.00  0.00    +0.000 A 
ATOM     11  C   UNL     1       2.799   2.341  17.923  0.00  0.00    +0.000 C 
ENDROOT
BRANCH   2  12
ATOM     12  O   UNL     1       2.243   7.006  19.467  0.00  0.00    +0.000 OA
ATOM     13  H   UNL     1       2.583   7.868  19.198  0.00  0.00    +0.000 HD
ENDBRANCH   2  12
BRANCH   1  14
ATOM     14  C   UNL     1       1.354   4.235  19.679  0.00  0.00    +0.000 C 
BRANCH  14  16
ATOM     15  C   UNL     1       1.730   2.627  21.588  0.00  0.00    +0.000 C 
ATOM     16  C   UNL     1       1.853   4.068  21.117  0.00  0.00    +0.000 C 
ENDBRANCH  14  16
ENDBRANCH   1  14
TORSDOF 3
ENDMDL
