MODEL 1
REMARK VINA RESULT:      -6.5      0.000      0.000
REMARK  Name = 
REMARK  12 active torsions:
REMARK  status: ('A' for Active; 'I' for Inactive)
REMARK    1  A    between atoms: C_2  and  C_3
REMARK    2  A    between atoms: C_3  and  O_4
REMARK    3  A    between atoms: O_4  and  C_5
REMARK    4  A    between atoms: C_10  and  O_11
REMARK    5  A    between atoms: O_11  and  C_12
REMARK    6  A    between atoms: C_12  and  C_13
REMARK    7  A    between atoms: C_13  and  O_14
REMARK    8  A    between atoms: C_13  and  C_15
REMARK    9  A    between atoms: C_15  and  N_16
REMARK   10  A    between atoms: N_16  and  C_17
REMARK   11  A    between atoms: C_17  and  C_18
REMARK   12  A    between atoms: C_17  and  C_19
REMARK                            x       y       z     vdW  Elec       q    Type
REMARK                         _______ _______ _______ _____ _____    ______ ____
ROOT
ATOM      1  O   UNL     1       6.180   3.919  18.791  0.00  0.00    +0.000 OA
ENDROOT
BRANCH   1   7
ATOM      2  C   UNL     1       6.108   5.874  17.191  0.00  0.00    +0.000 A 
ATOM      3  C   UNL     1       6.739   7.098  16.889  0.00  0.00    +0.000 A 
ATOM      4  C   UNL     1       7.752   7.630  17.685  0.00  0.00    +0.000 A 
ATOM      5  C   UNL     1       8.160   6.940  18.816  0.00  0.00    +0.000 A 
ATOM      6  C   UNL     1       7.554   5.723  19.132  0.00  0.00    +0.000 A 
ATOM      7  C   UNL     1       6.548   5.156  18.323  0.00  0.00    +0.000 A 
BRANCH   2   8
ATOM      8  O   UNL     1       5.176   5.578  16.229  0.00  0.00    +0.000 OA
BRANCH   8   9
ATOM      9  C   UNL     1       5.221   4.343  15.532  0.00  0.00    +0.000 C 
BRANCH   9  11
ATOM     10  C   UNL     1       6.073   3.733  13.242  0.00  0.00    +0.000 C 
ATOM     11  C   UNL     1       6.233   4.321  14.425  0.00  0.00    +0.000 C 
ENDBRANCH   9  11
ENDBRANCH   8   9
ENDBRANCH   2   8
ENDBRANCH   1   7
BRANCH   1  12
ATOM     12  C   UNL     1       4.906   3.826  19.384  0.00  0.00    +0.000 C 
BRANCH  12  13
ATOM     13  C   UNL     1       4.290   2.454  19.649  0.00  0.00    +0.000 C 
BRANCH  13  14
ATOM     14  O   UNL     1       5.269   1.679  20.375  0.00  0.00    +0.000 OA
ATOM     15  H   UNL     1       5.026   1.705  21.317  0.00  0.00    +0.000 HD
ENDBRANCH  13  14
BRANCH  13  16
ATOM     16  C   UNL     1       3.007   2.520  20.477  0.00  0.00    +0.000 C 
BRANCH  16  17
ATOM     17  N   UNL     1       1.846   2.290  19.643  0.00  0.00    +0.000 NA
ATOM     18  H   UNL     1       1.270   1.546  20.034  0.00  0.00    +0.000 HD
BRANCH  17  19
ATOM     19  C   UNL     1       1.038   3.479  19.381  0.00  0.00    +0.000 C 
ATOM     20  C   UNL     1       1.260   4.562  20.442  0.00  0.00    +0.000 C 
ATOM     21  C   UNL     1       1.445   4.002  18.010  0.00  0.00    +0.000 C 
ENDBRANCH  17  19
ENDBRANCH  16  17
ENDBRANCH  13  16
ENDBRANCH  12  13
ENDBRANCH   1  12
TORSDOF 10
ENDMDL
MODEL 2
REMARK VINA RESULT:      -6.5      1.369      1.641
REMARK  Name = 
REMARK  12 active torsions:
REMARK  status: ('A' for Active; 'I' for Inactive)
REMARK    1  A    between atoms: C_2  and  C_3
REMARK    2  A    between atoms: C_3  and  O_4
REMARK    3  A    between atoms: O_4  and  C_5
REMARK    4  A    between atoms: C_10  and  O_11
REMARK    5  A    between atoms: O_11  and  C_12
REMARK    6  A    between atoms: C_12  and  C_13
REMARK    7  A    between atoms: C_13  and  O_14
REMARK    8  A    between atoms: C_13  and  C_15
REMARK    9  A    between atoms: C_15  and  N_16
REMARK   10  A    between atoms: N_16  and  C_17
REMARK   11  A    between atoms: C_17  and  C_18
REMARK   12  A    between atoms: C_17  and  C_19
REMARK                            x       y       z     vdW  Elec       q    Type
REMARK                         _______ _______ _______ _____ _____    ______ ____
ROOT
ATOM      1  O   UNL     1       4.356   4.795  18.173  0.00  0.00    +0.000 OA
ENDROOT
BRANCH   1   7
ATOM      2  C   UNL     1       6.043   6.443  17.267  0.00  0.00    +0.000 A 
ATOM      3  C   UNL     1       7.328   6.976  17.504  0.00  0.00    +0.000 A 
ATOM      4  C   UNL     1       8.071   6.651  18.636  0.00  0.00    +0.000 A 
ATOM      5  C   UNL     1       7.541   5.773  19.569  0.00  0.00    +0.000 A 
ATOM      6  C   UNL     1       6.274   5.227  19.353  0.00  0.00    +0.000 A 
ATOM      7  C   UNL     1       5.519   5.523  18.200  0.00  0.00    +0.000 A 
BRANCH   2   8
ATOM      8  O   UNL     1       5.557   6.907  16.071  0.00  0.00    +0.000 OA
BRANCH   8   9
ATOM      9  C   UNL     1       5.183   6.005  15.042  0.00  0.00    +0.000 C 
BRANCH   9  11
ATOM     10  C   UNL     1       6.164   3.687  14.955  0.00  0.00    +0.000 C 
ATOM     11  C   UNL     1       6.245   4.994  14.723  0.00  0.00    +0.000 C 
ENDBRANCH   9  11
ENDBRANCH   8   9
ENDBRANCH   2   8
ENDBRANCH   1   7
BRANCH   1  12
ATOM     12  C   UNL     1       4.442   3.459  18.612  0.00  0.00    +0.000 C 
BRANCH  12  13
ATOM     13  C   UNL     1       3.482   2.412  18.052  0.00  0.00    +0.000 C 
BRANCH  13  14
ATOM     14  O   UNL     1       4.137   1.130  18.162  0.00  0.00    +0.000 OA
ATOM     15  H   UNL     1       3.564   0.552  18.697  0.00  0.00    +0.000 HD
ENDBRANCH  13  14
BRANCH  13  16
ATOM     16  C   UNL     1       2.153   2.350  18.805  0.00  0.00    +0.000 C 
BRANCH  16  17
ATOM     17  N   UNL     1       1.550   3.664  18.891  0.00  0.00    +0.000 NA
ATOM     18  H   UNL     1       0.806   3.758  18.200  0.00  0.00    +0.000 HD
BRANCH  17  19
ATOM     19  C   UNL     1       1.064   4.026  20.220  0.00  0.00    +0.000 C 
ATOM     20  C   UNL     1       1.332   2.918  21.245  0.00  0.00    +0.000 C 
ATOM     21  C   UNL     1       1.790   5.300  20.628  0.00  0.00    +0.000 C 
ENDBRANCH  17  19
ENDBRANCH  16  17
ENDBRANCH  13  16
ENDBRANCH  12  13
ENDBRANCH   1  12
TORSDOF 10
ENDMDL
MODEL 3
REMARK VINA RESULT:      -6.4      1.698      2.082
REMARK  Name = 
REMARK  12 active torsions:
REMARK  status: ('A' for Active; 'I' for Inactive)
REMARK    1  A    between atoms: C_2  and  C_3
REMARK    2  A    between atoms: C_3  and  O_4
REMARK    3  A    between atoms: O_4  and  C_5
REMARK    4  A    between atoms: C_10  and  O_11
REMARK    5  A    between atoms: O_11  and  C_12
REMARK    6  A    between atoms: C_12  and  C_13
REMARK    7  A    between atoms: C_13  and  O_14
REMARK    8  A    between atoms: C_13  and  C_15
REMARK    9  A    between atoms: C_15  and  N_16
REMARK   10  A    between atoms: N_16  and  C_17
REMARK   11  A    between atoms: C_17  and  C_18
REMARK   12  A    between atoms: C_17  and  C_19
REMARK                            x       y       z     vdW  Elec       q    Type
REMARK                         _______ _______ _______ _____ _____    ______ ____
ROOT
ATOM      1  O   UNL     1       3.753   3.966  17.455  0.00  0.00    +0.000 OA
ENDROOT
BRANCH   1   7
ATOM      2  C   UNL     1       6.110   4.316  16.615  0.00  0.00    +0.000 A 
ATOM      3  C   UNL     1       7.386   4.767  17.013  0.00  0.00    +0.000 A 
ATOM      4  C   UNL     1       7.621   5.321  18.270  0.00  0.00    +0.000 A 
ATOM      5  C   UNL     1       6.572   5.438  19.168  0.00  0.00    +0.000 A 
ATOM      6  C   UNL     1       5.302   4.992  18.799  0.00  0.00    +0.000 A 
ATOM      7  C   UNL     1       5.051   4.404  17.543  0.00  0.00    +0.000 A 
BRANCH   2   8
ATOM      8  O   UNL     1       6.173   3.793  15.349  0.00  0.00    +0.000 OA
BRANCH   8   9
ATOM      9  C   UNL     1       6.600   4.591  14.256  0.00  0.00    +0.000 C 
BRANCH   9  11
ATOM     10  C   UNL     1       5.550   3.324  12.350  0.00  0.00    +0.000 C 
ATOM     11  C   UNL     1       6.613   3.853  12.950  0.00  0.00    +0.000 C 
ENDBRANCH   9  11
ENDBRANCH   8   9
ENDBRANCH   2   8
ENDBRANCH   1   7
BRANCH   1  12
ATOM     12  C   UNL     1       3.570   2.607  17.131  0.00  0.00    +0.000 C 
BRANCH  12  13
ATOM     13  C   UNL     1       3.203   1.608  18.226  0.00  0.00    +0.000 C 
BRANCH  13  14
ATOM     14  O   UNL     1       4.358   0.770  18.444  0.00  0.00    +0.000 OA
ATOM     15  H   UNL     1       5.150   1.330  18.353  0.00  0.00    +0.000 HD
ENDBRANCH  13  14
BRANCH  13  16
ATOM     16  C   UNL     1       2.825   2.275  19.548  0.00  0.00    +0.000 C 
BRANCH  16  17
ATOM     17  N   UNL     1       1.667   3.129  19.379  0.00  0.00    +0.000 NA
ATOM     18  H   UNL     1       0.918   2.622  18.912  0.00  0.00    +0.000 HD
BRANCH  17  19
ATOM     19  C   UNL     1       1.179   3.744  20.612  0.00  0.00    +0.000 C 
ATOM     20  C   UNL     1       1.654   2.983  21.854  0.00  0.00    +0.000 C 
ATOM     21  C   UNL     1       1.711   5.171  20.639  0.00  0.00    +0.000 C 
ENDBRANCH  17  19
ENDBRANCH  16  17
ENDBRANCH  13  16
ENDBRANCH  12  13
ENDBRANCH   1  12
TORSDOF 10
ENDMDL
MODEL 4
REMARK VINA RESULT:      -6.3      2.825      6.054
REMARK  Name = 
REMARK  12 active torsions:
REMARK  status: ('A' for Active; 'I' for Inactive)
REMARK    1  A    between atoms: C_2  and  C_3
REMARK    2  A    between atoms: C_3  and  O_4
REMARK    3  A    between atoms: O_4  and  C_5
REMARK    4  A    between atoms: C_10  and  O_11
REMARK    5  A    between atoms: O_11  and  C_12
REMARK    6  A    between atoms: C_12  and  C_13
REMARK    7  A    between atoms: C_13  and  O_14
REMARK    8  A    between atoms: C_13  and  C_15
REMARK    9  A    between atoms: C_15  and  N_16
REMARK   10  A    between atoms: N_16  and  C_17
REMARK   11  A    between atoms: C_17  and  C_18
REMARK   12  A    between atoms: C_17  and  C_19
REMARK                            x       y       z     vdW  Elec       q    Type
REMARK                         _______ _______ _______ _____ _____    ______ ____
ROOT
ATOM      1  O   UNL     1       4.207   3.141  17.816  0.00  0.00    +0.000 OA
ENDROOT
BRANCH   1   7
ATOM      2  C   UNL     1       2.913   4.837  19.170  0.00  0.00    +0.000 A 
ATOM      3  C   UNL     1       1.830   4.966  20.065  0.00  0.00    +0.000 A 
ATOM      4  C   UNL     1       1.008   3.892  20.398  0.00  0.00    +0.000 A 
ATOM      5  C   UNL     1       1.252   2.648  19.835  0.00  0.00    +0.000 A 
ATOM      6  C   UNL     1       2.322   2.495  18.952  0.00  0.00    +0.000 A 
ATOM      7  C   UNL     1       3.182   3.564  18.626  0.00  0.00    +0.000 A 
BRANCH   2   8
ATOM      8  O   UNL     1       3.566   6.037  19.050  0.00  0.00    +0.000 OA
BRANCH   8   9
ATOM      9  C   UNL     1       3.209   6.956  18.029  0.00  0.00    +0.000 C 
BRANCH   9  11
ATOM     10  C   UNL     1       1.979   9.143  17.813  0.00  0.00    +0.000 C 
ATOM     11  C   UNL     1       2.315   8.061  18.510  0.00  0.00    +0.000 C 
ENDBRANCH   9  11
ENDBRANCH   8   9
ENDBRANCH   2   8
ENDBRANCH   1   7
BRANCH   1  12
ATOM     12  C   UNL     1       4.446   3.904  16.656  0.00  0.00    +0.000 C 
BRANCH  12  13
ATOM     13  C   UNL     1       5.881   4.192  16.220  0.00  0.00    +0.000 C 
BRANCH  13  14
ATOM     14  O   UNL     1       6.145   3.381  15.056  0.00  0.00    +0.000 OA
ATOM     15  H   UNL     1       6.160   2.450  15.342  0.00  0.00    +0.000 HD
ENDBRANCH  13  14
BRANCH  13  16
ATOM     16  C   UNL     1       6.116   5.659  15.859  0.00  0.00    +0.000 C 
BRANCH  16  17
ATOM     17  N   UNL     1       7.346   6.142  16.452  0.00  0.00    +0.000 NA
ATOM     18  H   UNL     1       7.842   6.746  15.798  0.00  0.00    +0.000 HD
BRANCH  17  19
ATOM     19  C   UNL     1       7.180   6.811  17.741  0.00  0.00    +0.000 C 
ATOM     20  C   UNL     1       7.795   5.999  18.886  0.00  0.00    +0.000 C 
ATOM     21  C   UNL     1       7.869   8.164  17.633  0.00  0.00    +0.000 C 
ENDBRANCH  17  19
ENDBRANCH  16  17
ENDBRANCH  13  16
ENDBRANCH  12  13
ENDBRANCH   1  12
TORSDOF 10
ENDMDL
MODEL 5
REMARK VINA RESULT:      -6.3      2.291      3.194
REMARK  Name = 
REMARK  12 active torsions:
REMARK  status: ('A' for Active; 'I' for Inactive)
REMARK    1  A    between atoms: C_2  and  C_3
REMARK    2  A    between atoms: C_3  and  O_4
REMARK    3  A    between atoms: O_4  and  C_5
REMARK    4  A    between atoms: C_10  and  O_11
REMARK    5  A    between atoms: O_11  and  C_12
REMARK    6  A    between atoms: C_12  and  C_13
REMARK    7  A    between atoms: C_13  and  O_14
REMARK    8  A    between atoms: C_13  and  C_15
REMARK    9  A    between atoms: C_15  and  N_16
REMARK   10  A    between atoms: N_16  and  C_17
REMARK   11  A    between atoms: C_17  and  C_18
REMARK   12  A    between atoms: C_17  and  C_19
REMARK                            x       y       z     vdW  Elec       q    Type
REMARK                         _______ _______ _______ _____ _____    ______ ____
ROOT
ATOM      1  O   UNL     1       4.499   4.527  19.601  0.00  0.00    +0.000 OA
ENDROOT
BRANCH   1   7
ATOM      2  C   UNL     1       4.904   6.341  17.890  0.00  0.00    +0.000 A 
ATOM      3  C   UNL     1       5.929   7.028  17.205  0.00  0.00    +0.000 A 
ATOM      4  C   UNL     1       7.278   6.817  17.481  0.00  0.00    +0.000 A 
ATOM      5  C   UNL     1       7.638   5.905  18.461  0.00  0.00    +0.000 A 
ATOM      6  C   UNL     1       6.641   5.209  19.147  0.00  0.00    +0.000 A 
ATOM      7  C   UNL     1       5.272   5.388  18.862  0.00  0.00    +0.000 A 
BRANCH   2   8
ATOM      8  O   UNL     1       3.680   6.718  17.399  0.00  0.00    +0.000 OA
BRANCH   8   9
ATOM      9  C   UNL     1       2.736   7.373  18.231  0.00  0.00    +0.000 C 
BRANCH   9  11
ATOM     10  C   UNL     1       1.548   9.593  18.267  0.00  0.00    +0.000 C 
ATOM     11  C   UNL     1       2.147   8.604  17.609  0.00  0.00    +0.000 C 
ENDBRANCH   9  11
ENDBRANCH   8   9
ENDBRANCH   2   8
ENDBRANCH   1   7
BRANCH   1  12
ATOM     12  C   UNL     1       4.641   3.155  19.317  0.00  0.00    +0.000 C 
BRANCH  12  13
ATOM     13  C   UNL     1       3.687   2.480  18.334  0.00  0.00    +0.000 C 
BRANCH  13  14
ATOM     14  O   UNL     1       4.200   1.155  18.080  0.00  0.00    +0.000 OA
ATOM     15  H   UNL     1       5.063   1.253  17.638  0.00  0.00    +0.000 HD
ENDBRANCH  13  14
BRANCH  13  16
ATOM     16  C   UNL     1       2.260   2.358  18.869  0.00  0.00    +0.000 C 
BRANCH  16  17
ATOM     17  N   UNL     1       1.652   3.666  19.013  0.00  0.00    +0.000 NA
ATOM     18  H   UNL     1       0.993   3.835  18.255  0.00  0.00    +0.000 HD
BRANCH  17  19
ATOM     19  C   UNL     1       1.018   3.904  20.307  0.00  0.00    +0.000 C 
ATOM     20  C   UNL     1       1.427   2.851  21.343  0.00  0.00    +0.000 C 
ATOM     21  C   UNL     1       1.454   5.287  20.769  0.00  0.00    +0.000 C 
ENDBRANCH  17  19
ENDBRANCH  16  17
ENDBRANCH  13  16
ENDBRANCH  12  13
ENDBRANCH   1  12
TORSDOF 10
ENDMDL
MODEL 6
REMARK VINA RESULT:      -6.3      2.795      5.952
REMARK  Name = 
REMARK  12 active torsions:
REMARK  status: ('A' for Active; 'I' for Inactive)
REMARK    1  A    between atoms: C_2  and  C_3
REMARK    2  A    between atoms: C_3  and  O_4
REMARK    3  A    between atoms: O_4  and  C_5
REMARK    4  A    between atoms: C_10  and  O_11
REMARK    5  A    between atoms: O_11  and  C_12
REMARK    6  A    between atoms: C_12  and  C_13
REMARK    7  A    between atoms: C_13  and  O_14
REMARK    8  A    between atoms: C_13  and  C_15
REMARK    9  A    between atoms: C_15  and  N_16
REMARK   10  A    between atoms: N_16  and  C_17
REMARK   11  A    between atoms: C_17  and  C_18
REMARK   12  A    between atoms: C_17  and  C_19
REMARK                            x       y       z     vdW  Elec       q    Type
REMARK                         _______ _______ _______ _____ _____    ______ ____
ROOT
ATOM      1  O   UNL     1       4.883   4.097  18.195  0.00  0.00    +0.000 OA
ENDROOT
BRANCH   1   7
ATOM      2  C   UNL     1       2.637   4.940  18.988  0.00  0.00    +0.000 A 
ATOM      3  C   UNL     1       1.644   4.731  19.968  0.00  0.00    +0.000 A 
ATOM      4  C   UNL     1       1.711   3.683  20.883  0.00  0.00    +0.000 A 
ATOM      5  C   UNL     1       2.787   2.809  20.839  0.00  0.00    +0.000 A 
ATOM      6  C   UNL     1       3.785   3.000  19.883  0.00  0.00    +0.000 A 
ATOM      7  C   UNL     1       3.748   4.071  18.966  0.00  0.00    +0.000 A 
BRANCH   2   8
ATOM      8  O   UNL     1       2.335   6.053  18.246  0.00  0.00    +0.000 OA
BRANCH   8   9
ATOM      9  C   UNL     1       2.362   7.344  18.833  0.00  0.00    +0.000 C 
BRANCH   9  11
ATOM     10  C   UNL     1       1.816   9.638  17.947  0.00  0.00    +0.000 C 
ATOM     11  C   UNL     1       2.412   8.455  17.825  0.00  0.00    +0.000 C 
ENDBRANCH   9  11
ENDBRANCH   8   9
ENDBRANCH   2   8
ENDBRANCH   1   7
BRANCH   1  12
ATOM     12  C   UNL     1       4.707   3.895  16.812  0.00  0.00    +0.000 C 
BRANCH  12  13
ATOM     13  C   UNL     1       5.901   4.021  15.868  0.00  0.00    +0.000 C 
BRANCH  13  14
ATOM     14  O   UNL     1       5.521   4.936  14.818  0.00  0.00    +0.000 OA
ATOM     15  H   UNL     1       5.094   4.416  14.114  0.00  0.00    +0.000 HD
ENDBRANCH  13  14
BRANCH  13  16
ATOM     16  C   UNL     1       7.157   4.556  16.554  0.00  0.00    +0.000 C 
BRANCH  16  17
ATOM     17  N   UNL     1       7.216   6.001  16.462  0.00  0.00    +0.000 NA
ATOM     18  H   UNL     1       6.507   6.344  15.815  0.00  0.00    +0.000 HD
BRANCH  17  19
ATOM     19  C   UNL     1       7.122   6.698  17.742  0.00  0.00    +0.000 C 
ATOM     20  C   UNL     1       7.779   5.901  18.874  0.00  0.00    +0.000 C 
ATOM     21  C   UNL     1       7.825   8.038  17.573  0.00  0.00    +0.000 C 
ENDBRANCH  17  19
ENDBRANCH  16  17
ENDBRANCH  13  16
ENDBRANCH  12  13
ENDBRANCH   1  12
TORSDOF 10
ENDMDL
MODEL 7
REMARK VINA RESULT:      -6.2      1.348      1.627
REMARK  Name = 
REMARK  12 active torsions:
REMARK  status: ('A' for Active; 'I' for Inactive)
REMARK    1  A    between atoms: C_2  and  C_3
REMARK    2  A    between atoms: C_3  and  O_4
REMARK    3  A    between atoms: O_4  and  C_5
REMARK    4  A    between atoms: C_10  and  O_11
REMARK    5  A    between atoms: O_11  and  C_12
REMARK    6  A    between atoms: C_12  and  C_13
REMARK    7  A    between atoms: C_13  and  O_14
REMARK    8  A    between atoms: C_13  and  C_15
REMARK    9  A    between atoms: C_15  and  N_16
REMARK   10  A    between atoms: N_16  and  C_17
REMARK   11  A    between atoms: C_17  and  C_18
REMARK   12  A    between atoms: C_17  and  C_19
REMARK                            x       y       z     vdW  Elec       q    Type
REMARK                         _______ _______ _______ _____ _____    ______ ____
ROOT
ATOM      1  O   UNL     1       3.969   4.144  17.869  0.00  0.00    +0.000 OA
ENDROOT
BRANCH   1   7
ATOM      2  C   UNL     1       5.954   5.165  16.684  0.00  0.00    +0.000 A 
ATOM      3  C   UNL     1       7.213   5.758  16.915  0.00  0.00    +0.000 A 
ATOM      4  C   UNL     1       7.685   6.027  18.198  0.00  0.00    +0.000 A 
ATOM      5  C   UNL     1       6.899   5.705  19.293  0.00  0.00    +0.000 A 
ATOM      6  C   UNL     1       5.652   5.110  19.090  0.00  0.00    +0.000 A 
ATOM      7  C   UNL     1       5.170   4.805  17.801  0.00  0.00    +0.000 A 
BRANCH   2   8
ATOM      8  O   UNL     1       5.759   4.989  15.338  0.00  0.00    +0.000 OA
BRANCH   8   9
ATOM      9  C   UNL     1       6.172   3.793  14.697  0.00  0.00    +0.000 C 
BRANCH   9  11
ATOM     10  C   UNL     1       6.644   3.798  12.223  0.00  0.00    +0.000 C 
ATOM     11  C   UNL     1       5.795   3.736  13.245  0.00  0.00    +0.000 C 
ENDBRANCH   9  11
ENDBRANCH   8   9
ENDBRANCH   2   8
ENDBRANCH   1   7
BRANCH   1  12
ATOM     12  C   UNL     1       4.004   2.755  17.638  0.00  0.00    +0.000 C 
BRANCH  12  13
ATOM     13  C   UNL     1       3.724   1.787  18.785  0.00  0.00    +0.000 C 
BRANCH  13  14
ATOM     14  O   UNL     1       4.914   1.736  19.601  0.00  0.00    +0.000 OA
ATOM     15  H   UNL     1       5.094   0.799  19.801  0.00  0.00    +0.000 HD
ENDBRANCH  13  14
BRANCH  13  16
ATOM     16  C   UNL     1       2.547   2.216  19.661  0.00  0.00    +0.000 C 
BRANCH  16  17
ATOM     17  N   UNL     1       2.939   3.282  20.561  0.00  0.00    +0.000 NA
ATOM     18  H   UNL     1       3.731   3.796  20.177  0.00  0.00    +0.000 HD
BRANCH  17  19
ATOM     19  C   UNL     1       1.861   4.199  20.926  0.00  0.00    +0.000 C 
ATOM     20  C   UNL     1       2.164   5.636  20.487  0.00  0.00    +0.000 C 
ATOM     21  C   UNL     1       0.599   3.699  20.237  0.00  0.00    +0.000 C 
ENDBRANCH  17  19
ENDBRANCH  16  17
ENDBRANCH  13  16
ENDBRANCH  12  13
ENDBRANCH   1  12
TORSDOF 10
ENDMDL
MODEL 8
REMARK VINA RESULT:      -6.2      2.812      5.723
REMARK  Name = 
REMARK  12 active torsions:
REMARK  status: ('A' for Active; 'I' for Inactive)
REMARK    1  A    between atoms: C_2  and  C_3
REMARK    2  A    between atoms: C_3  and  O_4
REMARK    3  A    between atoms: O_4  and  C_5
REMARK    4  A    between atoms: C_10  and  O_11
REMARK    5  A    between atoms: O_11  and  C_12
REMARK    6  A    between atoms: C_12  and  C_13
REMARK    7  A    between atoms: C_13  and  O_14
REMARK    8  A    between atoms: C_13  and  C_15
REMARK    9  A    between atoms: C_15  and  N_16
REMARK   10  A    between atoms: N_16  and  C_17
REMARK   11  A    between atoms: C_17  and  C_18
REMARK   12  A    between atoms: C_17  and  C_19
REMARK                            x       y       z     vdW  Elec       q    Type
REMARK                         _______ _______ _______ _____ _____    ______ ____
ROOT
ATOM      1  O   UNL     1       5.320   4.000  18.140  0.00  0.00    +0.000 OA
ENDROOT
BRANCH   1   7
ATOM      2  C   UNL     1       2.990   4.865  18.597  0.00  0.00    +0.000 A 
ATOM      3  C   UNL     1       1.836   4.620  19.370  0.00  0.00    +0.000 A 
ATOM      4  C   UNL     1       1.717   3.506  20.199  0.00  0.00    +0.000 A 
ATOM      5  C   UNL     1       2.763   2.599  20.272  0.00  0.00    +0.000 A 
ATOM      6  C   UNL     1       3.918   2.823  19.521  0.00  0.00    +0.000 A 
ATOM      7  C   UNL     1       4.067   3.959  18.699  0.00  0.00    +0.000 A 
BRANCH   2   8
ATOM      8  O   UNL     1       2.848   6.039  17.903  0.00  0.00    +0.000 OA
BRANCH   8   9
ATOM      9  C   UNL     1       2.513   7.242  18.577  0.00  0.00    +0.000 C 
BRANCH   9  11
ATOM     10  C   UNL     1       1.836   9.596  17.993  0.00  0.00    +0.000 C 
ATOM     11  C   UNL     1       2.029   8.324  17.657  0.00  0.00    +0.000 C 
ENDBRANCH   9  11
ENDBRANCH   8   9
ENDBRANCH   2   8
ENDBRANCH   1   7
BRANCH   1  12
ATOM     12  C   UNL     1       6.312   4.680  18.873  0.00  0.00    +0.000 C 
BRANCH  12  13
ATOM     13  C   UNL     1       7.549   5.220  18.159  0.00  0.00    +0.000 C 
BRANCH  13  14
ATOM     14  O   UNL     1       8.296   4.082  17.679  0.00  0.00    +0.000 OA
ATOM     15  H   UNL     1       8.972   3.870  18.347  0.00  0.00    +0.000 HD
ENDBRANCH  13  14
BRANCH  13  16
ATOM     16  C   UNL     1       7.212   6.121  16.971  0.00  0.00    +0.000 C 
BRANCH  16  17
ATOM     17  N   UNL     1       7.513   5.455  15.720  0.00  0.00    +0.000 NA
ATOM     18  H   UNL     1       7.962   4.558  15.895  0.00  0.00    +0.000 HD
BRANCH  17  19
ATOM     19  C   UNL     1       6.368   5.290  14.827  0.00  0.00    +0.000 C 
ATOM     20  C   UNL     1       6.016   3.812  14.623  0.00  0.00    +0.000 C 
ATOM     21  C   UNL     1       5.195   6.022  15.465  0.00  0.00    +0.000 C 
ENDBRANCH  17  19
ENDBRANCH  16  17
ENDBRANCH  13  16
ENDBRANCH  12  13
ENDBRANCH   1  12
TORSDOF 10
ENDMDL
MODEL 9
REMARK VINA RESULT:      -6.2      2.853      5.769
REMARK  Name = 
REMARK  12 active torsions:
REMARK  status: ('A' for Active; 'I' for Inactive)
REMARK    1  A    between atoms: C_2  and  C_3
REMARK    2  A    between atoms: C_3  and  O_4
REMARK    3  A    between atoms: O_4  and  C_5
REMARK    4  A    between atoms: C_10  and  O_11
REMARK    5  A    between atoms: O_11  and  C_12
REMARK    6  A    between atoms: C_12  and  C_13
REMARK    7  A    between atoms: C_13  and  O_14
REMARK    8  A    between atoms: C_13  and  C_15
REMARK    9  A    between atoms: C_15  and  N_16
REMARK   10  A    between atoms: N_16  and  C_17
REMARK   11  A    between atoms: C_17  and  C_18
REMARK   12  A    between atoms: C_17  and  C_19
REMARK                            x       y       z     vdW  Elec       q    Type
REMARK                         _______ _______ _______ _____ _____    ______ ____
ROOT
ATOM      1  O   UNL     1       5.093   5.423  19.070  0.00  0.00    +0.000 OA
ENDROOT
BRANCH   1   7
ATOM      2  C   UNL     1       2.793   4.920  18.151  0.00  0.00    +0.000 A 
ATOM      3  C   UNL     1       1.888   3.864  17.910  0.00  0.00    +0.000 A 
ATOM      4  C   UNL     1       2.225   2.531  18.132  0.00  0.00    +0.000 A 
ATOM      5  C   UNL     1       3.490   2.219  18.606  0.00  0.00    +0.000 A 
ATOM      6  C   UNL     1       4.400   3.247  18.858  0.00  0.00    +0.000 A 
ATOM      7  C   UNL     1       4.068   4.603  18.666  0.00  0.00    +0.000 A 
BRANCH   2   8
ATOM      8  O   UNL     1       2.192   6.122  17.878  0.00  0.00    +0.000 OA
BRANCH   8   9
ATOM      9  C   UNL     1       2.551   7.292  18.596  0.00  0.00    +0.000 C 
BRANCH   9  11
ATOM     10  C   UNL     1       1.357   9.423  17.984  0.00  0.00    +0.000 C 
ATOM     11  C   UNL     1       2.351   8.556  17.813  0.00  0.00    +0.000 C 
ENDBRANCH   9  11
ENDBRANCH   8   9
ENDBRANCH   2   8
ENDBRANCH   1   7
BRANCH   1  12
ATOM     12  C   UNL     1       6.377   4.847  19.110  0.00  0.00    +0.000 C 
BRANCH  12  13
ATOM     13  C   UNL     1       7.437   5.285  18.101  0.00  0.00    +0.000 C 
BRANCH  13  14
ATOM     14  O   UNL     1       8.124   4.095  17.659  0.00  0.00    +0.000 OA
ATOM     15  H   UNL     1       7.632   3.327  18.000  0.00  0.00    +0.000 HD
ENDBRANCH  13  14
BRANCH  13  16
ATOM     16  C   UNL     1       6.850   5.994  16.881  0.00  0.00    +0.000 C 
BRANCH  16  17
ATOM     17  N   UNL     1       7.375   5.426  15.656  0.00  0.00    +0.000 NA
ATOM     18  H   UNL     1       7.951   4.611  15.861  0.00  0.00    +0.000 HD
BRANCH  17  19
ATOM     19  C   UNL     1       6.364   5.099  14.653  0.00  0.00    +0.000 C 
ATOM     20  C   UNL     1       6.977   4.398  13.436  0.00  0.00    +0.000 C 
ATOM     21  C   UNL     1       5.349   4.185  15.325  0.00  0.00    +0.000 C 
ENDBRANCH  17  19
ENDBRANCH  16  17
ENDBRANCH  13  16
ENDBRANCH  12  13
ENDBRANCH   1  12
TORSDOF 10
ENDMDL
