MODEL 1
REMARK VINA RESULT:      -6.3      0.000      0.000
REMARK  Name = 
REMARK  5 active torsions:
REMARK  status: ('A' for Active; 'I' for Inactive)
REMARK    1  A    between atoms: S_2  and  C_4
REMARK    2  A    between atoms: S_2  and  N_11
REMARK    3  A    between atoms: C_4  and  C_5
REMARK    4  A    between atoms: N_14  and  C_15
REMARK    5  A    between atoms: C_15  and  C_16
REMARK                            x       y       z     vdW  Elec       q    Type
REMARK                         _______ _______ _______ _____ _____    ______ ____
ROOT
ATOM      1  N   UNL     1       5.031   5.465  17.400  0.00  0.00    +0.000 NA
ATOM      2  C   UNL     1       6.272   6.162  16.905  0.00  0.00    +0.000 C 
ATOM      3  C   UNL     1       7.340   5.165  16.388  0.00  0.00    +0.000 C 
ATOM      4  N   UNL     1       6.859   4.179  15.386  0.00  0.00    +0.000 NA
ATOM      5  C   UNL     1       5.644   3.525  15.915  0.00  0.00    +0.000 C 
ATOM      6  C   UNL     1       4.545   4.501  16.369  0.00  0.00    +0.000 C 
ENDROOT
BRANCH   1   8
ATOM      7  O   UNL     1       6.328   5.590  19.564  0.00  0.00    +0.000 OA
ATOM      8  S   UNL     1       5.159   4.930  19.022  0.00  0.00    +0.000 S 
ATOM      9  O   UNL     1       5.066   3.485  19.006  0.00  0.00    +0.000 OA
BRANCH   8  10
ATOM     10  C   UNL     1       3.680   5.606  19.807  0.00  0.00    +0.000 C 
BRANCH  10  11
ATOM     11  C   UNL     1       2.605   4.548  19.801  0.00  0.00    +0.000 A 
ATOM     12  C   UNL     1       2.298   3.834  20.968  0.00  0.00    +0.000 A 
ATOM     13  C   UNL     1       1.333   2.828  20.948  0.00  0.00    +0.000 A 
ATOM     14  C   UNL     1       0.664   2.521  19.764  0.00  0.00    +0.000 A 
ATOM     15  C   UNL     1       0.954   3.227  18.600  0.00  0.00    +0.000 A 
ATOM     16  C   UNL     1       1.919   4.236  18.616  0.00  0.00    +0.000 A 
ENDBRANCH  10  11
ENDBRANCH   8  10
ENDBRANCH   1   8
BRANCH   4  17
ATOM     17  C   UNL     1       6.667   4.821  14.074  0.00  0.00    +0.000 C 
BRANCH  17  18
ATOM     18  C   UNL     1       6.323   3.862  12.953  0.00  0.00    +0.000 A 
ATOM     19  C   UNL     1       7.237   2.886  12.532  0.00  0.00    +0.000 A 
ATOM     20  C   UNL     1       6.911   2.005  11.501  0.00  0.00    +0.000 A 
ATOM     21  C   UNL     1       5.664   2.082  10.880  0.00  0.00    +0.000 A 
ATOM     22  C   UNL     1       4.748   3.047  11.293  0.00  0.00    +0.000 A 
ATOM     23  I   UNL     1       2.878   3.155  10.392  0.00  0.00    +0.000 I 
ATOM     24  C   UNL     1       5.073   3.941  12.317  0.00  0.00    +0.000 A 
ENDBRANCH  17  18
ENDBRANCH   4  17
TORSDOF 5
ENDMDL
MODEL 2
REMARK VINA RESULT:      -6.3      4.256      8.536
REMARK  Name = 
REMARK  5 active torsions:
REMARK  status: ('A' for Active; 'I' for Inactive)
REMARK    1  A    between atoms: S_2  and  C_4
REMARK    2  A    between atoms: S_2  and  N_11
REMARK    3  A    between atoms: C_4  and  C_5
REMARK    4  A    between atoms: N_14  and  C_15
REMARK    5  A    between atoms: C_15  and  C_16
REMARK                            x       y       z     vdW  Elec       q    Type
REMARK                         _______ _______ _______ _____ _____    ______ ____
ROOT
ATOM      1  N   UNL     1       2.214   4.134  18.619  0.00  0.00    +0.000 NA
ATOM      2  C   UNL     1       1.691   4.001  20.026  0.00  0.00    +0.000 C 
ATOM      3  C   UNL     1       2.239   5.107  20.964  0.00  0.00    +0.000 C 
ATOM      4  N   UNL     1       2.071   6.499  20.473  0.00  0.00    +0.000 NA
ATOM      5  C   UNL     1       2.596   6.578  19.094  0.00  0.00    +0.000 C 
ATOM      6  C   UNL     1       2.010   5.531  18.132  0.00  0.00    +0.000 C 
ENDROOT
BRANCH   1   8
ATOM      7  O   UNL     1       3.492   2.004  18.162  0.00  0.00    +0.000 OA
ATOM      8  S   UNL     1       3.749   3.409  18.398  0.00  0.00    +0.000 S 
ATOM      9  O   UNL     1       4.587   3.833  19.500  0.00  0.00    +0.000 OA
BRANCH   8  10
ATOM     10  C   UNL     1       4.357   4.163  16.874  0.00  0.00    +0.000 C 
BRANCH  10  11
ATOM     11  C   UNL     1       5.537   5.042  17.208  0.00  0.00    +0.000 A 
ATOM     12  C   UNL     1       6.693   4.496  17.784  0.00  0.00    +0.000 A 
ATOM     13  C   UNL     1       7.765   5.318  18.131  0.00  0.00    +0.000 A 
ATOM     14  C   UNL     1       7.696   6.692  17.907  0.00  0.00    +0.000 A 
ATOM     15  C   UNL     1       6.557   7.245  17.329  0.00  0.00    +0.000 A 
ATOM     16  C   UNL     1       5.482   6.425  16.980  0.00  0.00    +0.000 A 
ENDBRANCH  10  11
ENDBRANCH   8  10
ENDBRANCH   1   8
BRANCH   4  17
ATOM     17  C   UNL     1       0.669   6.932  20.603  0.00  0.00    +0.000 C 
BRANCH  17  18
ATOM     18  C   UNL     1       0.497   8.383  21.003  0.00  0.00    +0.000 A 
ATOM     19  C   UNL     1      -0.021   8.729  22.259  0.00  0.00    +0.000 A 
ATOM     20  C   UNL     1      -0.174  10.069  22.619  0.00  0.00    +0.000 A 
ATOM     21  C   UNL     1       0.197  11.081  21.733  0.00  0.00    +0.000 A 
ATOM     22  C   UNL     1       0.715  10.746  20.484  0.00  0.00    +0.000 A 
ATOM     23  I   UNL     1       1.293  12.246  19.166  0.00  0.00    +0.000 I 
ATOM     24  C   UNL     1       0.859   9.406  20.112  0.00  0.00    +0.000 A 
ENDBRANCH  17  18
ENDBRANCH   4  17
TORSDOF 5
ENDMDL
MODEL 3
REMARK VINA RESULT:      -6.2      4.349      8.705
REMARK  Name = 
REMARK  5 active torsions:
REMARK  status: ('A' for Active; 'I' for Inactive)
REMARK    1  A    between atoms: S_2  and  C_4
REMARK    2  A    between atoms: S_2  and  N_11
REMARK    3  A    between atoms: C_4  and  C_5
REMARK    4  A    between atoms: N_14  and  C_15
REMARK    5  A    between atoms: C_15  and  C_16
REMARK                            x       y       z     vdW  Elec       q    Type
REMARK                         _______ _______ _______ _____ _____    ______ ____
ROOT
ATOM      1  N   UNL     1       2.181   4.439  18.495  0.00  0.00    +0.000 NA
ATOM      2  C   UNL     1       1.428   4.126  19.762  0.00  0.00    +0.000 C 
ATOM      3  C   UNL     1       1.866   5.029  20.944  0.00  0.00    +0.000 C 
ATOM      4  N   UNL     1       1.848   6.489  20.672  0.00  0.00    +0.000 NA
ATOM      5  C   UNL     1       2.595   6.744  19.423  0.00  0.00    +0.000 C 
ATOM      6  C   UNL     1       2.126   5.906  18.221  0.00  0.00    +0.000 C 
ENDROOT
BRANCH   1   8
ATOM      7  O   UNL     1       3.395   2.252  18.147  0.00  0.00    +0.000 OA
ATOM      8  S   UNL     1       3.695   3.647  18.396  0.00  0.00    +0.000 S 
ATOM      9  O   UNL     1       4.464   4.042  19.558  0.00  0.00    +0.000 OA
BRANCH   8  10
ATOM     10  C   UNL     1       4.451   4.362  16.920  0.00  0.00    +0.000 C 
BRANCH  10  11
ATOM     11  C   UNL     1       5.603   5.238  17.345  0.00  0.00    +0.000 A 
ATOM     12  C   UNL     1       5.604   6.609  17.053  0.00  0.00    +0.000 A 
ATOM     13  C   UNL     1       6.690   7.407  17.411  0.00  0.00    +0.000 A 
ATOM     14  C   UNL     1       7.787   6.847  18.064  0.00  0.00    +0.000 A 
ATOM     15  C   UNL     1       7.795   5.488  18.367  0.00  0.00    +0.000 A 
ATOM     16  C   UNL     1       6.709   4.686  18.011  0.00  0.00    +0.000 A 
ENDBRANCH  10  11
ENDBRANCH   8  10
ENDBRANCH   1   8
BRANCH   4  17
ATOM     17  C   UNL     1       0.465   6.998  20.654  0.00  0.00    +0.000 C 
BRANCH  17  18
ATOM     18  C   UNL     1       0.322   8.435  21.112  0.00  0.00    +0.000 A 
ATOM     19  C   UNL     1      -0.131   8.739  22.404  0.00  0.00    +0.000 A 
ATOM     20  C   UNL     1      -0.257  10.066  22.818  0.00  0.00    +0.000 A 
ATOM     21  C   UNL     1       0.074  11.107  21.950  0.00  0.00    +0.000 A 
ATOM     22  C   UNL     1       0.527  10.814  20.666  0.00  0.00    +0.000 A 
ATOM     23  I   UNL     1       1.047  12.357  19.373  0.00  0.00    +0.000 I 
ATOM     24  C   UNL     1       0.644   9.488  20.240  0.00  0.00    +0.000 A 
ENDBRANCH  17  18
ENDBRANCH   4  17
TORSDOF 5
ENDMDL
MODEL 4
REMARK VINA RESULT:      -6.2      7.173      9.151
REMARK  Name = 
REMARK  5 active torsions:
REMARK  status: ('A' for Active; 'I' for Inactive)
REMARK    1  A    between atoms: S_2  and  C_4
REMARK    2  A    between atoms: S_2  and  N_11
REMARK    3  A    between atoms: C_4  and  C_5
REMARK    4  A    between atoms: N_14  and  C_15
REMARK    5  A    between atoms: C_15  and  C_16
REMARK                            x       y       z     vdW  Elec       q    Type
REMARK                         _______ _______ _______ _____ _____    ______ ____
ROOT
ATOM      1  N   UNL     1       0.710  11.954  19.689  0.00  0.00    +0.000 NA
ATOM      2  C   UNL     1       0.482  11.025  20.854  0.00  0.00    +0.000 C 
ATOM      3  C   UNL     1      -0.046   9.638  20.405  0.00  0.00    +0.000 C 
ATOM      4  N   UNL     1       0.750   8.965  19.346  0.00  0.00    +0.000 NA
ATOM      5  C   UNL     1       0.947   9.914  18.231  0.00  0.00    +0.000 C 
ATOM      6  C   UNL     1       1.536  11.272  18.649  0.00  0.00    +0.000 C 
ENDROOT
BRANCH   1   8
ATOM      7  O   UNL     1      -0.578  12.964  17.765  0.00  0.00    +0.000 OA
ATOM      8  S   UNL     1      -0.709  12.776  19.195  0.00  0.00    +0.000 S 
ATOM      9  O   UNL     1      -0.877  13.911  20.077  0.00  0.00    +0.000 OA
BRANCH   8  10
ATOM     10  C   UNL     1      -2.024  11.581  19.516  0.00  0.00    +0.000 C 
BRANCH  10  11
ATOM     11  C   UNL     1      -2.700  11.247  18.210  0.00  0.00    +0.000 A 
ATOM     12  C   UNL     1      -3.924  11.838  17.867  0.00  0.00    +0.000 A 
ATOM     13  C   UNL     1      -4.567  11.495  16.678  0.00  0.00    +0.000 A 
ATOM     14  C   UNL     1      -3.996  10.558  15.817  0.00  0.00    +0.000 A 
ATOM     15  C   UNL     1      -2.777   9.969  16.142  0.00  0.00    +0.000 A 
ATOM     16  C   UNL     1      -2.130  10.312  17.332  0.00  0.00    +0.000 A 
ENDBRANCH  10  11
ENDBRANCH   8  10
ENDBRANCH   1   8
BRANCH   4  17
ATOM     17  C   UNL     1       2.005   8.429  19.900  0.00  0.00    +0.000 C 
BRANCH  17  18
ATOM     18  C   UNL     1       2.319   7.009  19.477  0.00  0.00    +0.000 A 
ATOM     19  C   UNL     1       2.908   6.739  18.233  0.00  0.00    +0.000 A 
ATOM     20  C   UNL     1       3.195   5.428  17.853  0.00  0.00    +0.000 A 
ATOM     21  C   UNL     1       2.905   4.368  18.712  0.00  0.00    +0.000 A 
ATOM     22  C   UNL     1       2.322   4.626  19.950  0.00  0.00    +0.000 A 
ATOM     23  I   UNL     1       1.908   3.056  21.249  0.00  0.00    +0.000 I 
ATOM     24  C   UNL     1       2.020   5.936  20.333  0.00  0.00    +0.000 A 
ENDBRANCH  17  18
ENDBRANCH   4  17
TORSDOF 5
ENDMDL
MODEL 5
REMARK VINA RESULT:      -6.2      7.539      9.193
REMARK  Name = 
REMARK  5 active torsions:
REMARK  status: ('A' for Active; 'I' for Inactive)
REMARK    1  A    between atoms: S_2  and  C_4
REMARK    2  A    between atoms: S_2  and  N_11
REMARK    3  A    between atoms: C_4  and  C_5
REMARK    4  A    between atoms: N_14  and  C_15
REMARK    5  A    between atoms: C_15  and  C_16
REMARK                            x       y       z     vdW  Elec       q    Type
REMARK                         _______ _______ _______ _____ _____    ______ ____
ROOT
ATOM      1  N   UNL     1      -0.568  10.096  20.746  0.00  0.00    +0.000 NA
ATOM      2  C   UNL     1      -0.294  10.468  19.312  0.00  0.00    +0.000 C 
ATOM      3  C   UNL     1       1.206  10.334  18.945  0.00  0.00    +0.000 C 
ATOM      4  N   UNL     1       1.828   9.025  19.274  0.00  0.00    +0.000 NA
ATOM      5  C   UNL     1       1.532   8.705  20.686  0.00  0.00    +0.000 C 
ATOM      6  C   UNL     1       0.038   8.765  21.050  0.00  0.00    +0.000 C 
ENDROOT
BRANCH   1   8
ATOM      7  O   UNL     1       0.959  11.984  21.443  0.00  0.00    +0.000 OA
ATOM      8  S   UNL     1      -0.298  11.385  21.841  0.00  0.00    +0.000 S 
ATOM      9  O   UNL     1      -0.475  10.857  23.178  0.00  0.00    +0.000 OA
BRANCH   8  10
ATOM     10  C   UNL     1      -1.642  12.535  21.480  0.00  0.00    +0.000 C 
BRANCH  10  11
ATOM     11  C   UNL     1      -2.017  13.253  22.753  0.00  0.00    +0.000 A 
ATOM     12  C   UNL     1      -3.251  13.011  23.372  0.00  0.00    +0.000 A 
ATOM     13  C   UNL     1      -3.611  13.706  24.526  0.00  0.00    +0.000 A 
ATOM     14  C   UNL     1      -2.745  14.651  25.074  0.00  0.00    +0.000 A 
ATOM     15  C   UNL     1      -1.513  14.895  24.473  0.00  0.00    +0.000 A 
ATOM     16  C   UNL     1      -1.149  14.200  23.318  0.00  0.00    +0.000 A 
ENDBRANCH  10  11
ENDBRANCH   8  10
ENDBRANCH   1   8
BRANCH   4  17
ATOM     17  C   UNL     1       1.391   7.988  18.324  0.00  0.00    +0.000 C 
BRANCH  17  18
ATOM     18  C   UNL     1       2.452   6.959  17.991  0.00  0.00    +0.000 A 
ATOM     19  C   UNL     1       3.733   7.350  17.577  0.00  0.00    +0.000 A 
ATOM     20  C   UNL     1       4.704   6.395  17.275  0.00  0.00    +0.000 A 
ATOM     21  C   UNL     1       4.412   5.036  17.390  0.00  0.00    +0.000 A 
ATOM     22  C   UNL     1       3.143   4.638  17.803  0.00  0.00    +0.000 A 
ATOM     23  I   UNL     1       2.704   2.615  18.003  0.00  0.00    +0.000 I 
ATOM     24  C   UNL     1       2.161   5.589  18.096  0.00  0.00    +0.000 A 
ENDBRANCH  17  18
ENDBRANCH   4  17
TORSDOF 5
ENDMDL
MODEL 6
REMARK VINA RESULT:      -6.2      2.526      3.683
REMARK  Name = 
REMARK  5 active torsions:
REMARK  status: ('A' for Active; 'I' for Inactive)
REMARK    1  A    between atoms: S_2  and  C_4
REMARK    2  A    between atoms: S_2  and  N_11
REMARK    3  A    between atoms: C_4  and  C_5
REMARK    4  A    between atoms: N_14  and  C_15
REMARK    5  A    between atoms: C_15  and  C_16
REMARK                            x       y       z     vdW  Elec       q    Type
REMARK                         _______ _______ _______ _____ _____    ______ ____
ROOT
ATOM      1  N   UNL     1       3.694   3.686  18.495  0.00  0.00    +0.000 NA
ATOM      2  C   UNL     1       3.744   3.703  16.989  0.00  0.00    +0.000 C 
ATOM      3  C   UNL     1       4.407   4.992  16.437  0.00  0.00    +0.000 C 
ATOM      4  N   UNL     1       5.738   5.318  17.009  0.00  0.00    +0.000 NA
ATOM      5  C   UNL     1       5.639   5.288  18.483  0.00  0.00    +0.000 C 
ATOM      6  C   UNL     1       5.047   3.986  19.051  0.00  0.00    +0.000 C 
ENDROOT
BRANCH   1   8
ATOM      7  O   UNL     1       1.736   3.619  20.088  0.00  0.00    +0.000 OA
ATOM      8  S   UNL     1       2.345   4.523  19.135  0.00  0.00    +0.000 S 
ATOM      9  O   UNL     1       1.586   5.037  18.014  0.00  0.00    +0.000 OA
BRANCH   8  10
ATOM     10  C   UNL     1       3.089   5.907  20.025  0.00  0.00    +0.000 C 
BRANCH  10  11
ATOM     11  C   UNL     1       2.454   7.187  19.542  0.00  0.00    +0.000 A 
ATOM     12  C   UNL     1       1.618   7.932  20.385  0.00  0.00    +0.000 A 
ATOM     13  C   UNL     1       0.999   9.093  19.921  0.00  0.00    +0.000 A 
ATOM     14  C   UNL     1       1.209   9.523  18.611  0.00  0.00    +0.000 A 
ATOM     15  C   UNL     1       2.043   8.797  17.766  0.00  0.00    +0.000 A 
ATOM     16  C   UNL     1       2.665   7.634  18.228  0.00  0.00    +0.000 A 
ENDBRANCH  10  11
ENDBRANCH   8  10
ENDBRANCH   1   8
BRANCH   4  17
ATOM     17  C   UNL     1       6.773   4.423  16.463  0.00  0.00    +0.000 C 
BRANCH  17  18
ATOM     18  C   UNL     1       6.961   4.527  14.963  0.00  0.00    +0.000 A 
ATOM     19  C   UNL     1       7.886   5.426  14.413  0.00  0.00    +0.000 A 
ATOM     20  C   UNL     1       8.055   5.513  13.030  0.00  0.00    +0.000 A 
ATOM     21  C   UNL     1       7.308   4.699  12.179  0.00  0.00    +0.000 A 
ATOM     22  C   UNL     1       6.388   3.801  12.717  0.00  0.00    +0.000 A 
ATOM     23  I   UNL     1       5.288   2.565  11.459  0.00  0.00    +0.000 I 
ATOM     24  C   UNL     1       6.205   3.717  14.100  0.00  0.00    +0.000 A 
ENDBRANCH  17  18
ENDBRANCH   4  17
TORSDOF 5
ENDMDL
MODEL 7
REMARK VINA RESULT:      -6.2      7.339      8.980
REMARK  Name = 
REMARK  5 active torsions:
REMARK  status: ('A' for Active; 'I' for Inactive)
REMARK    1  A    between atoms: S_2  and  C_4
REMARK    2  A    between atoms: S_2  and  N_11
REMARK    3  A    between atoms: C_4  and  C_5
REMARK    4  A    between atoms: N_14  and  C_15
REMARK    5  A    between atoms: C_15  and  C_16
REMARK                            x       y       z     vdW  Elec       q    Type
REMARK                         _______ _______ _______ _____ _____    ______ ____
ROOT
ATOM      1  N   UNL     1      -0.494   9.665  20.824  0.00  0.00    +0.000 NA
ATOM      2  C   UNL     1      -0.395  10.080  19.379  0.00  0.00    +0.000 C 
ATOM      3  C   UNL     1       1.073  10.133  18.881  0.00  0.00    +0.000 C 
ATOM      4  N   UNL     1       1.875   8.908  19.130  0.00  0.00    +0.000 NA
ATOM      5  C   UNL     1       1.745   8.542  20.556  0.00  0.00    +0.000 C 
ATOM      6  C   UNL     1       0.293   8.417  21.049  0.00  0.00    +0.000 C 
ENDROOT
BRANCH   1   8
ATOM      7  O   UNL     1       1.042  11.486  21.664  0.00  0.00    +0.000 OA
ATOM      8  S   UNL     1      -0.286  10.968  21.916  0.00  0.00    +0.000 S 
ATOM      9  O   UNL     1      -0.657  10.490  23.231  0.00  0.00    +0.000 OA
BRANCH   8  10
ATOM     10  C   UNL     1      -1.507  12.180  21.365  0.00  0.00    +0.000 C 
BRANCH  10  11
ATOM     11  C   UNL     1      -1.972  12.972  22.561  0.00  0.00    +0.000 A 
ATOM     12  C   UNL     1      -1.138  13.933  23.150  0.00  0.00    +0.000 A 
ATOM     13  C   UNL     1      -1.555  14.634  24.281  0.00  0.00    +0.000 A 
ATOM     14  C   UNL     1      -2.809  14.384  24.838  0.00  0.00    +0.000 A 
ATOM     15  C   UNL     1      -3.650  13.438  24.259  0.00  0.00    +0.000 A 
ATOM     16  C   UNL     1      -3.236  12.735  23.125  0.00  0.00    +0.000 A 
ENDBRANCH  10  11
ENDBRANCH   8  10
ENDBRANCH   1   8
BRANCH   4  17
ATOM     17  C   UNL     1       1.485   7.833  18.202  0.00  0.00    +0.000 C 
BRANCH  17  18
ATOM     18  C   UNL     1       2.568   6.806  17.945  0.00  0.00    +0.000 A 
ATOM     19  C   UNL     1       3.864   7.199  17.581  0.00  0.00    +0.000 A 
ATOM     20  C   UNL     1       4.856   6.245  17.350  0.00  0.00    +0.000 A 
ATOM     21  C   UNL     1       4.570   4.886  17.485  0.00  0.00    +0.000 A 
ATOM     22  C   UNL     1       3.285   4.487  17.848  0.00  0.00    +0.000 A 
ATOM     23  I   UNL     1       2.853   2.466  18.077  0.00  0.00    +0.000 I 
ATOM     24  C   UNL     1       2.284   5.436  18.070  0.00  0.00    +0.000 A 
ENDBRANCH  17  18
ENDBRANCH   4  17
TORSDOF 5
ENDMDL
MODEL 8
REMARK VINA RESULT:      -6.2      7.399      9.084
REMARK  Name = 
REMARK  5 active torsions:
REMARK  status: ('A' for Active; 'I' for Inactive)
REMARK    1  A    between atoms: S_2  and  C_4
REMARK    2  A    between atoms: S_2  and  N_11
REMARK    3  A    between atoms: C_4  and  C_5
REMARK    4  A    between atoms: N_14  and  C_15
REMARK    5  A    between atoms: C_15  and  C_16
REMARK                            x       y       z     vdW  Elec       q    Type
REMARK                         _______ _______ _______ _____ _____    ______ ____
ROOT
ATOM      1  N   UNL     1      -0.497   9.687  20.799  0.00  0.00    +0.000 NA
ATOM      2  C   UNL     1      -0.378  10.133  19.364  0.00  0.00    +0.000 C 
ATOM      3  C   UNL     1       1.097  10.195  18.889  0.00  0.00    +0.000 C 
ATOM      4  N   UNL     1       1.895   8.964  19.122  0.00  0.00    +0.000 NA
ATOM      5  C   UNL     1       1.744   8.567  20.538  0.00  0.00    +0.000 C 
ATOM      6  C   UNL     1       0.286   8.433  21.007  0.00  0.00    +0.000 C 
ENDROOT
BRANCH   1   8
ATOM      7  O   UNL     1       0.998  11.537  21.648  0.00  0.00    +0.000 OA
ATOM      8  S   UNL     1      -0.304  10.966  21.921  0.00  0.00    +0.000 S 
ATOM      9  O   UNL     1      -0.620  10.438  23.232  0.00  0.00    +0.000 OA
BRANCH   8  10
ATOM     10  C   UNL     1      -1.581  12.148  21.439  0.00  0.00    +0.000 C 
BRANCH  10  11
ATOM     11  C   UNL     1      -1.993  12.935  22.659  0.00  0.00    +0.000 A 
ATOM     12  C   UNL     1      -3.243  12.724  23.256  0.00  0.00    +0.000 A 
ATOM     13  C   UNL     1      -3.637  13.483  24.358  0.00  0.00    +0.000 A 
ATOM     14  C   UNL     1      -2.789  14.461  24.876  0.00  0.00    +0.000 A 
ATOM     15  C   UNL     1      -1.542  14.675  24.296  0.00  0.00    +0.000 A 
ATOM     16  C   UNL     1      -1.143  13.916  23.193  0.00  0.00    +0.000 A 
ENDBRANCH  10  11
ENDBRANCH   8  10
ENDBRANCH   1   8
BRANCH   4  17
ATOM     17  C   UNL     1       1.517   7.910  18.165  0.00  0.00    +0.000 C 
BRANCH  17  18
ATOM     18  C   UNL     1       2.524   6.785  18.045  0.00  0.00    +0.000 A 
ATOM     19  C   UNL     1       2.125   5.444  18.149  0.00  0.00    +0.000 A 
ATOM     20  C   UNL     1       3.059   4.414  18.035  0.00  0.00    +0.000 A 
ATOM     21  C   UNL     1       4.404   4.708  17.808  0.00  0.00    +0.000 A 
ATOM     22  C   UNL     1       4.809   6.037  17.701  0.00  0.00    +0.000 A 
ATOM     23  I   UNL     1       6.806   6.486  17.337  0.00  0.00    +0.000 I 
ATOM     24  C   UNL     1       3.881   7.074  17.826  0.00  0.00    +0.000 A 
ENDBRANCH  17  18
ENDBRANCH   4  17
TORSDOF 5
ENDMDL
MODEL 9
REMARK VINA RESULT:      -6.1      4.269      8.217
REMARK  Name = 
REMARK  5 active torsions:
REMARK  status: ('A' for Active; 'I' for Inactive)
REMARK    1  A    between atoms: S_2  and  C_4
REMARK    2  A    between atoms: S_2  and  N_11
REMARK    3  A    between atoms: C_4  and  C_5
REMARK    4  A    between atoms: N_14  and  C_15
REMARK    5  A    between atoms: C_15  and  C_16
REMARK                            x       y       z     vdW  Elec       q    Type
REMARK                         _______ _______ _______ _____ _____    ______ ____
ROOT
ATOM      1  N   UNL     1       5.217   5.083  18.294  0.00  0.00    +0.000 NA
ATOM      2  C   UNL     1       5.262   6.582  18.149  0.00  0.00    +0.000 C 
ATOM      3  C   UNL     1       3.985   7.146  17.476  0.00  0.00    +0.000 C 
ATOM      4  N   UNL     1       2.700   6.718  18.086  0.00  0.00    +0.000 NA
ATOM      5  C   UNL     1       2.705   5.245  18.207  0.00  0.00    +0.000 C 
ATOM      6  C   UNL     1       3.933   4.673  18.936  0.00  0.00    +0.000 C 
ENDROOT
BRANCH   1   8
ATOM      7  O   UNL     1       4.858   3.100  16.771  0.00  0.00    +0.000 OA
ATOM      8  S   UNL     1       5.726   4.253  16.885  0.00  0.00    +0.000 S 
ATOM      9  O   UNL     1       7.162   4.092  16.976  0.00  0.00    +0.000 OA
BRANCH   8  10
ATOM     10  C   UNL     1       5.348   5.412  15.552  0.00  0.00    +0.000 C 
BRANCH  10  11
ATOM     11  C   UNL     1       5.928   4.874  14.268  0.00  0.00    +0.000 A 
ATOM     12  C   UNL     1       5.240   3.906  13.523  0.00  0.00    +0.000 A 
ATOM     13  C   UNL     1       5.799   3.380  12.358  0.00  0.00    +0.000 A 
ATOM     14  C   UNL     1       7.050   3.815  11.924  0.00  0.00    +0.000 A 
ATOM     15  C   UNL     1       7.741   4.781  12.650  0.00  0.00    +0.000 A 
ATOM     16  C   UNL     1       7.183   5.310  13.816  0.00  0.00    +0.000 A 
ENDBRANCH  10  11
ENDBRANCH   8  10
ENDBRANCH   1   8
BRANCH   4  17
ATOM     17  C   UNL     1       2.469   7.420  19.360  0.00  0.00    +0.000 C 
BRANCH  17  18
ATOM     18  C   UNL     1       1.470   8.556  19.276  0.00  0.00    +0.000 A 
ATOM     19  C   UNL     1       1.010   9.022  18.036  0.00  0.00    +0.000 A 
ATOM     20  C   UNL     1       0.088  10.067  17.968  0.00  0.00    +0.000 A 
ATOM     21  C   UNL     1      -0.393  10.656  19.138  0.00  0.00    +0.000 A 
ATOM     22  C   UNL     1       0.057  10.198  20.374  0.00  0.00    +0.000 A 
ATOM     23  I   UNL     1      -0.672  11.051  22.124  0.00  0.00    +0.000 I 
ATOM     24  C   UNL     1       0.990   9.160  20.449  0.00  0.00    +0.000 A 
ENDBRANCH  17  18
ENDBRANCH   4  17
TORSDOF 5
ENDMDL
