MODEL 1
REMARK VINA RESULT:      -6.9      0.000      0.000
REMARK  Name = 
REMARK  5 active torsions:
REMARK  status: ('A' for Active; 'I' for Inactive)
REMARK    1  A    between atoms: C_1  and  C_2
REMARK    2  A    between atoms: C_5  and  N_6
REMARK    3  A    between atoms: C_7  and  S_8
REMARK    4  A    between atoms: N_9  and  C_10
REMARK    5  A    between atoms: C_15  and  O_16
REMARK                            x       y       z     vdW  Elec       q    Type
REMARK                         _______ _______ _______ _____ _____    ______ ____
ROOT
ATOM      1  N   UNL     1       3.663   4.683  19.464  0.00  0.00    +0.000 N 
ATOM      2  C   UNL     1       2.718   5.634  19.761  0.00  0.00    +0.000 C 
ATOM      3  N   UNL     1       2.839   6.910  19.566  0.00  0.00    +0.000 NA
ATOM      4  H   UNL     1       3.416   3.761  19.803  0.00  0.00    +0.000 HD
ENDROOT
BRANCH   3   5
ATOM      5  C   UNL     1       1.911   7.903  19.932  0.00  0.00    +0.000 A 
ATOM      6  C   UNL     1       1.374   8.713  18.917  0.00  0.00    +0.000 A 
ATOM      7  C   UNL     1       0.525   9.805  19.179  0.00  0.00    +0.000 A 
ATOM      8  C   UNL     1       0.216  10.041  20.520  0.00  0.00    +0.000 A 
ATOM      9  N   UNL     1      -0.553  10.981  21.160  0.00  0.00    +0.000 N 
ATOM     10  C   UNL     1      -0.492  10.726  22.506  0.00  0.00    +0.000 A 
ATOM     11  N   UNL     1       0.286   9.710  22.774  0.00  0.00    +0.000 NA
ATOM     12  C   UNL     1       0.735   9.275  21.557  0.00  0.00    +0.000 A 
ATOM     13  C   UNL     1       1.621   8.231  21.264  0.00  0.00    +0.000 A 
ATOM     14  H   UNL     1      -1.060  11.729  20.716  0.00  0.00    +0.000 HD
BRANCH  10  15
ATOM     15  O   UNL     1      -1.125  11.413  23.440  0.00  0.00    +0.000 OA
ATOM     16  H   UNL     1      -1.469  12.228  23.055  0.00  0.00    +0.000 HD
ENDBRANCH  10  15
ENDBRANCH   3   5
BRANCH   1  21
ATOM     17  C   UNL     1       7.109   4.491  14.885  0.00  0.00    +0.000 C 
ATOM     18  C   UNL     1       6.238   4.518  16.104  0.00  0.00    +0.000 A 
ATOM     19  C   UNL     1       6.772   4.749  17.375  0.00  0.00    +0.000 A 
ATOM     20  C   UNL     1       5.942   4.792  18.503  0.00  0.00    +0.000 A 
ATOM     21  C   UNL     1       4.561   4.633  18.385  0.00  0.00    +0.000 A 
ATOM     22  C   UNL     1       4.040   4.353  17.110  0.00  0.00    +0.000 A 
ATOM     23  C   UNL     1       4.863   4.305  15.982  0.00  0.00    +0.000 A 
ENDBRANCH   1  21
BRANCH   2  24
ATOM     24  S   UNL     1       1.325   4.830  20.490  0.00  0.00    +0.000 S 
ATOM     25  H   UNL     1       1.459   5.403  21.694  0.00  0.00    +0.000 HD
ENDBRANCH   2  24
TORSDOF 4
ENDMDL
MODEL 2
REMARK VINA RESULT:      -6.9      3.210      4.349
REMARK  Name = 
REMARK  5 active torsions:
REMARK  status: ('A' for Active; 'I' for Inactive)
REMARK    1  A    between atoms: C_1  and  C_2
REMARK    2  A    between atoms: C_5  and  N_6
REMARK    3  A    between atoms: C_7  and  S_8
REMARK    4  A    between atoms: N_9  and  C_10
REMARK    5  A    between atoms: C_15  and  O_16
REMARK                            x       y       z     vdW  Elec       q    Type
REMARK                         _______ _______ _______ _____ _____    ______ ____
ROOT
ATOM      1  N   UNL     1       1.860   7.336  20.961  0.00  0.00    +0.000 N 
ATOM      2  C   UNL     1       1.227   8.527  20.702  0.00  0.00    +0.000 C 
ATOM      3  N   UNL     1       1.189   9.132  19.555  0.00  0.00    +0.000 NA
ATOM      4  H   UNL     1       1.867   7.098  21.945  0.00  0.00    +0.000 HD
ENDROOT
BRANCH   3   5
ATOM      5  C   UNL     1       0.609  10.388  19.292  0.00  0.00    +0.000 A 
ATOM      6  C   UNL     1      -0.658  10.415  18.683  0.00  0.00    +0.000 A 
ATOM      7  C   UNL     1      -1.283  11.609  18.274  0.00  0.00    +0.000 A 
ATOM      8  C   UNL     1      -0.584  12.791  18.526  0.00  0.00    +0.000 A 
ATOM      9  N   UNL     1      -0.852  14.116  18.282  0.00  0.00    +0.000 N 
ATOM     10  C   UNL     1       0.208  14.850  18.749  0.00  0.00    +0.000 A 
ATOM     11  N   UNL     1       1.148  14.087  19.244  0.00  0.00    +0.000 NA
ATOM     12  C   UNL     1       0.676  12.810  19.112  0.00  0.00    +0.000 A 
ATOM     13  C   UNL     1       1.292  11.600  19.455  0.00  0.00    +0.000 A 
ATOM     14  H   UNL     1      -1.676  14.477  17.831  0.00  0.00    +0.000 HD
BRANCH  10  15
ATOM     15  O   UNL     1       0.298  16.167  18.708  0.00  0.00    +0.000 OA
ATOM     16  H   UNL     1       0.986  16.418  18.079  0.00  0.00    +0.000 HD
ENDBRANCH  10  15
ENDBRANCH   3   5
BRANCH   1  21
ATOM     17  C   UNL     1       2.212   2.595  17.755  0.00  0.00    +0.000 C 
ATOM     18  C   UNL     1       2.162   3.843  18.582  0.00  0.00    +0.000 A 
ATOM     19  C   UNL     1       2.743   5.035  18.139  0.00  0.00    +0.000 A 
ATOM     20  C   UNL     1       2.670   6.199  18.916  0.00  0.00    +0.000 A 
ATOM     21  C   UNL     1       1.993   6.206  20.136  0.00  0.00    +0.000 A 
ATOM     22  C   UNL     1       1.454   4.992  20.595  0.00  0.00    +0.000 A 
ATOM     23  C   UNL     1       1.528   3.827  19.827  0.00  0.00    +0.000 A 
ENDBRANCH   1  21
BRANCH   2  24
ATOM     24  S   UNL     1       0.506   9.116  22.202  0.00  0.00    +0.000 S 
ATOM     25  H   UNL     1      -0.315   9.998  21.615  0.00  0.00    +0.000 HD
ENDBRANCH   2  24
TORSDOF 4
ENDMDL
MODEL 3
REMARK VINA RESULT:      -6.9      3.209      4.321
REMARK  Name = 
REMARK  5 active torsions:
REMARK  status: ('A' for Active; 'I' for Inactive)
REMARK    1  A    between atoms: C_1  and  C_2
REMARK    2  A    between atoms: C_5  and  N_6
REMARK    3  A    between atoms: C_7  and  S_8
REMARK    4  A    between atoms: N_9  and  C_10
REMARK    5  A    between atoms: C_15  and  O_16
REMARK                            x       y       z     vdW  Elec       q    Type
REMARK                         _______ _______ _______ _____ _____    ______ ____
ROOT
ATOM      1  N   UNL     1       1.939   7.337  21.029  0.00  0.00    +0.000 N 
ATOM      2  C   UNL     1       1.313   8.536  20.794  0.00  0.00    +0.000 C 
ATOM      3  N   UNL     1       1.207   9.125  19.643  0.00  0.00    +0.000 NA
ATOM      4  H   UNL     1       2.010   7.114  22.013  0.00  0.00    +0.000 HD
ENDROOT
BRANCH   3   5
ATOM      5  C   UNL     1       0.634  10.387  19.399  0.00  0.00    +0.000 A 
ATOM      6  C   UNL     1      -0.661  10.431  18.855  0.00  0.00    +0.000 A 
ATOM      7  C   UNL     1      -1.288  11.631  18.469  0.00  0.00    +0.000 A 
ATOM      8  C   UNL     1      -0.559  12.804  18.675  0.00  0.00    +0.000 A 
ATOM      9  N   UNL     1      -0.818  14.131  18.435  0.00  0.00    +0.000 N 
ATOM     10  C   UNL     1       0.276  14.851  18.842  0.00  0.00    +0.000 A 
ATOM     11  N   UNL     1       1.227  14.077  19.295  0.00  0.00    +0.000 NA
ATOM     12  C   UNL     1       0.729  12.807  19.197  0.00  0.00    +0.000 A 
ATOM     13  C   UNL     1       1.343  11.590  19.518  0.00  0.00    +0.000 A 
ATOM     14  H   UNL     1      -1.659  14.502  18.023  0.00  0.00    +0.000 HD
BRANCH  10  15
ATOM     15  O   UNL     1       0.384  16.167  18.785  0.00  0.00    +0.000 OA
ATOM     16  H   UNL     1       1.317  16.409  18.804  0.00  0.00    +0.000 HD
ENDBRANCH  10  15
ENDBRANCH   3   5
BRANCH   1  21
ATOM     17  C   UNL     1       2.357   2.794  17.554  0.00  0.00    +0.000 C 
ATOM     18  C   UNL     1       2.206   3.971  18.470  0.00  0.00    +0.000 A 
ATOM     19  C   UNL     1       1.522   3.865  19.685  0.00  0.00    +0.000 A 
ATOM     20  C   UNL     1       1.407   4.969  20.540  0.00  0.00    +0.000 A 
ATOM     21  C   UNL     1       1.994   6.192  20.215  0.00  0.00    +0.000 A 
ATOM     22  C   UNL     1       2.638   6.301  18.971  0.00  0.00    +0.000 A 
ATOM     23  C   UNL     1       2.752   5.205  18.112  0.00  0.00    +0.000 A 
ENDBRANCH   1  21
BRANCH   2  24
ATOM     24  S   UNL     1       0.708   9.162  22.330  0.00  0.00    +0.000 S 
ATOM     25  H   UNL     1       0.978   8.056  23.038  0.00  0.00    +0.000 HD
ENDBRANCH   2  24
TORSDOF 4
ENDMDL
MODEL 4
REMARK VINA RESULT:      -6.8      1.387      1.806
REMARK  Name = 
REMARK  5 active torsions:
REMARK  status: ('A' for Active; 'I' for Inactive)
REMARK    1  A    between atoms: C_1  and  C_2
REMARK    2  A    between atoms: C_5  and  N_6
REMARK    3  A    between atoms: C_7  and  S_8
REMARK    4  A    between atoms: N_9  and  C_10
REMARK    5  A    between atoms: C_15  and  O_16
REMARK                            x       y       z     vdW  Elec       q    Type
REMARK                         _______ _______ _______ _____ _____    ______ ____
ROOT
ATOM      1  N   UNL     1       4.237   4.328  17.410  0.00  0.00    +0.000 N 
ATOM      2  C   UNL     1       3.309   5.214  17.898  0.00  0.00    +0.000 C 
ATOM      3  N   UNL     1       3.484   6.490  18.051  0.00  0.00    +0.000 NA
ATOM      4  H   UNL     1       3.939   3.363  17.482  0.00  0.00    +0.000 HD
ENDROOT
BRANCH   3   5
ATOM      5  C   UNL     1       2.570   7.398  18.618  0.00  0.00    +0.000 A 
ATOM      6  C   UNL     1       2.126   8.470  17.825  0.00  0.00    +0.000 A 
ATOM      7  C   UNL     1       1.300   9.497  18.321  0.00  0.00    +0.000 A 
ATOM      8  C   UNL     1       0.916   9.389  19.659  0.00  0.00    +0.000 A 
ATOM      9  N   UNL     1       0.141  10.167  20.484  0.00  0.00    +0.000 N 
ATOM     10  C   UNL     1       0.109   9.567  21.717  0.00  0.00    +0.000 A 
ATOM     11  N   UNL     1       0.834   8.479  21.748  0.00  0.00    +0.000 NA
ATOM     12  C   UNL     1       1.343   8.355  20.484  0.00  0.00    +0.000 A 
ATOM     13  C   UNL     1       2.209   7.381  19.971  0.00  0.00    +0.000 A 
ATOM     14  H   UNL     1      -0.311  11.029  20.227  0.00  0.00    +0.000 HD
BRANCH  10  15
ATOM     15  O   UNL     1      -0.557  10.017  22.765  0.00  0.00    +0.000 OA
ATOM     16  H   UNL     1      -1.492  10.086  22.540  0.00  0.00    +0.000 HD
ENDBRANCH  10  15
ENDBRANCH   3   5
BRANCH   1  21
ATOM     17  C   UNL     1       7.954   5.073  13.107  0.00  0.00    +0.000 C 
ATOM     18  C   UNL     1       7.014   4.861  14.256  0.00  0.00    +0.000 A 
ATOM     19  C   UNL     1       7.401   5.131  15.572  0.00  0.00    +0.000 A 
ATOM     20  C   UNL     1       6.505   4.946  16.633  0.00  0.00    +0.000 A 
ATOM     21  C   UNL     1       5.198   4.517  16.402  0.00  0.00    +0.000 A 
ATOM     22  C   UNL     1       4.834   4.203  15.081  0.00  0.00    +0.000 A 
ATOM     23  C   UNL     1       5.725   4.380  14.020  0.00  0.00    +0.000 A 
ENDBRANCH   1  21
BRANCH   2  24
ATOM     24  S   UNL     1       1.846   4.318  18.319  0.00  0.00    +0.000 S 
ATOM     25  H   UNL     1       1.089   4.836  17.342  0.00  0.00    +0.000 HD
ENDBRANCH   2  24
TORSDOF 4
ENDMDL
MODEL 5
REMARK VINA RESULT:      -6.8      4.031      8.336
REMARK  Name = 
REMARK  5 active torsions:
REMARK  status: ('A' for Active; 'I' for Inactive)
REMARK    1  A    between atoms: C_1  and  C_2
REMARK    2  A    between atoms: C_5  and  N_6
REMARK    3  A    between atoms: C_7  and  S_8
REMARK    4  A    between atoms: N_9  and  C_10
REMARK    5  A    between atoms: C_15  and  O_16
REMARK                            x       y       z     vdW  Elec       q    Type
REMARK                         _______ _______ _______ _____ _____    ______ ____
ROOT
ATOM      1  N   UNL     1       1.842   9.051  20.241  0.00  0.00    +0.000 N 
ATOM      2  C   UNL     1       1.925   7.748  19.816  0.00  0.00    +0.000 C 
ATOM      3  N   UNL     1       1.612   6.701  20.514  0.00  0.00    +0.000 NA
ATOM      4  H   UNL     1       2.245   9.708  19.584  0.00  0.00    +0.000 HD
ENDROOT
BRANCH   3   5
ATOM      5  C   UNL     1       1.762   5.358  20.120  0.00  0.00    +0.000 A 
ATOM      6  C   UNL     1       0.672   4.490  20.303  0.00  0.00    +0.000 A 
ATOM      7  C   UNL     1       0.745   3.107  20.047  0.00  0.00    +0.000 A 
ATOM      8  C   UNL     1       1.968   2.629  19.574  0.00  0.00    +0.000 A 
ATOM      9  N   UNL     1       2.421   1.381  19.221  0.00  0.00    +0.000 N 
ATOM     10  C   UNL     1       3.727   1.508  18.822  0.00  0.00    +0.000 A 
ATOM     11  N   UNL     1       4.150   2.741  18.926  0.00  0.00    +0.000 NA
ATOM     12  C   UNL     1       3.076   3.448  19.391  0.00  0.00    +0.000 A 
ATOM     13  C   UNL     1       2.984   4.809  19.708  0.00  0.00    +0.000 A 
ATOM     14  H   UNL     1       1.888   0.529  19.261  0.00  0.00    +0.000 HD
BRANCH  10  15
ATOM     15  O   UNL     1       4.489   0.519  18.391  0.00  0.00    +0.000 OA
ATOM     16  H   UNL     1       4.043   0.068  17.665  0.00  0.00    +0.000 HD
ENDBRANCH  10  15
ENDBRANCH   3   5
BRANCH   1  21
ATOM     17  C   UNL     1      -2.159  11.636  23.434  0.00  0.00    +0.000 C 
ATOM     18  C   UNL     1      -1.087  10.958  22.635  0.00  0.00    +0.000 A 
ATOM     19  C   UNL     1      -0.364   9.880  23.154  0.00  0.00    +0.000 A 
ATOM     20  C   UNL     1       0.621   9.244  22.386  0.00  0.00    +0.000 A 
ATOM     21  C   UNL     1       0.886   9.650  21.078  0.00  0.00    +0.000 A 
ATOM     22  C   UNL     1       0.187  10.765  20.584  0.00  0.00    +0.000 A 
ATOM     23  C   UNL     1      -0.793  11.406  21.345  0.00  0.00    +0.000 A 
ENDBRANCH   1  21
BRANCH   2  24
ATOM     24  S   UNL     1       2.568   7.735  18.171  0.00  0.00    +0.000 S 
ATOM     25  H   UNL     1       3.471   8.704  18.376  0.00  0.00    +0.000 HD
ENDBRANCH   2  24
TORSDOF 4
ENDMDL
MODEL 6
REMARK VINA RESULT:      -6.8      4.062      5.553
REMARK  Name = 
REMARK  5 active torsions:
REMARK  status: ('A' for Active; 'I' for Inactive)
REMARK    1  A    between atoms: C_1  and  C_2
REMARK    2  A    between atoms: C_5  and  N_6
REMARK    3  A    between atoms: C_7  and  S_8
REMARK    4  A    between atoms: N_9  and  C_10
REMARK    5  A    between atoms: C_15  and  O_16
REMARK                            x       y       z     vdW  Elec       q    Type
REMARK                         _______ _______ _______ _____ _____    ______ ____
ROOT
ATOM      1  N   UNL     1       6.969   5.755  15.618  0.00  0.00    +0.000 N 
ATOM      2  C   UNL     1       6.178   5.571  16.725  0.00  0.00    +0.000 C 
ATOM      3  N   UNL     1       4.933   5.208  16.717  0.00  0.00    +0.000 NA
ATOM      4  H   UNL     1       7.874   6.151  15.839  0.00  0.00    +0.000 HD
ENDROOT
BRANCH   3   5
ATOM      5  C   UNL     1       4.090   5.088  17.837  0.00  0.00    +0.000 A 
ATOM      6  C   UNL     1       3.532   6.262  18.372  0.00  0.00    +0.000 A 
ATOM      7  C   UNL     1       2.765   6.275  19.553  0.00  0.00    +0.000 A 
ATOM      8  C   UNL     1       2.561   5.039  20.171  0.00  0.00    +0.000 A 
ATOM      9  N   UNL     1       1.891   4.650  21.306  0.00  0.00    +0.000 N 
ATOM     10  C   UNL     1       2.029   3.292  21.428  0.00  0.00    +0.000 A 
ATOM     11  N   UNL     1       2.765   2.789  20.471  0.00  0.00    +0.000 NA
ATOM     12  C   UNL     1       3.106   3.856  19.686  0.00  0.00    +0.000 A 
ATOM     13  C   UNL     1       3.909   3.889  18.540  0.00  0.00    +0.000 A 
ATOM     14  H   UNL     1       1.398   5.260  21.936  0.00  0.00    +0.000 HD
BRANCH  10  15
ATOM     15  O   UNL     1       1.500   2.557  22.390  0.00  0.00    +0.000 OA
ATOM     16  H   UNL     1       2.151   2.437  23.091  0.00  0.00    +0.000 HD
ENDBRANCH  10  15
ENDBRANCH   3   5
BRANCH   1  21
ATOM     17  C   UNL     1       6.790   2.690  10.774  0.00  0.00    +0.000 C 
ATOM     18  C   UNL     1       6.880   3.495  12.035  0.00  0.00    +0.000 A 
ATOM     19  C   UNL     1       7.708   4.618  12.125  0.00  0.00    +0.000 A 
ATOM     20  C   UNL     1       7.766   5.371  13.305  0.00  0.00    +0.000 A 
ATOM     21  C   UNL     1       6.980   5.038  14.409  0.00  0.00    +0.000 A 
ATOM     22  C   UNL     1       6.189   3.880  14.325  0.00  0.00    +0.000 A 
ATOM     23  C   UNL     1       6.130   3.122  13.153  0.00  0.00    +0.000 A 
ENDBRANCH   1  21
BRANCH   2  24
ATOM     24  S   UNL     1       7.131   5.951  18.163  0.00  0.00    +0.000 S 
ATOM     25  H   UNL     1       6.627   7.182  18.332  0.00  0.00    +0.000 HD
ENDBRANCH   2  24
TORSDOF 4
ENDMDL
MODEL 7
REMARK VINA RESULT:      -6.8      0.456      1.064
REMARK  Name = 
REMARK  5 active torsions:
REMARK  status: ('A' for Active; 'I' for Inactive)
REMARK    1  A    between atoms: C_1  and  C_2
REMARK    2  A    between atoms: C_5  and  N_6
REMARK    3  A    between atoms: C_7  and  S_8
REMARK    4  A    between atoms: N_9  and  C_10
REMARK    5  A    between atoms: C_15  and  O_16
REMARK                            x       y       z     vdW  Elec       q    Type
REMARK                         _______ _______ _______ _____ _____    ______ ____
ROOT
ATOM      1  N   UNL     1       3.796   4.883  19.187  0.00  0.00    +0.000 N 
ATOM      2  C   UNL     1       2.827   5.784  19.555  0.00  0.00    +0.000 C 
ATOM      3  N   UNL     1       2.827   7.052  19.283  0.00  0.00    +0.000 NA
ATOM      4  H   UNL     1       3.663   3.968  19.599  0.00  0.00    +0.000 HD
ENDROOT
BRANCH   3   5
ATOM      5  C   UNL     1       1.881   8.000  19.716  0.00  0.00    +0.000 A 
ATOM      6  C   UNL     1       1.348   8.885  18.763  0.00  0.00    +0.000 A 
ATOM      7  C   UNL     1       0.481   9.941  19.102  0.00  0.00    +0.000 A 
ATOM      8  C   UNL     1       0.148  10.060  20.453  0.00  0.00    +0.000 A 
ATOM      9  N   UNL     1      -0.643  10.934  21.157  0.00  0.00    +0.000 N 
ATOM     10  C   UNL     1      -0.599  10.567  22.477  0.00  0.00    +0.000 A 
ATOM     11  N   UNL     1       0.189   9.542  22.672  0.00  0.00    +0.000 NA
ATOM     12  C   UNL     1       0.662   9.216  21.431  0.00  0.00    +0.000 A 
ATOM     13  C   UNL     1       1.565   8.211  21.065  0.00  0.00    +0.000 A 
ATOM     14  H   UNL     1      -1.153  11.710  20.769  0.00  0.00    +0.000 HD
BRANCH  10  15
ATOM     15  O   UNL     1      -1.256  11.166  23.455  0.00  0.00    +0.000 OA
ATOM     16  H   UNL     1      -2.168  11.315  23.179  0.00  0.00    +0.000 HD
ENDBRANCH  10  15
ENDBRANCH   3   5
BRANCH   1  21
ATOM     17  C   UNL     1       7.092   4.815  14.494  0.00  0.00    +0.000 C 
ATOM     18  C   UNL     1       6.195   4.832  15.695  0.00  0.00    +0.000 A 
ATOM     19  C   UNL     1       5.057   4.022  15.765  0.00  0.00    +0.000 A 
ATOM     20  C   UNL     1       4.240   4.034  16.903  0.00  0.00    +0.000 A 
ATOM     21  C   UNL     1       4.554   4.832  18.004  0.00  0.00    +0.000 A 
ATOM     22  C   UNL     1       5.672   5.677  17.904  0.00  0.00    +0.000 A 
ATOM     23  C   UNL     1       6.488   5.673  16.770  0.00  0.00    +0.000 A 
ENDBRANCH   1  21
BRANCH   2  24
ATOM     24  S   UNL     1       1.599   4.932  20.496  0.00  0.00    +0.000 S 
ATOM     25  H   UNL     1       1.385   5.929  21.364  0.00  0.00    +0.000 HD
ENDBRANCH   2  24
TORSDOF 4
ENDMDL
MODEL 8
REMARK VINA RESULT:      -6.7      2.720      3.297
REMARK  Name = 
REMARK  5 active torsions:
REMARK  status: ('A' for Active; 'I' for Inactive)
REMARK    1  A    between atoms: C_1  and  C_2
REMARK    2  A    between atoms: C_5  and  N_6
REMARK    3  A    between atoms: C_7  and  S_8
REMARK    4  A    between atoms: N_9  and  C_10
REMARK    5  A    between atoms: C_15  and  O_16
REMARK                            x       y       z     vdW  Elec       q    Type
REMARK                         _______ _______ _______ _____ _____    ______ ____
ROOT
ATOM      1  N   UNL     1       3.324   6.804  19.074  0.00  0.00    +0.000 N 
ATOM      2  C   UNL     1       2.314   7.734  19.074  0.00  0.00    +0.000 C 
ATOM      3  N   UNL     1       2.090   8.612  18.146  0.00  0.00    +0.000 NA
ATOM      4  H   UNL     1       3.391   6.293  19.946  0.00  0.00    +0.000 HD
ENDROOT
BRANCH   3   5
ATOM      5  C   UNL     1       1.107   9.618  18.166  0.00  0.00    +0.000 A 
ATOM      6  C   UNL     1       1.447  10.863  18.722  0.00  0.00    +0.000 A 
ATOM      7  C   UNL     1       0.515  11.904  18.895  0.00  0.00    +0.000 A 
ATOM      8  C   UNL     1      -0.787  11.646  18.461  0.00  0.00    +0.000 A 
ATOM      9  N   UNL     1      -1.945  12.385  18.459  0.00  0.00    +0.000 N 
ATOM     10  C   UNL     1      -2.932  11.614  17.902  0.00  0.00    +0.000 A 
ATOM     11  N   UNL     1      -2.496  10.424  17.578  0.00  0.00    +0.000 NA
ATOM     12  C   UNL     1      -1.172  10.426  17.919  0.00  0.00    +0.000 A 
ATOM     13  C   UNL     1      -0.231   9.394  17.813  0.00  0.00    +0.000 A 
ATOM     14  H   UNL     1      -2.047  13.321  18.815  0.00  0.00    +0.000 HD
BRANCH  10  15
ATOM     15  O   UNL     1      -4.182  11.998  17.714  0.00  0.00    +0.000 OA
ATOM     16  H   UNL     1      -4.777  11.344  18.101  0.00  0.00    +0.000 HD
ENDBRANCH  10  15
ENDBRANCH   3   5
BRANCH   1  21
ATOM     17  C   UNL     1       5.743   4.115  14.624  0.00  0.00    +0.000 C 
ATOM     18  C   UNL     1       5.073   4.797  15.779  0.00  0.00    +0.000 A 
ATOM     19  C   UNL     1       4.207   4.105  16.630  0.00  0.00    +0.000 A 
ATOM     20  C   UNL     1       3.604   4.752  17.717  0.00  0.00    +0.000 A 
ATOM     21  C   UNL     1       3.873   6.092  17.994  0.00  0.00    +0.000 A 
ATOM     22  C   UNL     1       4.707   6.791  17.104  0.00  0.00    +0.000 A 
ATOM     23  C   UNL     1       5.308   6.153  16.017  0.00  0.00    +0.000 A 
ENDBRANCH   1  21
BRANCH   2  24
ATOM     24  S   UNL     1       1.392   7.560  20.570  0.00  0.00    +0.000 S 
ATOM     25  H   UNL     1       2.245   8.258  21.332  0.00  0.00    +0.000 HD
ENDBRANCH   2  24
TORSDOF 4
ENDMDL
MODEL 9
REMARK VINA RESULT:      -6.7      2.878      4.386
REMARK  Name = 
REMARK  5 active torsions:
REMARK  status: ('A' for Active; 'I' for Inactive)
REMARK    1  A    between atoms: C_1  and  C_2
REMARK    2  A    between atoms: C_5  and  N_6
REMARK    3  A    between atoms: C_7  and  S_8
REMARK    4  A    between atoms: N_9  and  C_10
REMARK    5  A    between atoms: C_15  and  O_16
REMARK                            x       y       z     vdW  Elec       q    Type
REMARK                         _______ _______ _______ _____ _____    ______ ____
ROOT
ATOM      1  N   UNL     1       7.000   5.846  15.454  0.00  0.00    +0.000 N 
ATOM      2  C   UNL     1       6.234   6.058  16.573  0.00  0.00    +0.000 C 
ATOM      3  N   UNL     1       4.937   6.066  16.615  0.00  0.00    +0.000 NA
ATOM      4  H   UNL     1       7.988   5.996  15.616  0.00  0.00    +0.000 HD
ENDROOT
BRANCH   3   5
ATOM      5  C   UNL     1       4.139   6.355  17.738  0.00  0.00    +0.000 A 
ATOM      6  C   UNL     1       4.015   5.369  18.732  0.00  0.00    +0.000 A 
ATOM      7  C   UNL     1       3.159   5.505  19.841  0.00  0.00    +0.000 A 
ATOM      8  C   UNL     1       2.438   6.698  19.923  0.00  0.00    +0.000 A 
ATOM      9  N   UNL     1       1.527   7.190  20.826  0.00  0.00    +0.000 N 
ATOM     10  C   UNL     1       1.141   8.433  20.394  0.00  0.00    +0.000 A 
ATOM     11  N   UNL     1       1.715   8.757  19.265  0.00  0.00    +0.000 NA
ATOM     12  C   UNL     1       2.519   7.694  18.957  0.00  0.00    +0.000 A 
ATOM     13  C   UNL     1       3.339   7.501  17.839  0.00  0.00    +0.000 A 
ATOM     14  H   UNL     1       1.198   6.714  21.649  0.00  0.00    +0.000 HD
BRANCH  10  15
ATOM     15  O   UNL     1       0.287   9.223  21.020  0.00  0.00    +0.000 OA
ATOM     16  H   UNL     1      -0.483   9.368  20.456  0.00  0.00    +0.000 HD
ENDBRANCH  10  15
ENDBRANCH   3   5
BRANCH   1  21
ATOM     17  C   UNL     1       5.780   2.278  11.132  0.00  0.00    +0.000 C 
ATOM     18  C   UNL     1       6.141   3.203  12.255  0.00  0.00    +0.000 A 
ATOM     19  C   UNL     1       7.220   4.086  12.153  0.00  0.00    +0.000 A 
ATOM     20  C   UNL     1       7.532   4.959  13.204  0.00  0.00    +0.000 A 
ATOM     21  C   UNL     1       6.761   4.987  14.366  0.00  0.00    +0.000 A 
ATOM     22  C   UNL     1       5.710   4.062  14.479  0.00  0.00    +0.000 A 
ATOM     23  C   UNL     1       5.396   3.187  13.436  0.00  0.00    +0.000 A 
ENDBRANCH   1  21
BRANCH   2  24
ATOM     24  S   UNL     1       7.311   6.356  17.940  0.00  0.00    +0.000 S 
ATOM     25  H   UNL     1       8.350   6.768  17.201  0.00  0.00    +0.000 HD
ENDBRANCH   2  24
TORSDOF 4
ENDMDL
