MODEL 1
REMARK VINA RESULT:      -7.6      0.000      0.000
REMARK  Name = 
REMARK  6 active torsions:
REMARK  status: ('A' for Active; 'I' for Inactive)
REMARK    1  A    between atoms: C_1  and  C_2
REMARK    2  A    between atoms: C_2  and  C_3
REMARK    3  A    between atoms: C_2  and  C_4
REMARK    4  A    between atoms: C_10  and  C_11
REMARK    5  A    between atoms: C_11  and  C_12
REMARK    6  A    between atoms: C_12  and  N_13
REMARK                            x       y       z     vdW  Elec       q    Type
REMARK                         _______ _______ _______ _____ _____    ______ ____
ROOT
ATOM      1  C   UNL     1       6.459   3.644  12.272  0.00  0.00    +0.000 C 
ATOM      2  O   UNL     1       7.420   4.344  11.980  0.00  0.00    +0.000 OA
ATOM      3  N   UNL     1       5.966   3.450  13.550  0.00  0.00    +0.000 N 
ATOM      4  C   UNL     1       6.461   4.182  14.597  0.00  0.00    +0.000 A 
ATOM      5  N   UNL     1       7.251   5.226  14.583  0.00  0.00    +0.000 NA
ATOM      6  N   UNL     1       7.534   5.680  15.854  0.00  0.00    +0.000 NA
ATOM      7  C   UNL     1       6.956   4.942  16.778  0.00  0.00    +0.000 A 
ATOM      8  S   UNL     1       5.971   3.676  16.154  0.00  0.00    +0.000 S 
ATOM      9  H   UNL     1       5.301   2.720  13.755  0.00  0.00    +0.000 HD
ENDROOT
BRANCH   1  11
ATOM     10  C   UNL     1       5.975   1.368  11.322  0.00  0.00    +0.000 C 
ATOM     11  C   UNL     1       5.689   2.864  11.204  0.00  0.00    +0.000 C 
ATOM     12  C   UNL     1       4.187   3.120  11.344  0.00  0.00    +0.000 C 
ENDBRANCH   1  11
BRANCH   7  13
ATOM     13  C   UNL     1       7.168   5.146  18.243  0.00  0.00    +0.000 C 
BRANCH  13  14
ATOM     14  C   UNL     1       5.908   5.686  18.934  0.00  0.00    +0.000 C 
BRANCH  14  15
ATOM     15  N   UNL     1       4.672   4.962  18.553  0.00  0.00    +0.000 NA
ATOM     16  C   UNL     1       4.326   3.922  19.539  0.00  0.00    +0.000 C 
ATOM     17  C   UNL     1       3.073   3.152  19.127  0.00  0.00    +0.000 C 
ATOM     18  C   UNL     1       1.891   4.087  18.922  0.00  0.00    +0.000 C 
ATOM     19  C   UNL     1       2.267   5.213  17.967  0.00  0.00    +0.000 C 
ATOM     20  C   UNL     1       3.554   5.915  18.407  0.00  0.00    +0.000 C 
ENDBRANCH  14  15
ENDBRANCH  13  14
ENDBRANCH   7  13
TORSDOF 4
ENDMDL
MODEL 2
REMARK VINA RESULT:      -7.5      3.936      6.388
REMARK  Name = 
REMARK  6 active torsions:
REMARK  status: ('A' for Active; 'I' for Inactive)
REMARK    1  A    between atoms: C_1  and  C_2
REMARK    2  A    between atoms: C_2  and  C_3
REMARK    3  A    between atoms: C_2  and  C_4
REMARK    4  A    between atoms: C_10  and  C_11
REMARK    5  A    between atoms: C_11  and  C_12
REMARK    6  A    between atoms: C_12  and  N_13
REMARK                            x       y       z     vdW  Elec       q    Type
REMARK                         _______ _______ _______ _____ _____    ______ ____
ROOT
ATOM      1  C   UNL     1       8.733   9.715  18.440  0.00  0.00    +0.000 C 
ATOM      2  O   UNL     1       8.001  10.308  17.658  0.00  0.00    +0.000 OA
ATOM      3  N   UNL     1       8.646   8.371  18.758  0.00  0.00    +0.000 N 
ATOM      4  C   UNL     1       7.784   7.555  18.072  0.00  0.00    +0.000 A 
ATOM      5  N   UNL     1       7.104   7.794  16.979  0.00  0.00    +0.000 NA
ATOM      6  N   UNL     1       6.336   6.715  16.598  0.00  0.00    +0.000 NA
ATOM      7  C   UNL     1       6.455   5.708  17.438  0.00  0.00    +0.000 A 
ATOM      8  S   UNL     1       7.569   5.989  18.719  0.00  0.00    +0.000 S 
ATOM      9  H   UNL     1       9.142   7.980  19.544  0.00  0.00    +0.000 HD
ENDROOT
BRANCH   1  11
ATOM     10  C   UNL     1      10.486  11.510  18.304  0.00  0.00    +0.000 C 
ATOM     11  C   UNL     1       9.850  10.441  19.191  0.00  0.00    +0.000 C 
ATOM     12  C   UNL     1       9.298  11.083  20.465  0.00  0.00    +0.000 C 
ENDBRANCH   1  11
BRANCH   7  13
ATOM     13  C   UNL     1       5.662   4.447  17.326  0.00  0.00    +0.000 C 
BRANCH  13  14
ATOM     14  C   UNL     1       5.089   4.009  18.682  0.00  0.00    +0.000 C 
BRANCH  14  15
ATOM     15  N   UNL     1       3.608   3.996  18.718  0.00  0.00    +0.000 NA
ATOM     16  C   UNL     1       3.070   2.644  18.480  0.00  0.00    +0.000 C 
ATOM     17  C   UNL     1       1.543   2.639  18.481  0.00  0.00    +0.000 C 
ATOM     18  C   UNL     1       0.988   3.196  19.783  0.00  0.00    +0.000 C 
ATOM     19  C   UNL     1       1.602   4.558  20.079  0.00  0.00    +0.000 C 
ATOM     20  C   UNL     1       3.131   4.510  20.017  0.00  0.00    +0.000 C 
ENDBRANCH  14  15
ENDBRANCH  13  14
ENDBRANCH   7  13
TORSDOF 4
ENDMDL
MODEL 3
REMARK VINA RESULT:      -7.4      0.801      1.379
REMARK  Name = 
REMARK  6 active torsions:
REMARK  status: ('A' for Active; 'I' for Inactive)
REMARK    1  A    between atoms: C_1  and  C_2
REMARK    2  A    between atoms: C_2  and  C_3
REMARK    3  A    between atoms: C_2  and  C_4
REMARK    4  A    between atoms: C_10  and  C_11
REMARK    5  A    between atoms: C_11  and  C_12
REMARK    6  A    between atoms: C_12  and  N_13
REMARK                            x       y       z     vdW  Elec       q    Type
REMARK                         _______ _______ _______ _____ _____    ______ ____
ROOT
ATOM      1  C   UNL     1       6.405   3.589  12.255  0.00  0.00    +0.000 C 
ATOM      2  O   UNL     1       7.445   4.190  12.020  0.00  0.00    +0.000 OA
ATOM      3  N   UNL     1       5.751   3.564  13.474  0.00  0.00    +0.000 N 
ATOM      4  C   UNL     1       6.175   4.368  14.500  0.00  0.00    +0.000 A 
ATOM      5  N   UNL     1       7.040   5.351  14.484  0.00  0.00    +0.000 NA
ATOM      6  N   UNL     1       7.206   5.917  15.730  0.00  0.00    +0.000 NA
ATOM      7  C   UNL     1       6.467   5.320  16.642  0.00  0.00    +0.000 A 
ATOM      8  S   UNL     1       5.468   4.062  16.025  0.00  0.00    +0.000 S 
ATOM      9  H   UNL     1       5.012   2.905  13.665  0.00  0.00    +0.000 HD
ENDROOT
BRANCH   1  11
ATOM     10  C   UNL     1       6.033   1.272  11.358  0.00  0.00    +0.000 C 
ATOM     11  C   UNL     1       5.708   2.753  11.180  0.00  0.00    +0.000 C 
ATOM     12  C   UNL     1       4.194   2.966  11.246  0.00  0.00    +0.000 C 
ENDBRANCH   1  11
BRANCH   7  13
ATOM     13  C   UNL     1       6.521   5.663  18.095  0.00  0.00    +0.000 C 
BRANCH  13  14
ATOM     14  C   UNL     1       5.969   4.528  18.971  0.00  0.00    +0.000 C 
BRANCH  14  15
ATOM     15  N   UNL     1       4.687   4.866  19.633  0.00  0.00    +0.000 NA
ATOM     16  C   UNL     1       3.947   5.901  18.888  0.00  0.00    +0.000 C 
ATOM     17  C   UNL     1       2.643   6.275  19.591  0.00  0.00    +0.000 C 
ATOM     18  C   UNL     1       1.759   5.056  19.803  0.00  0.00    +0.000 C 
ATOM     19  C   UNL     1       2.542   3.950  20.499  0.00  0.00    +0.000 C 
ATOM     20  C   UNL     1       3.859   3.653  19.775  0.00  0.00    +0.000 C 
ENDBRANCH  14  15
ENDBRANCH  13  14
ENDBRANCH   7  13
TORSDOF 4
ENDMDL
MODEL 4
REMARK VINA RESULT:      -7.3      3.905      6.463
REMARK  Name = 
REMARK  6 active torsions:
REMARK  status: ('A' for Active; 'I' for Inactive)
REMARK    1  A    between atoms: C_1  and  C_2
REMARK    2  A    between atoms: C_2  and  C_3
REMARK    3  A    between atoms: C_2  and  C_4
REMARK    4  A    between atoms: C_10  and  C_11
REMARK    5  A    between atoms: C_11  and  C_12
REMARK    6  A    between atoms: C_12  and  N_13
REMARK                            x       y       z     vdW  Elec       q    Type
REMARK                         _______ _______ _______ _____ _____    ______ ____
ROOT
ATOM      1  C   UNL     1       8.746   9.675  18.468  0.00  0.00    +0.000 C 
ATOM      2  O   UNL     1       7.988  10.263  17.709  0.00  0.00    +0.000 OA
ATOM      3  N   UNL     1       8.683   8.329  18.782  0.00  0.00    +0.000 N 
ATOM      4  C   UNL     1       7.813   7.507  18.116  0.00  0.00    +0.000 A 
ATOM      5  N   UNL     1       7.102   7.742  17.042  0.00  0.00    +0.000 NA
ATOM      6  N   UNL     1       6.335   6.656  16.678  0.00  0.00    +0.000 NA
ATOM      7  C   UNL     1       6.489   5.647  17.510  0.00  0.00    +0.000 A 
ATOM      8  S   UNL     1       7.633   5.935  18.762  0.00  0.00    +0.000 S 
ATOM      9  H   UNL     1       9.205   7.941  19.553  0.00  0.00    +0.000 HD
ENDROOT
BRANCH   1  11
ATOM     10  C   UNL     1      10.504  11.461  18.278  0.00  0.00    +0.000 C 
ATOM     11  C   UNL     1       9.875  10.411  19.192  0.00  0.00    +0.000 C 
ATOM     12  C   UNL     1       9.341  11.079  20.461  0.00  0.00    +0.000 C 
ENDBRANCH   1  11
BRANCH   7  13
ATOM     13  C   UNL     1       5.707   4.377  17.413  0.00  0.00    +0.000 C 
BRANCH  13  14
ATOM     14  C   UNL     1       4.193   4.634  17.452  0.00  0.00    +0.000 C 
BRANCH  14  15
ATOM     15  N   UNL     1       3.614   4.531  18.812  0.00  0.00    +0.000 NA
ATOM     16  C   UNL     1       2.502   5.480  19.003  0.00  0.00    +0.000 C 
ATOM     17  C   UNL     1       1.930   5.398  20.417  0.00  0.00    +0.000 C 
ATOM     18  C   UNL     1       1.470   3.987  20.747  0.00  0.00    +0.000 C 
ATOM     19  C   UNL     1       2.588   2.989  20.474  0.00  0.00    +0.000 C 
ATOM     20  C   UNL     1       3.151   3.151  19.059  0.00  0.00    +0.000 C 
ENDBRANCH  14  15
ENDBRANCH  13  14
ENDBRANCH   7  13
TORSDOF 4
ENDMDL
MODEL 5
REMARK VINA RESULT:      -7.3      1.381      1.686
REMARK  Name = 
REMARK  6 active torsions:
REMARK  status: ('A' for Active; 'I' for Inactive)
REMARK    1  A    between atoms: C_1  and  C_2
REMARK    2  A    between atoms: C_2  and  C_3
REMARK    3  A    between atoms: C_2  and  C_4
REMARK    4  A    between atoms: C_10  and  C_11
REMARK    5  A    between atoms: C_11  and  C_12
REMARK    6  A    between atoms: C_12  and  N_13
REMARK                            x       y       z     vdW  Elec       q    Type
REMARK                         _______ _______ _______ _____ _____    ______ ____
ROOT
ATOM      1  C   UNL     1       6.714   4.271  13.060  0.00  0.00    +0.000 C 
ATOM      2  O   UNL     1       7.668   5.035  13.132  0.00  0.00    +0.000 OA
ATOM      3  N   UNL     1       5.867   3.944  14.105  0.00  0.00    +0.000 N 
ATOM      4  C   UNL     1       5.966   4.602  15.303  0.00  0.00    +0.000 A 
ATOM      5  N   UNL     1       6.648   5.677  15.609  0.00  0.00    +0.000 NA
ATOM      6  N   UNL     1       6.496   6.030  16.933  0.00  0.00    +0.000 NA
ATOM      7  C   UNL     1       5.715   5.189  17.577  0.00  0.00    +0.000 A 
ATOM      8  S   UNL     1       5.058   3.941  16.591  0.00  0.00    +0.000 S 
ATOM      9  H   UNL     1       5.223   3.171  14.042  0.00  0.00    +0.000 HD
ENDROOT
BRANCH   1  11
ATOM     10  C   UNL     1       7.290   2.361  11.533  0.00  0.00    +0.000 C 
ATOM     11  C   UNL     1       6.364   3.555  11.754  0.00  0.00    +0.000 C 
ATOM     12  C   UNL     1       4.908   3.086  11.783  0.00  0.00    +0.000 C 
ENDBRANCH   1  11
BRANCH   7  13
ATOM     13  C   UNL     1       5.453   5.273  19.046  0.00  0.00    +0.000 C 
BRANCH  13  14
ATOM     14  C   UNL     1       3.987   5.616  19.347  0.00  0.00    +0.000 C 
BRANCH  14  15
ATOM     15  N   UNL     1       3.138   4.424  19.577  0.00  0.00    +0.000 NA
ATOM     16  C   UNL     1       2.543   4.432  20.926  0.00  0.00    +0.000 C 
ATOM     17  C   UNL     1       1.698   3.184  21.175  0.00  0.00    +0.000 C 
ATOM     18  C   UNL     1       0.607   3.036  20.127  0.00  0.00    +0.000 C 
ATOM     19  C   UNL     1       1.204   3.110  18.727  0.00  0.00    +0.000 C 
ATOM     20  C   UNL     1       2.076   4.356  18.555  0.00  0.00    +0.000 C 
ENDBRANCH  14  15
ENDBRANCH  13  14
ENDBRANCH   7  13
TORSDOF 4
ENDMDL
MODEL 6
REMARK VINA RESULT:      -7.3      1.179      1.322
REMARK  Name = 
REMARK  6 active torsions:
REMARK  status: ('A' for Active; 'I' for Inactive)
REMARK    1  A    between atoms: C_1  and  C_2
REMARK    2  A    between atoms: C_2  and  C_3
REMARK    3  A    between atoms: C_2  and  C_4
REMARK    4  A    between atoms: C_10  and  C_11
REMARK    5  A    between atoms: C_11  and  C_12
REMARK    6  A    between atoms: C_12  and  N_13
REMARK                            x       y       z     vdW  Elec       q    Type
REMARK                         _______ _______ _______ _____ _____    ______ ____
ROOT
ATOM      1  C   UNL     1       6.356   3.924  12.579  0.00  0.00    +0.000 C 
ATOM      2  O   UNL     1       7.373   4.605  12.522  0.00  0.00    +0.000 OA
ATOM      3  N   UNL     1       5.555   3.771  13.697  0.00  0.00    +0.000 N 
ATOM      4  C   UNL     1       5.786   4.525  14.818  0.00  0.00    +0.000 A 
ATOM      5  N   UNL     1       6.573   5.559  14.978  0.00  0.00    +0.000 NA
ATOM      6  N   UNL     1       6.536   6.044  16.268  0.00  0.00    +0.000 NA
ATOM      7  C   UNL     1       5.732   5.338  17.035  0.00  0.00    +0.000 A 
ATOM      8  S   UNL     1       4.913   4.067  16.214  0.00  0.00    +0.000 S 
ATOM      9  H   UNL     1       4.848   3.054  13.746  0.00  0.00    +0.000 HD
ENDROOT
BRANCH   1  11
ATOM     10  C   UNL     1       6.367   1.684  11.441  0.00  0.00    +0.000 C 
ATOM     11  C   UNL     1       5.865   3.125  11.371  0.00  0.00    +0.000 C 
ATOM     12  C   UNL     1       4.336   3.141  11.314  0.00  0.00    +0.000 C 
ENDBRANCH   1  11
BRANCH   7  13
ATOM     13  C   UNL     1       5.575   5.579  18.501  0.00  0.00    +0.000 C 
BRANCH  13  14
ATOM     14  C   UNL     1       5.180   4.299  19.252  0.00  0.00    +0.000 C 
BRANCH  14  15
ATOM     15  N   UNL     1       3.715   4.094  19.336  0.00  0.00    +0.000 NA
ATOM     16  C   UNL     1       3.382   2.754  19.852  0.00  0.00    +0.000 C 
ATOM     17  C   UNL     1       1.871   2.531  19.903  0.00  0.00    +0.000 C 
ATOM     18  C   UNL     1       1.182   3.596  20.742  0.00  0.00    +0.000 C 
ATOM     19  C   UNL     1       1.587   4.986  20.267  0.00  0.00    +0.000 C 
ATOM     20  C   UNL     1       3.109   5.133  20.192  0.00  0.00    +0.000 C 
ENDBRANCH  14  15
ENDBRANCH  13  14
ENDBRANCH   7  13
TORSDOF 4
ENDMDL
MODEL 7
REMARK VINA RESULT:      -7.1      1.431      2.057
REMARK  Name = 
REMARK  6 active torsions:
REMARK  status: ('A' for Active; 'I' for Inactive)
REMARK    1  A    between atoms: C_1  and  C_2
REMARK    2  A    between atoms: C_2  and  C_3
REMARK    3  A    between atoms: C_2  and  C_4
REMARK    4  A    between atoms: C_10  and  C_11
REMARK    5  A    between atoms: C_11  and  C_12
REMARK    6  A    between atoms: C_12  and  N_13
REMARK                            x       y       z     vdW  Elec       q    Type
REMARK                         _______ _______ _______ _____ _____    ______ ____
ROOT
ATOM      1  C   UNL     1       6.703   4.341  12.945  0.00  0.00    +0.000 C 
ATOM      2  O   UNL     1       7.610   5.159  13.024  0.00  0.00    +0.000 OA
ATOM      3  N   UNL     1       5.874   3.960  13.985  0.00  0.00    +0.000 N 
ATOM      4  C   UNL     1       5.932   4.615  15.187  0.00  0.00    +0.000 A 
ATOM      5  N   UNL     1       6.549   5.726  15.501  0.00  0.00    +0.000 NA
ATOM      6  N   UNL     1       6.373   6.063  16.826  0.00  0.00    +0.000 NA
ATOM      7  C   UNL     1       5.641   5.174  17.464  0.00  0.00    +0.000 A 
ATOM      8  S   UNL     1       5.061   3.895  16.469  0.00  0.00    +0.000 S 
ATOM      9  H   UNL     1       5.277   3.150  13.917  0.00  0.00    +0.000 HD
ENDROOT
BRANCH   1  11
ATOM     10  C   UNL     1       7.340   2.424  11.451  0.00  0.00    +0.000 C 
ATOM     11  C   UNL     1       6.399   3.613  11.634  0.00  0.00    +0.000 C 
ATOM     12  C   UNL     1       4.946   3.134  11.622  0.00  0.00    +0.000 C 
ENDBRANCH   1  11
BRANCH   7  13
ATOM     13  C   UNL     1       5.371   5.234  18.932  0.00  0.00    +0.000 C 
BRANCH  13  14
ATOM     14  C   UNL     1       4.906   3.879  19.484  0.00  0.00    +0.000 C 
BRANCH  14  15
ATOM     15  N   UNL     1       3.602   3.944  20.183  0.00  0.00    +0.000 NA
ATOM     16  C   UNL     1       2.508   4.300  19.261  0.00  0.00    +0.000 C 
ATOM     17  C   UNL     1       1.169   4.403  19.990  0.00  0.00    +0.000 C 
ATOM     18  C   UNL     1       0.835   3.110  20.718  0.00  0.00    +0.000 C 
ATOM     19  C   UNL     1       1.995   2.691  21.612  0.00  0.00    +0.000 C 
ATOM     20  C   UNL     1       3.314   2.652  20.836  0.00  0.00    +0.000 C 
ENDBRANCH  14  15
ENDBRANCH  13  14
ENDBRANCH   7  13
TORSDOF 4
ENDMDL
MODEL 8
REMARK VINA RESULT:      -6.8      1.276      1.910
REMARK  Name = 
REMARK  6 active torsions:
REMARK  status: ('A' for Active; 'I' for Inactive)
REMARK    1  A    between atoms: C_1  and  C_2
REMARK    2  A    between atoms: C_2  and  C_3
REMARK    3  A    between atoms: C_2  and  C_4
REMARK    4  A    between atoms: C_10  and  C_11
REMARK    5  A    between atoms: C_11  and  C_12
REMARK    6  A    between atoms: C_12  and  N_13
REMARK                            x       y       z     vdW  Elec       q    Type
REMARK                         _______ _______ _______ _____ _____    ______ ____
ROOT
ATOM      1  C   UNL     1       6.301   3.465  12.792  0.00  0.00    +0.000 C 
ATOM      2  O   UNL     1       7.098   4.345  12.491  0.00  0.00    +0.000 OA
ATOM      3  N   UNL     1       5.634   3.366  14.000  0.00  0.00    +0.000 N 
ATOM      4  C   UNL     1       5.722   4.378  14.920  0.00  0.00    +0.000 A 
ATOM      5  N   UNL     1       6.216   5.583  14.787  0.00  0.00    +0.000 NA
ATOM      6  N   UNL     1       6.126   6.313  15.954  0.00  0.00    +0.000 NA
ATOM      7  C   UNL     1       5.582   5.614  16.928  0.00  0.00    +0.000 A 
ATOM      8  S   UNL     1       5.080   4.034  16.466  0.00  0.00    +0.000 S 
ATOM      9  H   UNL     1       5.144   2.526  14.266  0.00  0.00    +0.000 HD
ENDROOT
BRANCH   1  11
ATOM     10  C   UNL     1       4.754   2.686  10.972  0.00  0.00    +0.000 C 
ATOM     11  C   UNL     1       5.970   2.328  11.824  0.00  0.00    +0.000 C 
ATOM     12  C   UNL     1       7.170   2.036  10.922  0.00  0.00    +0.000 C 
ENDBRANCH   1  11
BRANCH   7  13
ATOM     13  C   UNL     1       5.450   6.121  18.327  0.00  0.00    +0.000 C 
BRANCH  13  14
ATOM     14  C   UNL     1       5.402   4.975  19.348  0.00  0.00    +0.000 C 
BRANCH  14  15
ATOM     15  N   UNL     1       4.134   4.920  20.112  0.00  0.00    +0.000 NA
ATOM     16  C   UNL     1       3.129   5.850  19.566  0.00  0.00    +0.000 C 
ATOM     17  C   UNL     1       1.835   5.818  20.377  0.00  0.00    +0.000 C 
ATOM     18  C   UNL     1       1.259   4.413  20.445  0.00  0.00    +0.000 C 
ATOM     19  C   UNL     1       2.317   3.431  20.931  0.00  0.00    +0.000 C 
ATOM     20  C   UNL     1       3.605   3.542  20.111  0.00  0.00    +0.000 C 
ENDBRANCH  14  15
ENDBRANCH  13  14
ENDBRANCH   7  13
TORSDOF 4
ENDMDL
MODEL 9
REMARK VINA RESULT:      -6.8      1.617      2.211
REMARK  Name = 
REMARK  6 active torsions:
REMARK  status: ('A' for Active; 'I' for Inactive)
REMARK    1  A    between atoms: C_1  and  C_2
REMARK    2  A    between atoms: C_2  and  C_3
REMARK    3  A    between atoms: C_2  and  C_4
REMARK    4  A    between atoms: C_10  and  C_11
REMARK    5  A    between atoms: C_11  and  C_12
REMARK    6  A    between atoms: C_12  and  N_13
REMARK                            x       y       z     vdW  Elec       q    Type
REMARK                         _______ _______ _______ _____ _____    ______ ____
ROOT
ATOM      1  C   UNL     1       6.293   3.780  13.140  0.00  0.00    +0.000 C 
ATOM      2  O   UNL     1       7.104   4.684  12.986  0.00  0.00    +0.000 OA
ATOM      3  N   UNL     1       5.444   3.638  14.223  0.00  0.00    +0.000 N 
ATOM      4  C   UNL     1       5.356   4.632  15.163  0.00  0.00    +0.000 A 
ATOM      5  N   UNL     1       5.834   5.850  15.134  0.00  0.00    +0.000 NA
ATOM      6  N   UNL     1       5.539   6.552  16.284  0.00  0.00    +0.000 NA
ATOM      7  C   UNL     1       4.864   5.820  17.145  0.00  0.00    +0.000 A 
ATOM      8  S   UNL     1       4.485   4.239  16.580  0.00  0.00    +0.000 S 
ATOM      9  H   UNL     1       4.939   2.782  14.392  0.00  0.00    +0.000 HD
ENDROOT
BRANCH   1  11
ATOM     10  C   UNL     1       4.862   2.825  11.308  0.00  0.00    +0.000 C 
ATOM     11  C   UNL     1       6.150   2.656  12.112  0.00  0.00    +0.000 C 
ATOM     12  C   UNL     1       7.355   2.649  11.168  0.00  0.00    +0.000 C 
ENDBRANCH   1  11
BRANCH   7  13
ATOM     13  C   UNL     1       4.497   6.293  18.514  0.00  0.00    +0.000 C 
BRANCH  13  14
ATOM     14  C   UNL     1       3.004   6.088  18.808  0.00  0.00    +0.000 C 
BRANCH  14  15
ATOM     15  N   UNL     1       2.706   4.793  19.463  0.00  0.00    +0.000 NA
ATOM     16  C   UNL     1       2.430   4.962  20.901  0.00  0.00    +0.000 C 
ATOM     17  C   UNL     1       2.159   3.622  21.583  0.00  0.00    +0.000 C 
ATOM     18  C   UNL     1       1.008   2.885  20.917  0.00  0.00    +0.000 C 
ATOM     19  C   UNL     1       1.246   2.779  19.416  0.00  0.00    +0.000 C 
ATOM     20  C   UNL     1       1.558   4.144  18.799  0.00  0.00    +0.000 C 
ENDBRANCH  14  15
ENDBRANCH  13  14
ENDBRANCH   7  13
TORSDOF 4
ENDMDL
