MODEL 1
REMARK VINA RESULT:      -7.8      0.000      0.000
REMARK  Name = 
REMARK  6 active torsions:
REMARK  status: ('A' for Active; 'I' for Inactive)
REMARK    1  A    between atoms: N_3  and  N_4
REMARK    2  A    between atoms: C_5  and  C_6
REMARK    3  A    between atoms: C_9  and  N_10
REMARK    4  A    between atoms: N_15  and  N_16
REMARK    5  A    between atoms: C_17  and  C_18
REMARK    6  A    between atoms: C_21  and  N_22
REMARK                            x       y       z     vdW  Elec       q    Type
REMARK                         _______ _______ _______ _____ _____    ______ ____
ROOT
ATOM      1  N   UNL     1       1.218   4.679  20.673  0.00  0.00    +0.000 NA
ATOM      2  C   UNL     1       2.327   5.167  20.213  0.00  0.00    +0.000 C 
ATOM      3  N   UNL     1       3.341   4.367  19.729  0.00  0.00    +0.000 N 
ATOM      4  N   UNL     1       2.601   6.512  20.103  0.00  0.00    +0.000 N 
ATOM      5  H   UNL     1       1.231   3.663  20.630  0.00  0.00    +0.000 HD
ATOM      6  H   UNL     1       3.162   3.372  19.816  0.00  0.00    +0.000 HD
ATOM      7  H   UNL     1       3.598   6.712  20.103  0.00  0.00    +0.000 HD
ENDROOT
BRANCH   3   8
ATOM      8  N   UNL     1       4.187   4.786  18.733  0.00  0.00    +0.000 NA
ATOM      9  C   UNL     1       4.449   3.915  17.812  0.00  0.00    +0.000 C 
BRANCH   9  10
ATOM     10  C   UNL     1       5.288   4.261  16.646  0.00  0.00    +0.000 A 
ATOM     11  C   UNL     1       6.564   4.811  16.822  0.00  0.00    +0.000 A 
ATOM     12  C   UNL     1       7.361   5.103  15.711  0.00  0.00    +0.000 A 
ATOM     13  C   UNL     1       6.870   4.845  14.423  0.00  0.00    +0.000 A 
ATOM     14  C   UNL     1       5.584   4.314  14.244  0.00  0.00    +0.000 A 
ATOM     15  C   UNL     1       4.790   4.028  15.360  0.00  0.00    +0.000 A 
BRANCH  13  16
ATOM     16  N   UNL     1       7.713   5.124  13.254  0.00  0.00    +0.000 N 
ATOM     17  O   UNL     1       8.671   5.896  13.403  0.00  0.00    +0.000 OA
ATOM     18  O   UNL     1       7.418   4.567  12.187  0.00  0.00    +0.000 OA
ENDBRANCH  13  16
ENDBRANCH   9  10
ENDBRANCH   3   8
BRANCH   4  19
ATOM     19  N   UNL     1       1.759   7.584  20.188  0.00  0.00    +0.000 NA
ATOM     20  C   UNL     1       1.711   8.124  21.365  0.00  0.00    +0.000 C 
BRANCH  20  21
ATOM     21  C   UNL     1       0.824   9.256  21.682  0.00  0.00    +0.000 A 
ATOM     22  C   UNL     1       0.677  10.329  20.798  0.00  0.00    +0.000 A 
ATOM     23  C   UNL     1      -0.216  11.358  21.100  0.00  0.00    +0.000 A 
ATOM     24  C   UNL     1      -0.957  11.303  22.292  0.00  0.00    +0.000 A 
ATOM     25  C   UNL     1      -0.801  10.233  23.184  0.00  0.00    +0.000 A 
ATOM     26  C   UNL     1       0.095   9.207  22.876  0.00  0.00    +0.000 A 
BRANCH  24  27
ATOM     27  N   UNL     1      -1.915  12.371  22.602  0.00  0.00    +0.000 N 
ATOM     28  O   UNL     1      -1.547  13.269  23.368  0.00  0.00    +0.000 OA
ATOM     29  O   UNL     1      -3.037  12.311  22.074  0.00  0.00    +0.000 OA
ENDBRANCH  24  27
ENDBRANCH  20  21
ENDBRANCH   4  19
TORSDOF 6
ENDMDL
MODEL 2
REMARK VINA RESULT:      -7.8      0.485      1.219
REMARK  Name = 
REMARK  6 active torsions:
REMARK  status: ('A' for Active; 'I' for Inactive)
REMARK    1  A    between atoms: N_3  and  N_4
REMARK    2  A    between atoms: C_5  and  C_6
REMARK    3  A    between atoms: C_9  and  N_10
REMARK    4  A    between atoms: N_15  and  N_16
REMARK    5  A    between atoms: C_17  and  C_18
REMARK    6  A    between atoms: C_21  and  N_22
REMARK                            x       y       z     vdW  Elec       q    Type
REMARK                         _______ _______ _______ _____ _____    ______ ____
ROOT
ATOM      1  N   UNL     1       1.357   4.442  20.701  0.00  0.00    +0.000 NA
ATOM      2  C   UNL     1       2.455   4.972  20.261  0.00  0.00    +0.000 C 
ATOM      3  N   UNL     1       3.528   4.211  19.845  0.00  0.00    +0.000 N 
ATOM      4  N   UNL     1       2.661   6.325  20.109  0.00  0.00    +0.000 N 
ATOM      5  H   UNL     1       1.425   3.427  20.698  0.00  0.00    +0.000 HD
ATOM      6  H   UNL     1       3.398   3.211  19.964  0.00  0.00    +0.000 HD
ATOM      7  H   UNL     1       3.646   6.579  20.137  0.00  0.00    +0.000 HD
ENDROOT
BRANCH   3   8
ATOM      8  N   UNL     1       4.386   4.639  18.864  0.00  0.00    +0.000 NA
ATOM      9  C   UNL     1       4.493   3.864  17.832  0.00  0.00    +0.000 C 
BRANCH   9  10
ATOM     10  C   UNL     1       5.330   4.242  16.674  0.00  0.00    +0.000 A 
ATOM     11  C   UNL     1       6.537   4.928  16.858  0.00  0.00    +0.000 A 
ATOM     12  C   UNL     1       7.335   5.251  15.757  0.00  0.00    +0.000 A 
ATOM     13  C   UNL     1       6.915   4.886  14.470  0.00  0.00    +0.000 A 
ATOM     14  C   UNL     1       5.695   4.217  14.281  0.00  0.00    +0.000 A 
ATOM     15  C   UNL     1       4.899   3.901  15.388  0.00  0.00    +0.000 A 
BRANCH  13  16
ATOM     16  N   UNL     1       7.761   5.198  13.311  0.00  0.00    +0.000 N 
ATOM     17  O   UNL     1       7.459   4.692  12.221  0.00  0.00    +0.000 OA
ATOM     18  O   UNL     1       8.727   5.953  13.493  0.00  0.00    +0.000 OA
ENDBRANCH  13  16
ENDBRANCH   9  10
ENDBRANCH   3   8
BRANCH   4  19
ATOM     19  N   UNL     1       1.761   7.352  20.123  0.00  0.00    +0.000 NA
ATOM     20  C   UNL     1       1.665   7.953  21.267  0.00  0.00    +0.000 C 
BRANCH  20  21
ATOM     21  C   UNL     1       0.713   9.050  21.508  0.00  0.00    +0.000 A 
ATOM     22  C   UNL     1       0.160   9.261  22.774  0.00  0.00    +0.000 A 
ATOM     23  C   UNL     1      -0.693  10.345  22.986  0.00  0.00    +0.000 A 
ATOM     24  C   UNL     1      -0.987  11.213  21.921  0.00  0.00    +0.000 A 
ATOM     25  C   UNL     1      -0.441  10.994  20.649  0.00  0.00    +0.000 A 
ATOM     26  C   UNL     1       0.411   9.907  20.444  0.00  0.00    +0.000 A 
BRANCH  24  27
ATOM     27  N   UNL     1      -1.865  12.368  22.145  0.00  0.00    +0.000 N 
ATOM     28  O   UNL     1      -1.619  13.405  21.521  0.00  0.00    +0.000 OA
ATOM     29  O   UNL     1      -2.804  12.231  22.945  0.00  0.00    +0.000 OA
ENDBRANCH  24  27
ENDBRANCH  20  21
ENDBRANCH   4  19
TORSDOF 6
ENDMDL
MODEL 3
REMARK VINA RESULT:      -7.7      0.320      1.174
REMARK  Name = 
REMARK  6 active torsions:
REMARK  status: ('A' for Active; 'I' for Inactive)
REMARK    1  A    between atoms: N_3  and  N_4
REMARK    2  A    between atoms: C_5  and  C_6
REMARK    3  A    between atoms: C_9  and  N_10
REMARK    4  A    between atoms: N_15  and  N_16
REMARK    5  A    between atoms: C_17  and  C_18
REMARK    6  A    between atoms: C_21  and  N_22
REMARK                            x       y       z     vdW  Elec       q    Type
REMARK                         _______ _______ _______ _____ _____    ______ ____
ROOT
ATOM      1  N   UNL     1       1.227   4.920  20.824  0.00  0.00    +0.000 NA
ATOM      2  C   UNL     1       2.260   5.383  20.193  0.00  0.00    +0.000 C 
ATOM      3  N   UNL     1       3.199   4.559  19.608  0.00  0.00    +0.000 N 
ATOM      4  N   UNL     1       2.513   6.721  19.988  0.00  0.00    +0.000 N 
ATOM      5  H   UNL     1       1.236   3.903  20.824  0.00  0.00    +0.000 HD
ATOM      6  H   UNL     1       3.035   3.569  19.763  0.00  0.00    +0.000 HD
ATOM      7  H   UNL     1       3.500   6.917  19.841  0.00  0.00    +0.000 HD
ENDROOT
BRANCH   3   8
ATOM      8  N   UNL     1       3.897   4.931  18.488  0.00  0.00    +0.000 NA
ATOM      9  C   UNL     1       4.756   4.069  18.047  0.00  0.00    +0.000 C 
BRANCH   9  10
ATOM     10  C   UNL     1       5.523   4.317  16.807  0.00  0.00    +0.000 A 
ATOM     11  C   UNL     1       5.006   3.944  15.560  0.00  0.00    +0.000 A 
ATOM     12  C   UNL     1       5.727   4.213  14.394  0.00  0.00    +0.000 A 
ATOM     13  C   UNL     1       6.970   4.856  14.484  0.00  0.00    +0.000 A 
ATOM     14  C   UNL     1       7.500   5.212  15.734  0.00  0.00    +0.000 A 
ATOM     15  C   UNL     1       6.775   4.935  16.898  0.00  0.00    +0.000 A 
BRANCH  13  16
ATOM     16  N   UNL     1       7.720   5.166  13.260  0.00  0.00    +0.000 N 
ATOM     17  O   UNL     1       7.357   4.623  12.206  0.00  0.00    +0.000 OA
ATOM     18  O   UNL     1       8.669   5.958  13.353  0.00  0.00    +0.000 OA
ENDBRANCH  13  16
ENDBRANCH   9  10
ENDBRANCH   3   8
BRANCH   4  19
ATOM     19  N   UNL     1       1.688   7.799  20.142  0.00  0.00    +0.000 NA
ATOM     20  C   UNL     1       1.689   8.295  21.339  0.00  0.00    +0.000 C 
BRANCH  20  21
ATOM     21  C   UNL     1       0.829   9.425  21.729  0.00  0.00    +0.000 A 
ATOM     22  C   UNL     1       0.799  10.603  20.978  0.00  0.00    +0.000 A 
ATOM     23  C   UNL     1      -0.072  11.633  21.340  0.00  0.00    +0.000 A 
ATOM     24  C   UNL     1      -0.907  11.473  22.458  0.00  0.00    +0.000 A 
ATOM     25  C   UNL     1      -0.868  10.295  23.217  0.00  0.00    +0.000 A 
ATOM     26  C   UNL     1       0.005   9.269  22.851  0.00  0.00    +0.000 A 
BRANCH  24  27
ATOM     27  N   UNL     1      -1.840  12.544  22.828  0.00  0.00    +0.000 N 
ATOM     28  O   UNL     1      -1.379  13.680  22.980  0.00  0.00    +0.000 OA
ATOM     29  O   UNL     1      -3.037  12.244  22.962  0.00  0.00    +0.000 OA
ENDBRANCH  24  27
ENDBRANCH  20  21
ENDBRANCH   4  19
TORSDOF 6
ENDMDL
MODEL 4
REMARK VINA RESULT:      -7.7      1.459      1.922
REMARK  Name = 
REMARK  6 active torsions:
REMARK  status: ('A' for Active; 'I' for Inactive)
REMARK    1  A    between atoms: N_3  and  N_4
REMARK    2  A    between atoms: C_5  and  C_6
REMARK    3  A    between atoms: C_9  and  N_10
REMARK    4  A    between atoms: N_15  and  N_16
REMARK    5  A    between atoms: C_17  and  C_18
REMARK    6  A    between atoms: C_21  and  N_22
REMARK                            x       y       z     vdW  Elec       q    Type
REMARK                         _______ _______ _______ _____ _____    ______ ____
ROOT
ATOM      1  N   UNL     1       1.796   3.221  21.975  0.00  0.00    +0.000 NA
ATOM      2  C   UNL     1       2.626   3.644  21.074  0.00  0.00    +0.000 C 
ATOM      3  N   UNL     1       3.521   2.807  20.442  0.00  0.00    +0.000 N 
ATOM      4  N   UNL     1       2.676   4.939  20.608  0.00  0.00    +0.000 N 
ATOM      5  H   UNL     1       1.924   2.225  22.136  0.00  0.00    +0.000 HD
ATOM      6  H   UNL     1       3.508   1.851  20.784  0.00  0.00    +0.000 HD
ATOM      7  H   UNL     1       3.586   5.185  20.225  0.00  0.00    +0.000 HD
ENDROOT
BRANCH   3   8
ATOM      8  N   UNL     1       3.939   3.026  19.154  0.00  0.00    +0.000 NA
ATOM      9  C   UNL     1       4.900   3.881  19.010  0.00  0.00    +0.000 C 
BRANCH   9  10
ATOM     10  C   UNL     1       5.490   4.156  17.683  0.00  0.00    +0.000 A 
ATOM     11  C   UNL     1       6.831   4.542  17.562  0.00  0.00    +0.000 A 
ATOM     12  C   UNL     1       7.384   4.767  16.299  0.00  0.00    +0.000 A 
ATOM     13  C   UNL     1       6.586   4.607  15.157  0.00  0.00    +0.000 A 
ATOM     14  C   UNL     1       5.236   4.241  15.277  0.00  0.00    +0.000 A 
ATOM     15  C   UNL     1       4.687   4.021  16.545  0.00  0.00    +0.000 A 
BRANCH  13  16
ATOM     16  N   UNL     1       7.169   4.815  13.826  0.00  0.00    +0.000 N 
ATOM     17  O   UNL     1       8.058   5.670  13.712  0.00  0.00    +0.000 OA
ATOM     18  O   UNL     1       6.740   4.118  12.895  0.00  0.00    +0.000 OA
ENDBRANCH  13  16
ENDBRANCH   9  10
ENDBRANCH   3   8
BRANCH   4  19
ATOM     19  N   UNL     1       1.778   5.957  20.759  0.00  0.00    +0.000 NA
ATOM     20  C   UNL     1       2.167   7.083  20.248  0.00  0.00    +0.000 C 
BRANCH  20  21
ATOM     21  C   UNL     1       1.372   8.317  20.352  0.00  0.00    +0.000 A 
ATOM     22  C   UNL     1       0.768   8.689  21.556  0.00  0.00    +0.000 A 
ATOM     23  C   UNL     1       0.070   9.895  21.638  0.00  0.00    +0.000 A 
ATOM     24  C   UNL     1      -0.018  10.722  20.506  0.00  0.00    +0.000 A 
ATOM     25  C   UNL     1       0.578  10.343  19.295  0.00  0.00    +0.000 A 
ATOM     26  C   UNL     1       1.274   9.135  19.220  0.00  0.00    +0.000 A 
BRANCH  24  27
ATOM     27  N   UNL     1      -0.731  12.002  20.594  0.00  0.00    +0.000 N 
ATOM     28  O   UNL     1      -0.101  13.030  20.321  0.00  0.00    +0.000 OA
ATOM     29  O   UNL     1      -1.924  11.975  20.934  0.00  0.00    +0.000 OA
ENDBRANCH  24  27
ENDBRANCH  20  21
ENDBRANCH   4  19
TORSDOF 6
ENDMDL
MODEL 5
REMARK VINA RESULT:      -7.6      0.518      1.428
REMARK  Name = 
REMARK  6 active torsions:
REMARK  status: ('A' for Active; 'I' for Inactive)
REMARK    1  A    between atoms: N_3  and  N_4
REMARK    2  A    between atoms: C_5  and  C_6
REMARK    3  A    between atoms: C_9  and  N_10
REMARK    4  A    between atoms: N_15  and  N_16
REMARK    5  A    between atoms: C_17  and  C_18
REMARK    6  A    between atoms: C_21  and  N_22
REMARK                            x       y       z     vdW  Elec       q    Type
REMARK                         _______ _______ _______ _____ _____    ______ ____
ROOT
ATOM      1  N   UNL     1       1.616   4.931  21.049  0.00  0.00    +0.000 NA
ATOM      2  C   UNL     1       2.511   5.387  20.230  0.00  0.00    +0.000 C 
ATOM      3  N   UNL     1       3.449   4.572  19.632  0.00  0.00    +0.000 N 
ATOM      4  N   UNL     1       2.599   6.700  19.824  0.00  0.00    +0.000 N 
ATOM      5  H   UNL     1       1.729   3.928  21.177  0.00  0.00    +0.000 HD
ATOM      6  H   UNL     1       3.408   3.603  19.931  0.00  0.00    +0.000 HD
ATOM      7  H   UNL     1       3.535   6.957  19.520  0.00  0.00    +0.000 HD
ENDROOT
BRANCH   3   8
ATOM      8  N   UNL     1       3.961   4.843  18.388  0.00  0.00    +0.000 NA
ATOM      9  C   UNL     1       5.094   4.280  18.111  0.00  0.00    +0.000 C 
BRANCH   9  10
ATOM     10  C   UNL     1       5.719   4.432  16.780  0.00  0.00    +0.000 A 
ATOM     11  C   UNL     1       4.983   4.197  15.613  0.00  0.00    +0.000 A 
ATOM     12  C   UNL     1       5.577   4.376  14.360  0.00  0.00    +0.000 A 
ATOM     13  C   UNL     1       6.915   4.789  14.285  0.00  0.00    +0.000 A 
ATOM     14  C   UNL     1       7.662   5.005  15.453  0.00  0.00    +0.000 A 
ATOM     15  C   UNL     1       7.061   4.820  16.704  0.00  0.00    +0.000 A 
BRANCH  13  16
ATOM     16  N   UNL     1       7.536   5.006  12.972  0.00  0.00    +0.000 N 
ATOM     17  O   UNL     1       8.399   5.892  12.880  0.00  0.00    +0.000 OA
ATOM     18  O   UNL     1       7.164   4.287  12.034  0.00  0.00    +0.000 OA
ENDBRANCH  13  16
ENDBRANCH   9  10
ENDBRANCH   3   8
BRANCH   4  19
ATOM     19  N   UNL     1       1.694   7.716  19.951  0.00  0.00    +0.000 NA
ATOM     20  C   UNL     1       1.503   8.101  21.174  0.00  0.00    +0.000 C 
BRANCH  20  21
ATOM     21  C   UNL     1       0.528   9.144  21.533  0.00  0.00    +0.000 A 
ATOM     22  C   UNL     1       0.051   9.267  22.841  0.00  0.00    +0.000 A 
ATOM     23  C   UNL     1      -0.827  10.303  23.164  0.00  0.00    +0.000 A 
ATOM     24  C   UNL     1      -1.222  11.211  22.167  0.00  0.00    +0.000 A 
ATOM     25  C   UNL     1      -0.752  11.080  20.853  0.00  0.00    +0.000 A 
ATOM     26  C   UNL     1       0.125  10.041  20.537  0.00  0.00    +0.000 A 
BRANCH  24  27
ATOM     27  N   UNL     1      -2.127  12.316  22.507  0.00  0.00    +0.000 N 
ATOM     28  O   UNL     1      -1.797  13.455  22.160  0.00  0.00    +0.000 OA
ATOM     29  O   UNL     1      -3.170  12.038  23.120  0.00  0.00    +0.000 OA
ENDBRANCH  24  27
ENDBRANCH  20  21
ENDBRANCH   4  19
TORSDOF 6
ENDMDL
MODEL 6
REMARK VINA RESULT:      -7.6      1.544      2.372
REMARK  Name = 
REMARK  6 active torsions:
REMARK  status: ('A' for Active; 'I' for Inactive)
REMARK    1  A    between atoms: N_3  and  N_4
REMARK    2  A    between atoms: C_5  and  C_6
REMARK    3  A    between atoms: C_9  and  N_10
REMARK    4  A    between atoms: N_15  and  N_16
REMARK    5  A    between atoms: C_17  and  C_18
REMARK    6  A    between atoms: C_21  and  N_22
REMARK                            x       y       z     vdW  Elec       q    Type
REMARK                         _______ _______ _______ _____ _____    ______ ____
ROOT
ATOM      1  N   UNL     1       1.757   3.205  21.951  0.00  0.00    +0.000 NA
ATOM      2  C   UNL     1       2.605   3.611  21.059  0.00  0.00    +0.000 C 
ATOM      3  N   UNL     1       3.500   2.758  20.448  0.00  0.00    +0.000 N 
ATOM      4  N   UNL     1       2.678   4.902  20.585  0.00  0.00    +0.000 N 
ATOM      5  H   UNL     1       1.870   2.208  22.122  0.00  0.00    +0.000 HD
ATOM      6  H   UNL     1       3.469   1.806  20.797  0.00  0.00    +0.000 HD
ATOM      7  H   UNL     1       3.596   5.134  20.214  0.00  0.00    +0.000 HD
ENDROOT
BRANCH   3   8
ATOM      8  N   UNL     1       3.939   2.963  19.165  0.00  0.00    +0.000 NA
ATOM      9  C   UNL     1       4.914   3.804  19.030  0.00  0.00    +0.000 C 
BRANCH   9  10
ATOM     10  C   UNL     1       5.527   4.062  17.710  0.00  0.00    +0.000 A 
ATOM     11  C   UNL     1       4.826   3.787  16.530  0.00  0.00    +0.000 A 
ATOM     12  C   UNL     1       5.405   4.065  15.289  0.00  0.00    +0.000 A 
ATOM     13  C   UNL     1       6.693   4.618  15.237  0.00  0.00    +0.000 A 
ATOM     14  C   UNL     1       7.407   4.874  16.417  0.00  0.00    +0.000 A 
ATOM     15  C   UNL     1       6.822   4.588  17.657  0.00  0.00    +0.000 A 
BRANCH  13  16
ATOM     16  N   UNL     1       7.295   4.938  13.937  0.00  0.00    +0.000 N 
ATOM     17  O   UNL     1       6.799   4.420  12.926  0.00  0.00    +0.000 OA
ATOM     18  O   UNL     1       8.263   5.712  13.928  0.00  0.00    +0.000 OA
ENDBRANCH  13  16
ENDBRANCH   9  10
ENDBRANCH   3   8
BRANCH   4  19
ATOM     19  N   UNL     1       1.790   5.932  20.715  0.00  0.00    +0.000 NA
ATOM     20  C   UNL     1       2.147   7.015  20.101  0.00  0.00    +0.000 C 
BRANCH  20  21
ATOM     21  C   UNL     1       1.359   8.257  20.161  0.00  0.00    +0.000 A 
ATOM     22  C   UNL     1       0.641   8.603  21.310  0.00  0.00    +0.000 A 
ATOM     23  C   UNL     1      -0.048   9.816  21.357  0.00  0.00    +0.000 A 
ATOM     24  C   UNL     1      -0.014  10.675  20.247  0.00  0.00    +0.000 A 
ATOM     25  C   UNL     1       0.696  10.323  19.091  0.00  0.00    +0.000 A 
ATOM     26  C   UNL     1       1.383   9.108  19.049  0.00  0.00    +0.000 A 
BRANCH  24  27
ATOM     27  N   UNL     1      -0.718  11.962  20.301  0.00  0.00    +0.000 N 
ATOM     28  O   UNL     1      -1.954  11.940  20.321  0.00  0.00    +0.000 OA
ATOM     29  O   UNL     1      -0.030  12.995  20.329  0.00  0.00    +0.000 OA
ENDBRANCH  24  27
ENDBRANCH  20  21
ENDBRANCH   4  19
TORSDOF 6
ENDMDL
MODEL 7
REMARK VINA RESULT:      -7.5      1.646      1.991
REMARK  Name = 
REMARK  6 active torsions:
REMARK  status: ('A' for Active; 'I' for Inactive)
REMARK    1  A    between atoms: N_3  and  N_4
REMARK    2  A    between atoms: C_5  and  C_6
REMARK    3  A    between atoms: C_9  and  N_10
REMARK    4  A    between atoms: N_15  and  N_16
REMARK    5  A    between atoms: C_17  and  C_18
REMARK    6  A    between atoms: C_21  and  N_22
REMARK                            x       y       z     vdW  Elec       q    Type
REMARK                         _______ _______ _______ _____ _____    ______ ____
ROOT
ATOM      1  N   UNL     1       1.882   3.378  21.852  0.00  0.00    +0.000 NA
ATOM      2  C   UNL     1       2.756   3.738  20.965  0.00  0.00    +0.000 C 
ATOM      3  N   UNL     1       3.600   2.836  20.351  0.00  0.00    +0.000 N 
ATOM      4  N   UNL     1       2.908   5.025  20.499  0.00  0.00    +0.000 N 
ATOM      5  H   UNL     1       1.934   2.375  22.016  0.00  0.00    +0.000 HD
ATOM      6  H   UNL     1       3.511   1.885  20.693  0.00  0.00    +0.000 HD
ATOM      7  H   UNL     1       3.840   5.203  20.132  0.00  0.00    +0.000 HD
ENDROOT
BRANCH   3   8
ATOM      8  N   UNL     1       4.055   3.022  19.070  0.00  0.00    +0.000 NA
ATOM      9  C   UNL     1       4.892   3.996  18.904  0.00  0.00    +0.000 C 
BRANCH   9  10
ATOM     10  C   UNL     1       5.511   4.258  17.588  0.00  0.00    +0.000 A 
ATOM     11  C   UNL     1       6.854   4.646  17.494  0.00  0.00    +0.000 A 
ATOM     12  C   UNL     1       7.436   4.860  16.242  0.00  0.00    +0.000 A 
ATOM     13  C   UNL     1       6.665   4.686  15.084  0.00  0.00    +0.000 A 
ATOM     14  C   UNL     1       5.314   4.318  15.176  0.00  0.00    +0.000 A 
ATOM     15  C   UNL     1       4.735   4.110  16.434  0.00  0.00    +0.000 A 
BRANCH  13  16
ATOM     16  N   UNL     1       7.278   4.881  13.765  0.00  0.00    +0.000 N 
ATOM     17  O   UNL     1       8.237   5.663  13.683  0.00  0.00    +0.000 OA
ATOM     18  O   UNL     1       6.803   4.249  12.810  0.00  0.00    +0.000 OA
ENDBRANCH  13  16
ENDBRANCH   9  10
ENDBRANCH   3   8
BRANCH   4  19
ATOM     19  N   UNL     1       2.084   6.106  20.633  0.00  0.00    +0.000 NA
ATOM     20  C   UNL     1       2.281   7.031  19.747  0.00  0.00    +0.000 C 
BRANCH  20  21
ATOM     21  C   UNL     1       1.536   8.301  19.749  0.00  0.00    +0.000 A 
ATOM     22  C   UNL     1       1.475   9.104  18.606  0.00  0.00    +0.000 A 
ATOM     23  C   UNL     1       0.712  10.272  18.621  0.00  0.00    +0.000 A 
ATOM     24  C   UNL     1       0.014  10.629  19.787  0.00  0.00    +0.000 A 
ATOM     25  C   UNL     1       0.085   9.829  20.936  0.00  0.00    +0.000 A 
ATOM     26  C   UNL     1       0.851   8.662  20.915  0.00  0.00    +0.000 A 
BRANCH  24  27
ATOM     27  N   UNL     1      -0.809  11.844  19.799  0.00  0.00    +0.000 N 
ATOM     28  O   UNL     1      -0.783  12.565  18.796  0.00  0.00    +0.000 OA
ATOM     29  O   UNL     1      -1.484  12.073  20.816  0.00  0.00    +0.000 OA
ENDBRANCH  24  27
ENDBRANCH  20  21
ENDBRANCH   4  19
TORSDOF 6
ENDMDL
MODEL 8
REMARK VINA RESULT:      -7.3      1.210      1.759
REMARK  Name = 
REMARK  6 active torsions:
REMARK  status: ('A' for Active; 'I' for Inactive)
REMARK    1  A    between atoms: N_3  and  N_4
REMARK    2  A    between atoms: C_5  and  C_6
REMARK    3  A    between atoms: C_9  and  N_10
REMARK    4  A    between atoms: N_15  and  N_16
REMARK    5  A    between atoms: C_17  and  C_18
REMARK    6  A    between atoms: C_21  and  N_22
REMARK                            x       y       z     vdW  Elec       q    Type
REMARK                         _______ _______ _______ _____ _____    ______ ____
ROOT
ATOM      1  N   UNL     1       1.658   4.033  21.230  0.00  0.00    +0.000 NA
ATOM      2  C   UNL     1       2.539   4.599  20.465  0.00  0.00    +0.000 C 
ATOM      3  N   UNL     1       3.477   3.876  19.758  0.00  0.00    +0.000 N 
ATOM      4  N   UNL     1       2.609   5.954  20.229  0.00  0.00    +0.000 N 
ATOM      5  H   UNL     1       1.782   3.023  21.228  0.00  0.00    +0.000 HD
ATOM      6  H   UNL     1       3.448   2.877  19.932  0.00  0.00    +0.000 HD
ATOM      7  H   UNL     1       3.539   6.257  19.949  0.00  0.00    +0.000 HD
ENDROOT
BRANCH   3   8
ATOM      8  N   UNL     1       3.971   4.308  18.553  0.00  0.00    +0.000 NA
ATOM      9  C   UNL     1       5.160   3.894  18.251  0.00  0.00    +0.000 C 
BRANCH   9  10
ATOM     10  C   UNL     1       5.780   4.229  16.952  0.00  0.00    +0.000 A 
ATOM     11  C   UNL     1       7.082   4.739  16.891  0.00  0.00    +0.000 A 
ATOM     12  C   UNL     1       7.669   5.021  15.654  0.00  0.00    +0.000 A 
ATOM     13  C   UNL     1       6.941   4.790  14.478  0.00  0.00    +0.000 A 
ATOM     14  C   UNL     1       5.628   4.298  14.536  0.00  0.00    +0.000 A 
ATOM     15  C   UNL     1       5.046   4.023  15.779  0.00  0.00    +0.000 A 
BRANCH  13  16
ATOM     16  N   UNL     1       7.562   5.058  13.174  0.00  0.00    +0.000 N 
ATOM     17  O   UNL     1       7.140   4.429  12.193  0.00  0.00    +0.000 OA
ATOM     18  O   UNL     1       8.469   5.902  13.131  0.00  0.00    +0.000 OA
ENDBRANCH  13  16
ENDBRANCH   9  10
ENDBRANCH   3   8
BRANCH   4  19
ATOM     19  N   UNL     1       1.697   6.935  20.494  0.00  0.00    +0.000 NA
ATOM     20  C   UNL     1       1.857   8.008  19.785  0.00  0.00    +0.000 C 
BRANCH  20  21
ATOM     21  C   UNL     1       1.015   9.204  19.956  0.00  0.00    +0.000 A 
ATOM     22  C   UNL     1       0.611   9.628  21.225  0.00  0.00    +0.000 A 
ATOM     23  C   UNL     1      -0.137  10.799  21.358  0.00  0.00    +0.000 A 
ATOM     24  C   UNL     1      -0.478  11.537  20.212  0.00  0.00    +0.000 A 
ATOM     25  C   UNL     1      -0.082  11.105  18.939  0.00  0.00    +0.000 A 
ATOM     26  C   UNL     1       0.666   9.932  18.812  0.00  0.00    +0.000 A 
BRANCH  24  27
ATOM     27  N   UNL     1      -1.244  12.781  20.350  0.00  0.00    +0.000 N 
ATOM     28  O   UNL     1      -0.645  13.783  20.757  0.00  0.00    +0.000 OA
ATOM     29  O   UNL     1      -2.447  12.754  20.045  0.00  0.00    +0.000 OA
ENDBRANCH  24  27
ENDBRANCH  20  21
ENDBRANCH   4  19
TORSDOF 6
ENDMDL
MODEL 9
REMARK VINA RESULT:      -7.3      1.978      9.646
REMARK  Name = 
REMARK  6 active torsions:
REMARK  status: ('A' for Active; 'I' for Inactive)
REMARK    1  A    between atoms: N_3  and  N_4
REMARK    2  A    between atoms: C_5  and  C_6
REMARK    3  A    between atoms: C_9  and  N_10
REMARK    4  A    between atoms: N_15  and  N_16
REMARK    5  A    between atoms: C_17  and  C_18
REMARK    6  A    between atoms: C_21  and  N_22
REMARK                            x       y       z     vdW  Elec       q    Type
REMARK                         _______ _______ _______ _____ _____    ______ ____
ROOT
ATOM      1  N   UNL     1       3.850   2.355  20.410  0.00  0.00    +0.000 NA
ATOM      2  C   UNL     1       2.907   3.148  20.006  0.00  0.00    +0.000 C 
ATOM      3  N   UNL     1       2.007   3.729  20.875  0.00  0.00    +0.000 N 
ATOM      4  N   UNL     1       2.727   3.542  18.699  0.00  0.00    +0.000 N 
ATOM      5  H   UNL     1       3.803   2.232  21.418  0.00  0.00    +0.000 HD
ATOM      6  H   UNL     1       2.117   3.438  21.841  0.00  0.00    +0.000 HD
ATOM      7  H   UNL     1       1.769   3.821  18.500  0.00  0.00    +0.000 HD
ENDROOT
BRANCH   3   8
ATOM      8  N   UNL     1       1.448   4.957  20.630  0.00  0.00    +0.000 NA
ATOM      9  C   UNL     1       2.276   5.950  20.565  0.00  0.00    +0.000 C 
BRANCH   9  10
ATOM     10  C   UNL     1       1.812   7.315  20.237  0.00  0.00    +0.000 A 
ATOM     11  C   UNL     1       2.032   7.859  18.965  0.00  0.00    +0.000 A 
ATOM     12  C   UNL     1       1.559   9.138  18.659  0.00  0.00    +0.000 A 
ATOM     13  C   UNL     1       0.867   9.870  19.634  0.00  0.00    +0.000 A 
ATOM     14  C   UNL     1       0.662   9.335  20.915  0.00  0.00    +0.000 A 
ATOM     15  C   UNL     1       1.143   8.055  21.217  0.00  0.00    +0.000 A 
BRANCH  13  16
ATOM     16  N   UNL     1       0.343  11.202  19.309  0.00  0.00    +0.000 N 
ATOM     17  O   UNL     1       0.770  12.166  19.961  0.00  0.00    +0.000 OA
ATOM     18  O   UNL     1      -0.493  11.285  18.397  0.00  0.00    +0.000 OA
ENDBRANCH  13  16
ENDBRANCH   9  10
ENDBRANCH   3   8
BRANCH   4  19
ATOM     19  N   UNL     1       3.569   3.430  17.629  0.00  0.00    +0.000 NA
ATOM     20  C   UNL     1       4.277   4.492  17.404  0.00  0.00    +0.000 C 
BRANCH  20  21
ATOM     21  C   UNL     1       5.206   4.598  16.266  0.00  0.00    +0.000 A 
ATOM     22  C   UNL     1       4.882   4.062  15.016  0.00  0.00    +0.000 A 
ATOM     23  C   UNL     1       5.756   4.231  13.942  0.00  0.00    +0.000 A 
ATOM     24  C   UNL     1       6.955   4.939  14.130  0.00  0.00    +0.000 A 
ATOM     25  C   UNL     1       7.284   5.468  15.386  0.00  0.00    +0.000 A 
ATOM     26  C   UNL     1       6.405   5.294  16.457  0.00  0.00    +0.000 A 
BRANCH  24  27
ATOM     27  N   UNL     1       7.866   5.140  12.997  0.00  0.00    +0.000 N 
ATOM     28  O   UNL     1       7.604   4.558  11.939  0.00  0.00    +0.000 OA
ATOM     29  O   UNL     1       8.844   5.885  13.169  0.00  0.00    +0.000 OA
ENDBRANCH  24  27
ENDBRANCH  20  21
ENDBRANCH   4  19
TORSDOF 6
ENDMDL
