MODEL 1
REMARK VINA RESULT:      -6.5      0.000      0.000
REMARK  Name = 
REMARK  7 active torsions:
REMARK  status: ('A' for Active; 'I' for Inactive)
REMARK    1  A    between atoms: C_1  and  C_2
REMARK    2  A    between atoms: C_2  and  C_3
REMARK    3  A    between atoms: C_3  and  S_4
REMARK    4  A    between atoms: S_4  and  C_5
REMARK    5  A    between atoms: C_7  and  C_8
REMARK    6  A    between atoms: N_14  and  C_15
REMARK    7  A    between atoms: N_18  and  C_19
REMARK                            x       y       z     vdW  Elec       q    Type
REMARK                         _______ _______ _______ _____ _____    ______ ____
ROOT
ATOM      1  C   UNL     1       4.260   6.037  17.117  0.00  0.00    +0.000 A 
ATOM      2  N   UNL     1       3.838   7.317  17.249  0.00  0.00    +0.000 NA
ATOM      3  C   UNL     1       2.820   7.554  18.081  0.00  0.00    +0.000 A 
ATOM      4  C   UNL     1       2.310   8.957  18.184  0.00  0.00    +0.000 C 
ATOM      5  N   UNL     1       2.228   6.611  18.822  0.00  0.00    +0.000 NA
ATOM      6  C   UNL     1       2.665   5.339  18.683  0.00  0.00    +0.000 A 
ATOM      7  C   UNL     1       3.672   4.988  17.810  0.00  0.00    +0.000 A 
ATOM      8  C   UNL     1       4.036   3.570  17.691  0.00  0.00    +0.000 A 
ATOM      9  O   UNL     1       4.844   3.193  16.849  0.00  0.00    +0.000 OA
ATOM     10  N   UNL     1       3.412   2.685  18.563  0.00  0.00    +0.000 N 
ATOM     11  C   UNL     1       3.779   1.280  18.503  0.00  0.00    +0.000 C 
ATOM     12  C   UNL     1       2.416   3.028  19.463  0.00  0.00    +0.000 A 
ATOM     13  O   UNL     1       1.888   2.184  20.189  0.00  0.00    +0.000 OA
ATOM     14  N   UNL     1       2.047   4.357  19.493  0.00  0.00    +0.000 N 
ATOM     15  C   UNL     1       1.005   4.794  20.412  0.00  0.00    +0.000 C 
ENDROOT
BRANCH   1  16
ATOM     16  S   UNL     1       5.593   5.884  15.937  0.00  0.00    +0.000 S 
BRANCH  16  17
ATOM     17  C   UNL     1       6.984   6.448  16.971  0.00  0.00    +0.000 C 
BRANCH  17  19
ATOM     18  C   UNL     1       7.768   5.761  19.267  0.00  0.00    +0.000 C 
ATOM     19  C   UNL     1       7.473   5.295  17.848  0.00  0.00    +0.000 C 
ENDBRANCH  17  19
ENDBRANCH  16  17
ENDBRANCH   1  16
TORSDOF 3
ENDMDL
MODEL 2
REMARK VINA RESULT:      -6.3      1.713      2.018
REMARK  Name = 
REMARK  7 active torsions:
REMARK  status: ('A' for Active; 'I' for Inactive)
REMARK    1  A    between atoms: C_1  and  C_2
REMARK    2  A    between atoms: C_2  and  C_3
REMARK    3  A    between atoms: C_3  and  S_4
REMARK    4  A    between atoms: S_4  and  C_5
REMARK    5  A    between atoms: C_7  and  C_8
REMARK    6  A    between atoms: N_14  and  C_15
REMARK    7  A    between atoms: N_18  and  C_19
REMARK                            x       y       z     vdW  Elec       q    Type
REMARK                         _______ _______ _______ _____ _____    ______ ____
ROOT
ATOM      1  C   UNL     1       4.698   6.213  17.731  0.00  0.00    +0.000 A 
ATOM      2  N   UNL     1       4.047   7.370  17.463  0.00  0.00    +0.000 NA
ATOM      3  C   UNL     1       2.860   7.565  18.044  0.00  0.00    +0.000 A 
ATOM      4  C   UNL     1       2.107   8.812  17.703  0.00  0.00    +0.000 C 
ATOM      5  N   UNL     1       2.302   6.707  18.906  0.00  0.00    +0.000 NA
ATOM      6  C   UNL     1       2.969   5.560  19.169  0.00  0.00    +0.000 A 
ATOM      7  C   UNL     1       4.173   5.246  18.576  0.00  0.00    +0.000 A 
ATOM      8  C   UNL     1       4.790   3.949  18.884  0.00  0.00    +0.000 A 
ATOM      9  O   UNL     1       5.800   3.575  18.298  0.00  0.00    +0.000 OA
ATOM     10  N   UNL     1       4.166   3.170  19.852  0.00  0.00    +0.000 N 
ATOM     11  C   UNL     1       4.772   1.899  20.213  0.00  0.00    +0.000 C 
ATOM     12  C   UNL     1       2.968   3.485  20.473  0.00  0.00    +0.000 A 
ATOM     13  O   UNL     1       2.459   2.733  21.306  0.00  0.00    +0.000 OA
ATOM     14  N   UNL     1       2.380   4.676  20.103  0.00  0.00    +0.000 N 
ATOM     15  C   UNL     1       1.118   5.075  20.712  0.00  0.00    +0.000 C 
ENDROOT
BRANCH   1  16
ATOM     16  S   UNL     1       6.244   6.088  16.844  0.00  0.00    +0.000 S 
BRANCH  16  17
ATOM     17  C   UNL     1       5.625   5.521  15.226  0.00  0.00    +0.000 C 
BRANCH  17  19
ATOM     18  C   UNL     1       6.168   3.820  13.447  0.00  0.00    +0.000 C 
ATOM     19  C   UNL     1       6.151   4.115  14.940  0.00  0.00    +0.000 C 
ENDBRANCH  17  19
ENDBRANCH  16  17
ENDBRANCH   1  16
TORSDOF 3
ENDMDL
MODEL 3
REMARK VINA RESULT:      -6.3      1.451      1.546
REMARK  Name = 
REMARK  7 active torsions:
REMARK  status: ('A' for Active; 'I' for Inactive)
REMARK    1  A    between atoms: C_1  and  C_2
REMARK    2  A    between atoms: C_2  and  C_3
REMARK    3  A    between atoms: C_3  and  S_4
REMARK    4  A    between atoms: S_4  and  C_5
REMARK    5  A    between atoms: C_7  and  C_8
REMARK    6  A    between atoms: N_14  and  C_15
REMARK    7  A    between atoms: N_18  and  C_19
REMARK                            x       y       z     vdW  Elec       q    Type
REMARK                         _______ _______ _______ _____ _____    ______ ____
ROOT
ATOM      1  C   UNL     1       4.824   6.210  17.749  0.00  0.00    +0.000 A 
ATOM      2  N   UNL     1       4.183   7.371  17.472  0.00  0.00    +0.000 NA
ATOM      3  C   UNL     1       2.987   7.571  18.032  0.00  0.00    +0.000 A 
ATOM      4  C   UNL     1       2.248   8.823  17.679  0.00  0.00    +0.000 C 
ATOM      5  N   UNL     1       2.411   6.716  18.884  0.00  0.00    +0.000 NA
ATOM      6  C   UNL     1       3.066   5.565  19.157  0.00  0.00    +0.000 A 
ATOM      7  C   UNL     1       4.278   5.245  18.585  0.00  0.00    +0.000 A 
ATOM      8  C   UNL     1       4.883   3.944  18.901  0.00  0.00    +0.000 A 
ATOM      9  O   UNL     1       5.901   3.565  18.333  0.00  0.00    +0.000 OA
ATOM     10  N   UNL     1       4.239   3.168  19.858  0.00  0.00    +0.000 N 
ATOM     11  C   UNL     1       4.832   1.893  20.229  0.00  0.00    +0.000 C 
ATOM     12  C   UNL     1       3.032   3.489  20.459  0.00  0.00    +0.000 A 
ATOM     13  O   UNL     1       2.505   2.739  21.283  0.00  0.00    +0.000 OA
ATOM     14  N   UNL     1       2.457   4.683  20.080  0.00  0.00    +0.000 N 
ATOM     15  C   UNL     1       1.187   5.089  20.668  0.00  0.00    +0.000 C 
ENDROOT
BRANCH   1  16
ATOM     16  S   UNL     1       6.384   6.077  16.889  0.00  0.00    +0.000 S 
BRANCH  16  17
ATOM     17  C   UNL     1       7.461   6.958  18.067  0.00  0.00    +0.000 C 
BRANCH  17  19
ATOM     18  C   UNL     1       8.576   9.171  18.526  0.00  0.00    +0.000 C 
ATOM     19  C   UNL     1       7.817   8.333  17.506  0.00  0.00    +0.000 C 
ENDBRANCH  17  19
ENDBRANCH  16  17
ENDBRANCH   1  16
TORSDOF 3
ENDMDL
MODEL 4
REMARK VINA RESULT:      -5.9      2.671      5.295
REMARK  Name = 
REMARK  7 active torsions:
REMARK  status: ('A' for Active; 'I' for Inactive)
REMARK    1  A    between atoms: C_1  and  C_2
REMARK    2  A    between atoms: C_2  and  C_3
REMARK    3  A    between atoms: C_3  and  S_4
REMARK    4  A    between atoms: S_4  and  C_5
REMARK    5  A    between atoms: C_7  and  C_8
REMARK    6  A    between atoms: N_14  and  C_15
REMARK    7  A    between atoms: N_18  and  C_19
REMARK                            x       y       z     vdW  Elec       q    Type
REMARK                         _______ _______ _______ _____ _____    ______ ____
ROOT
ATOM      1  C   UNL     1       2.329   6.087  19.690  0.00  0.00    +0.000 A 
ATOM      2  N   UNL     1       1.731   5.305  20.620  0.00  0.00    +0.000 NA
ATOM      3  C   UNL     1       1.903   3.984  20.527  0.00  0.00    +0.000 A 
ATOM      4  C   UNL     1       1.195   3.112  21.515  0.00  0.00    +0.000 C 
ATOM      5  N   UNL     1       2.667   3.396  19.598  0.00  0.00    +0.000 NA
ATOM      6  C   UNL     1       3.262   4.191  18.681  0.00  0.00    +0.000 A 
ATOM      7  C   UNL     1       3.099   5.559  18.663  0.00  0.00    +0.000 A 
ATOM      8  C   UNL     1       3.743   6.329  17.590  0.00  0.00    +0.000 A 
ATOM      9  O   UNL     1       3.537   7.531  17.464  0.00  0.00    +0.000 OA
ATOM     10  N   UNL     1       4.576   5.628  16.726  0.00  0.00    +0.000 N 
ATOM     11  C   UNL     1       5.263   6.364  15.678  0.00  0.00    +0.000 C 
ATOM     12  C   UNL     1       4.767   4.255  16.748  0.00  0.00    +0.000 A 
ATOM     13  O   UNL     1       5.503   3.697  15.932  0.00  0.00    +0.000 OA
ATOM     14  N   UNL     1       4.087   3.557  17.723  0.00  0.00    +0.000 N 
ATOM     15  C   UNL     1       4.237   2.110  17.808  0.00  0.00    +0.000 C 
ENDROOT
BRANCH   1  16
ATOM     16  S   UNL     1       1.964   7.820  19.928  0.00  0.00    +0.000 S 
BRANCH  16  17
ATOM     17  C   UNL     1       1.025   7.724  21.488  0.00  0.00    +0.000 C 
BRANCH  17  19
ATOM     18  C   UNL     1      -0.299   9.397  22.830  0.00  0.00    +0.000 C 
ATOM     19  C   UNL     1      -0.110   8.747  21.467  0.00  0.00    +0.000 C 
ENDBRANCH  17  19
ENDBRANCH  16  17
ENDBRANCH   1  16
TORSDOF 3
ENDMDL
MODEL 5
REMARK VINA RESULT:      -5.8      1.905      3.890
REMARK  Name = 
REMARK  7 active torsions:
REMARK  status: ('A' for Active; 'I' for Inactive)
REMARK    1  A    between atoms: C_1  and  C_2
REMARK    2  A    between atoms: C_2  and  C_3
REMARK    3  A    between atoms: C_3  and  S_4
REMARK    4  A    between atoms: S_4  and  C_5
REMARK    5  A    between atoms: C_7  and  C_8
REMARK    6  A    between atoms: N_14  and  C_15
REMARK    7  A    between atoms: N_18  and  C_19
REMARK                            x       y       z     vdW  Elec       q    Type
REMARK                         _______ _______ _______ _____ _____    ______ ____
ROOT
ATOM      1  C   UNL     1       4.348   4.408  16.950  0.00  0.00    +0.000 A 
ATOM      2  N   UNL     1       4.375   3.088  17.252  0.00  0.00    +0.000 NA
ATOM      3  C   UNL     1       3.739   2.689  18.357  0.00  0.00    +0.000 A 
ATOM      4  C   UNL     1       3.818   1.242  18.728  0.00  0.00    +0.000 C 
ATOM      5  N   UNL     1       3.043   3.508  19.153  0.00  0.00    +0.000 NA
ATOM      6  C   UNL     1       3.020   4.822  18.834  0.00  0.00    +0.000 A 
ATOM      7  C   UNL     1       3.691   5.336  17.746  0.00  0.00    +0.000 A 
ATOM      8  C   UNL     1       3.651   6.787  17.517  0.00  0.00    +0.000 A 
ATOM      9  O   UNL     1       4.321   7.305  16.631  0.00  0.00    +0.000 OA
ATOM     10  N   UNL     1       2.834   7.534  18.358  0.00  0.00    +0.000 N 
ATOM     11  C   UNL     1       2.737   8.967  18.134  0.00  0.00    +0.000 C 
ATOM     12  C   UNL     1       2.136   7.026  19.442  0.00  0.00    +0.000 A 
ATOM     13  O   UNL     1       1.450   7.753  20.162  0.00  0.00    +0.000 OA
ATOM     14  N   UNL     1       2.258   5.672  19.670  0.00  0.00    +0.000 N 
ATOM     15  C   UNL     1       1.554   5.065  20.792  0.00  0.00    +0.000 C 
ENDROOT
BRANCH   1  16
ATOM     16  S   UNL     1       5.280   4.782  15.472  0.00  0.00    +0.000 S 
BRANCH  16  17
ATOM     17  C   UNL     1       6.973   4.665  16.138  0.00  0.00    +0.000 C 
BRANCH  17  19
ATOM     18  C   UNL     1       7.565   5.586  18.408  0.00  0.00    +0.000 C 
ATOM     19  C   UNL     1       7.293   5.920  16.948  0.00  0.00    +0.000 C 
ENDBRANCH  17  19
ENDBRANCH  16  17
ENDBRANCH   1  16
TORSDOF 3
ENDMDL
MODEL 6
REMARK VINA RESULT:      -5.7      1.656      2.069
REMARK  Name = 
REMARK  7 active torsions:
REMARK  status: ('A' for Active; 'I' for Inactive)
REMARK    1  A    between atoms: C_1  and  C_2
REMARK    2  A    between atoms: C_2  and  C_3
REMARK    3  A    between atoms: C_3  and  S_4
REMARK    4  A    between atoms: S_4  and  C_5
REMARK    5  A    between atoms: C_7  and  C_8
REMARK    6  A    between atoms: N_14  and  C_15
REMARK    7  A    between atoms: N_18  and  C_19
REMARK                            x       y       z     vdW  Elec       q    Type
REMARK                         _______ _______ _______ _____ _____    ______ ____
ROOT
ATOM      1  C   UNL     1       4.546   5.857  17.226  0.00  0.00    +0.000 A 
ATOM      2  N   UNL     1       4.111   7.139  17.265  0.00  0.00    +0.000 NA
ATOM      3  C   UNL     1       2.995   7.397  17.951  0.00  0.00    +0.000 A 
ATOM      4  C   UNL     1       2.475   8.800  17.946  0.00  0.00    +0.000 C 
ATOM      5  N   UNL     1       2.311   6.473  18.637  0.00  0.00    +0.000 NA
ATOM      6  C   UNL     1       2.762   5.199  18.593  0.00  0.00    +0.000 A 
ATOM      7  C   UNL     1       3.873   4.827  17.868  0.00  0.00    +0.000 A 
ATOM      8  C   UNL     1       4.250   3.407  17.838  0.00  0.00    +0.000 A 
ATOM      9  O   UNL     1       5.159   3.009  17.120  0.00  0.00    +0.000 OA
ATOM     10  N   UNL     1       3.518   2.546  18.649  0.00  0.00    +0.000 N 
ATOM     11  C   UNL     1       3.890   1.141  18.678  0.00  0.00    +0.000 C 
ATOM     12  C   UNL     1       2.414   2.912  19.402  0.00  0.00    +0.000 A 
ATOM     13  O   UNL     1       1.796   2.087  20.079  0.00  0.00    +0.000 OA
ATOM     14  N   UNL     1       2.045   4.239  19.345  0.00  0.00    +0.000 N 
ATOM     15  C   UNL     1       0.893   4.699  20.109  0.00  0.00    +0.000 C 
ENDROOT
BRANCH   1  16
ATOM     16  S   UNL     1       6.021   5.674  16.234  0.00  0.00    +0.000 S 
BRANCH  16  17
ATOM     17  C   UNL     1       5.284   4.995  14.711  0.00  0.00    +0.000 C 
BRANCH  17  19
ATOM     18  C   UNL     1       5.749   3.555  12.695  0.00  0.00    +0.000 C 
ATOM     19  C   UNL     1       6.298   4.093  14.008  0.00  0.00    +0.000 C 
ENDBRANCH  17  19
ENDBRANCH  16  17
ENDBRANCH   1  16
TORSDOF 3
ENDMDL
MODEL 7
REMARK VINA RESULT:      -5.7      0.743      1.027
REMARK  Name = 
REMARK  7 active torsions:
REMARK  status: ('A' for Active; 'I' for Inactive)
REMARK    1  A    between atoms: C_1  and  C_2
REMARK    2  A    between atoms: C_2  and  C_3
REMARK    3  A    between atoms: C_3  and  S_4
REMARK    4  A    between atoms: S_4  and  C_5
REMARK    5  A    between atoms: C_7  and  C_8
REMARK    6  A    between atoms: N_14  and  C_15
REMARK    7  A    between atoms: N_18  and  C_19
REMARK                            x       y       z     vdW  Elec       q    Type
REMARK                         _______ _______ _______ _____ _____    ______ ____
ROOT
ATOM      1  C   UNL     1       3.867   6.334  17.345  0.00  0.00    +0.000 A 
ATOM      2  N   UNL     1       3.395   7.563  17.664  0.00  0.00    +0.000 NA
ATOM      3  C   UNL     1       2.418   7.638  18.571  0.00  0.00    +0.000 A 
ATOM      4  C   UNL     1       1.850   8.987  18.881  0.00  0.00    +0.000 C 
ATOM      5  N   UNL     1       1.914   6.578  19.214  0.00  0.00    +0.000 NA
ATOM      6  C   UNL     1       2.401   5.359  18.890  0.00  0.00    +0.000 A 
ATOM      7  C   UNL     1       3.370   5.176  17.927  0.00  0.00    +0.000 A 
ATOM      8  C   UNL     1       3.792   3.806  17.606  0.00  0.00    +0.000 A 
ATOM      9  O   UNL     1       4.566   3.582  16.682  0.00  0.00    +0.000 OA
ATOM     10  N   UNL     1       3.262   2.786  18.389  0.00  0.00    +0.000 N 
ATOM     11  C   UNL     1       3.690   1.421  18.129  0.00  0.00    +0.000 C 
ATOM     12  C   UNL     1       2.306   2.959  19.376  0.00  0.00    +0.000 A 
ATOM     13  O   UNL     1       1.861   2.003  20.014  0.00  0.00    +0.000 OA
ATOM     14  N   UNL     1       1.878   4.251  19.596  0.00  0.00    +0.000 N 
ATOM     15  C   UNL     1       0.873   4.512  20.618  0.00  0.00    +0.000 C 
ENDROOT
BRANCH   1  16
ATOM     16  S   UNL     1       5.134   6.402  16.088  0.00  0.00    +0.000 S 
BRANCH  16  17
ATOM     17  C   UNL     1       6.615   6.487  17.148  0.00  0.00    +0.000 C 
BRANCH  17  19
ATOM     18  C   UNL     1       7.305   4.676  15.535  0.00  0.00    +0.000 C 
ATOM     19  C   UNL     1       7.465   5.235  16.942  0.00  0.00    +0.000 C 
ENDBRANCH  17  19
ENDBRANCH  16  17
ENDBRANCH   1  16
TORSDOF 3
ENDMDL
MODEL 8
REMARK VINA RESULT:      -5.6      2.455      4.716
REMARK  Name = 
REMARK  7 active torsions:
REMARK  status: ('A' for Active; 'I' for Inactive)
REMARK    1  A    between atoms: C_1  and  C_2
REMARK    2  A    between atoms: C_2  and  C_3
REMARK    3  A    between atoms: C_3  and  S_4
REMARK    4  A    between atoms: S_4  and  C_5
REMARK    5  A    between atoms: C_7  and  C_8
REMARK    6  A    between atoms: N_14  and  C_15
REMARK    7  A    between atoms: N_18  and  C_19
REMARK                            x       y       z     vdW  Elec       q    Type
REMARK                         _______ _______ _______ _____ _____    ______ ____
ROOT
ATOM      1  C   UNL     1       2.727   4.858  20.335  0.00  0.00    +0.000 A 
ATOM      2  N   UNL     1       1.870   5.669  21.000  0.00  0.00    +0.000 NA
ATOM      3  C   UNL     1       1.720   6.918  20.551  0.00  0.00    +0.000 A 
ATOM      4  C   UNL     1       0.823   7.837  21.319  0.00  0.00    +0.000 C 
ATOM      5  N   UNL     1       2.329   7.396  19.460  0.00  0.00    +0.000 NA
ATOM      6  C   UNL     1       3.176   6.572  18.803  0.00  0.00    +0.000 A 
ATOM      7  C   UNL     1       3.437   5.285  19.221  0.00  0.00    +0.000 A 
ATOM      8  C   UNL     1       4.417   4.487  18.471  0.00  0.00    +0.000 A 
ATOM      9  O   UNL     1       4.768   3.382  18.867  0.00  0.00    +0.000 OA
ATOM     10  N   UNL     1       4.930   5.053  17.309  0.00  0.00    +0.000 N 
ATOM     11  C   UNL     1       5.869   4.275  16.518  0.00  0.00    +0.000 C 
ATOM     12  C   UNL     1       4.657   6.337  16.864  0.00  0.00    +0.000 A 
ATOM     13  O   UNL     1       5.169   6.782  15.836  0.00  0.00    +0.000 OA
ATOM     14  N   UNL     1       3.791   7.082  17.636  0.00  0.00    +0.000 N 
ATOM     15  C   UNL     1       3.457   8.442  17.233  0.00  0.00    +0.000 C 
ENDROOT
BRANCH   1  16
ATOM     16  S   UNL     1       2.848   3.241  21.086  0.00  0.00    +0.000 S 
BRANCH  16  17
ATOM     17  C   UNL     1       1.122   2.685  20.898  0.00  0.00    +0.000 C 
BRANCH  17  19
ATOM     18  C   UNL     1       1.604   1.960  18.532  0.00  0.00    +0.000 C 
ATOM     19  C   UNL     1       0.704   2.795  19.432  0.00  0.00    +0.000 C 
ENDBRANCH  17  19
ENDBRANCH  16  17
ENDBRANCH   1  16
TORSDOF 3
ENDMDL
MODEL 9
REMARK VINA RESULT:      -5.5      2.461      4.324
REMARK  Name = 
REMARK  7 active torsions:
REMARK  status: ('A' for Active; 'I' for Inactive)
REMARK    1  A    between atoms: C_1  and  C_2
REMARK    2  A    between atoms: C_2  and  C_3
REMARK    3  A    between atoms: C_3  and  S_4
REMARK    4  A    between atoms: S_4  and  C_5
REMARK    5  A    between atoms: C_7  and  C_8
REMARK    6  A    between atoms: N_14  and  C_15
REMARK    7  A    between atoms: N_18  and  C_19
REMARK                            x       y       z     vdW  Elec       q    Type
REMARK                         _______ _______ _______ _____ _____    ______ ____
ROOT
ATOM      1  C   UNL     1       4.266   4.636  17.150  0.00  0.00    +0.000 A 
ATOM      2  N   UNL     1       4.437   3.293  17.192  0.00  0.00    +0.000 NA
ATOM      3  C   UNL     1       3.853   2.622  18.188  0.00  0.00    +0.000 A 
ATOM      4  C   UNL     1       4.090   1.148  18.275  0.00  0.00    +0.000 C 
ATOM      5  N   UNL     1       3.075   3.192  19.115  0.00  0.00    +0.000 NA
ATOM      6  C   UNL     1       2.908   4.533  19.055  0.00  0.00    +0.000 A 
ATOM      7  C   UNL     1       3.514   5.317  18.097  0.00  0.00    +0.000 A 
ATOM      8  C   UNL     1       3.317   6.771  18.152  0.00  0.00    +0.000 A 
ATOM      9  O   UNL     1       3.923   7.521  17.394  0.00  0.00    +0.000 OA
ATOM     10  N   UNL     1       2.426   7.249  19.106  0.00  0.00    +0.000 N 
ATOM     11  C   UNL     1       2.173   8.680  19.161  0.00  0.00    +0.000 C 
ATOM     12  C   UNL     1       1.791   6.469  20.060  0.00  0.00    +0.000 A 
ATOM     13  O   UNL     1       1.032   6.966  20.894  0.00  0.00    +0.000 OA
ATOM     14  N   UNL     1       2.061   5.118  20.025  0.00  0.00    +0.000 N 
ATOM     15  C   UNL     1       1.431   4.233  20.997  0.00  0.00    +0.000 C 
ENDROOT
BRANCH   1  16
ATOM     16  S   UNL     1       5.146   5.387  15.788  0.00  0.00    +0.000 S 
BRANCH  16  17
ATOM     17  C   UNL     1       5.870   3.895  15.031  0.00  0.00    +0.000 C 
BRANCH  17  19
ATOM     18  C   UNL     1       6.046   3.403  12.565  0.00  0.00    +0.000 C 
ATOM     19  C   UNL     1       6.549   4.266  13.713  0.00  0.00    +0.000 C 
ENDBRANCH  17  19
ENDBRANCH  16  17
ENDBRANCH   1  16
TORSDOF 3
ENDMDL
