MODEL 1
REMARK VINA RESULT:      -7.6      0.000      0.000
REMARK  Name = 
REMARK  11 active torsions:
REMARK  status: ('A' for Active; 'I' for Inactive)
REMARK    1  A    between atoms: C_1  and  C_2
REMARK    2  A    between atoms: C_4  and  C_5
REMARK    3  A    between atoms: C_6  and  N_7
REMARK    4  A    between atoms: N_10  and  C_11
REMARK    5  A    between atoms: C_11  and  C_12
REMARK    6  A    between atoms: C_11  and  C_16
REMARK    7  A    between atoms: C_12  and  C_13
REMARK    8  A    between atoms: C_13  and  C_14
REMARK    9  A    between atoms: C_13  and  C_15
REMARK   10  A    between atoms: N_18  and  O_19
REMARK   11  A    between atoms: C_20  and  C_21
REMARK                            x       y       z     vdW  Elec       q    Type
REMARK                         _______ _______ _______ _____ _____    ______ ____
ROOT
ATOM      1  N   UNL     1       3.630   3.988  16.739  0.00  0.00    +0.000 N 
ATOM      2  C   UNL     1       4.953   3.884  16.356  0.00  0.00    +0.000 C 
ATOM      3  O   UNL     1       5.894   3.541  17.063  0.00  0.00    +0.000 OA
ATOM      4  N   UNL     1       5.113   4.240  15.035  0.00  0.00    +0.000 N 
ATOM      5  H   UNL     1       3.132   4.692  16.218  0.00  0.00    +0.000 HD
ATOM      6  H   UNL     1       4.310   4.535  14.493  0.00  0.00    +0.000 HD
ENDROOT
BRANCH   1  12
ATOM      7  C   UNL     1       1.433   3.149  21.995  0.00  0.00    +0.000 C 
ATOM      8  C   UNL     1       2.030   3.366  20.635  0.00  0.00    +0.000 A 
ATOM      9  C   UNL     1       1.977   4.614  20.016  0.00  0.00    +0.000 A 
ATOM     10  C   UNL     1       2.520   4.813  18.733  0.00  0.00    +0.000 A 
ATOM     11  C   UNL     1       2.450   6.199  18.145  0.00  0.00    +0.000 C 
ATOM     12  C   UNL     1       3.135   3.736  18.047  0.00  0.00    +0.000 A 
ATOM     13  C   UNL     1       3.153   2.460  18.650  0.00  0.00    +0.000 A 
ATOM     14  C   UNL     1       3.643   1.204  17.979  0.00  0.00    +0.000 C 
ATOM     15  C   UNL     1       2.616   2.302  19.945  0.00  0.00    +0.000 A 
ENDBRANCH   1  12
BRANCH   4  16
ATOM     16  C   UNL     1       6.377   4.126  14.319  0.00  0.00    +0.000 C 
BRANCH  16  17
ATOM     17  C   UNL     1       7.292   5.298  14.719  0.00  0.00    +0.000 C 
ATOM     18  O   UNL     1       8.225   5.700  14.014  0.00  0.00    +0.000 OA
ATOM     19  N   UNL     1       7.013   5.876  15.938  0.00  0.00    +0.000 N 
ATOM     20  H   UNL     1       6.441   5.442  16.656  0.00  0.00    +0.000 HD
BRANCH  19  21
ATOM     21  O   UNL     1       7.918   6.869  16.382  0.00  0.00    +0.000 OA
ATOM     22  H   UNL     1       7.322   7.541  16.779  0.00  0.00    +0.000 HD
ENDBRANCH  19  21
ENDBRANCH  16  17
BRANCH  16  23
ATOM     23  C   UNL     1       6.197   4.044  12.787  0.00  0.00    +0.000 C 
BRANCH  23  24
ATOM     24  C   UNL     1       5.424   2.820  12.241  0.00  0.00    +0.000 C 
ATOM     25  C   UNL     1       4.254   3.299  11.372  0.00  0.00    +0.000 C 
ATOM     26  C   UNL     1       6.285   1.868  11.411  0.00  0.00    +0.000 C 
ENDBRANCH  23  24
ENDBRANCH  16  23
ENDBRANCH   4  16
TORSDOF 6
ENDMDL
MODEL 2
REMARK VINA RESULT:      -7.6      0.939      1.146
REMARK  Name = 
REMARK  11 active torsions:
REMARK  status: ('A' for Active; 'I' for Inactive)
REMARK    1  A    between atoms: C_1  and  C_2
REMARK    2  A    between atoms: C_4  and  C_5
REMARK    3  A    between atoms: C_6  and  N_7
REMARK    4  A    between atoms: N_10  and  C_11
REMARK    5  A    between atoms: C_11  and  C_12
REMARK    6  A    between atoms: C_11  and  C_16
REMARK    7  A    between atoms: C_12  and  C_13
REMARK    8  A    between atoms: C_13  and  C_14
REMARK    9  A    between atoms: C_13  and  C_15
REMARK   10  A    between atoms: N_18  and  O_19
REMARK   11  A    between atoms: C_20  and  C_21
REMARK                            x       y       z     vdW  Elec       q    Type
REMARK                         _______ _______ _______ _____ _____    ______ ____
ROOT
ATOM      1  N   UNL     1       3.892   4.299  16.584  0.00  0.00    +0.000 N 
ATOM      2  C   UNL     1       5.140   3.984  16.084  0.00  0.00    +0.000 C 
ATOM      3  O   UNL     1       6.061   3.454  16.696  0.00  0.00    +0.000 OA
ATOM      4  N   UNL     1       5.251   4.363  14.765  0.00  0.00    +0.000 N 
ATOM      5  H   UNL     1       3.484   5.100  16.129  0.00  0.00    +0.000 HD
ATOM      6  H   UNL     1       4.471   4.815  14.304  0.00  0.00    +0.000 HD
ENDROOT
BRANCH   1  12
ATOM      7  C   UNL     1       2.017   3.629  21.987  0.00  0.00    +0.000 C 
ATOM      8  C   UNL     1       2.531   3.797  20.587  0.00  0.00    +0.000 A 
ATOM      9  C   UNL     1       2.641   5.060  20.007  0.00  0.00    +0.000 A 
ATOM     10  C   UNL     1       3.105   5.217  18.688  0.00  0.00    +0.000 A 
ATOM     11  C   UNL     1       3.225   6.617  18.145  0.00  0.00    +0.000 C 
ATOM     12  C   UNL     1       3.468   4.081  17.923  0.00  0.00    +0.000 A 
ATOM     13  C   UNL     1       3.318   2.797  18.489  0.00  0.00    +0.000 A 
ATOM     14  C   UNL     1       3.530   1.504  17.746  0.00  0.00    +0.000 C 
ATOM     15  C   UNL     1       2.868   2.678  19.821  0.00  0.00    +0.000 A 
ENDBRANCH   1  12
BRANCH   4  16
ATOM     16  C   UNL     1       6.413   4.063  13.937  0.00  0.00    +0.000 C 
BRANCH  16  17
ATOM     17  C   UNL     1       7.494   5.134  14.175  0.00  0.00    +0.000 C 
ATOM     18  O   UNL     1       7.612   5.751  15.240  0.00  0.00    +0.000 OA
ATOM     19  N   UNL     1       8.330   5.378  13.108  0.00  0.00    +0.000 N 
ATOM     20  H   UNL     1       8.131   5.096  12.154  0.00  0.00    +0.000 HD
BRANCH  19  21
ATOM     21  O   UNL     1       9.247   6.445  13.262  0.00  0.00    +0.000 OA
ATOM     22  H   UNL     1       9.881   6.291  12.528  0.00  0.00    +0.000 HD
ENDBRANCH  19  21
ENDBRANCH  16  17
BRANCH  16  23
ATOM     23  C   UNL     1       6.067   3.930  12.437  0.00  0.00    +0.000 C 
BRANCH  23  24
ATOM     24  C   UNL     1       5.217   2.704  12.025  0.00  0.00    +0.000 C 
ATOM     25  C   UNL     1       4.075   3.159  11.108  0.00  0.00    +0.000 C 
ATOM     26  C   UNL     1       6.014   1.617  11.303  0.00  0.00    +0.000 C 
ENDBRANCH  23  24
ENDBRANCH  16  23
ENDBRANCH   4  16
TORSDOF 6
ENDMDL
MODEL 3
REMARK VINA RESULT:      -7.5      0.151      1.863
REMARK  Name = 
REMARK  11 active torsions:
REMARK  status: ('A' for Active; 'I' for Inactive)
REMARK    1  A    between atoms: C_1  and  C_2
REMARK    2  A    between atoms: C_4  and  C_5
REMARK    3  A    between atoms: C_6  and  N_7
REMARK    4  A    between atoms: N_10  and  C_11
REMARK    5  A    between atoms: C_11  and  C_12
REMARK    6  A    between atoms: C_11  and  C_16
REMARK    7  A    between atoms: C_12  and  C_13
REMARK    8  A    between atoms: C_13  and  C_14
REMARK    9  A    between atoms: C_13  and  C_15
REMARK   10  A    between atoms: N_18  and  O_19
REMARK   11  A    between atoms: C_20  and  C_21
REMARK                            x       y       z     vdW  Elec       q    Type
REMARK                         _______ _______ _______ _____ _____    ______ ____
ROOT
ATOM      1  N   UNL     1       3.568   4.067  16.643  0.00  0.00    +0.000 N 
ATOM      2  C   UNL     1       4.909   3.961  16.329  0.00  0.00    +0.000 C 
ATOM      3  O   UNL     1       5.820   3.678  17.099  0.00  0.00    +0.000 OA
ATOM      4  N   UNL     1       5.125   4.238  14.997  0.00  0.00    +0.000 N 
ATOM      5  H   UNL     1       3.085   4.729  16.057  0.00  0.00    +0.000 HD
ATOM      6  H   UNL     1       4.345   4.485  14.402  0.00  0.00    +0.000 HD
ENDROOT
BRANCH   1  12
ATOM      7  C   UNL     1       1.504   3.143  21.939  0.00  0.00    +0.000 C 
ATOM      8  C   UNL     1       2.017   3.387  20.550  0.00  0.00    +0.000 A 
ATOM      9  C   UNL     1       2.537   2.347  19.780  0.00  0.00    +0.000 A 
ATOM     10  C   UNL     1       3.035   2.580  18.485  0.00  0.00    +0.000 A 
ATOM     11  C   UNL     1       3.553   1.398  17.706  0.00  0.00    +0.000 C 
ATOM     12  C   UNL     1       3.015   3.887  17.940  0.00  0.00    +0.000 A 
ATOM     13  C   UNL     1       2.530   4.952  18.730  0.00  0.00    +0.000 A 
ATOM     14  C   UNL     1       2.581   6.404  18.333  0.00  0.00    +0.000 C 
ATOM     15  C   UNL     1       2.021   4.679  20.017  0.00  0.00    +0.000 A 
ENDBRANCH   1  12
BRANCH   4  16
ATOM     16  C   UNL     1       6.424   4.101  14.348  0.00  0.00    +0.000 C 
BRANCH  16  17
ATOM     17  C   UNL     1       7.317   5.289  14.750  0.00  0.00    +0.000 C 
ATOM     18  O   UNL     1       8.254   5.697  14.054  0.00  0.00    +0.000 OA
ATOM     19  N   UNL     1       7.012   5.876  15.959  0.00  0.00    +0.000 N 
ATOM     20  H   UNL     1       6.436   5.442  16.672  0.00  0.00    +0.000 HD
BRANCH  19  21
ATOM     21  O   UNL     1       7.897   6.886  16.405  0.00  0.00    +0.000 OA
ATOM     22  H   UNL     1       7.664   6.971  17.356  0.00  0.00    +0.000 HD
ENDBRANCH  19  21
ENDBRANCH  16  17
BRANCH  16  23
ATOM     23  C   UNL     1       6.319   3.963  12.813  0.00  0.00    +0.000 C 
BRANCH  23  24
ATOM     24  C   UNL     1       5.460   2.793  12.277  0.00  0.00    +0.000 C 
ATOM     25  C   UNL     1       4.289   3.351  11.457  0.00  0.00    +0.000 C 
ATOM     26  C   UNL     1       6.237   1.809  11.401  0.00  0.00    +0.000 C 
ENDBRANCH  23  24
ENDBRANCH  16  23
ENDBRANCH   4  16
TORSDOF 6
ENDMDL
MODEL 4
REMARK VINA RESULT:      -7.4      3.785      6.946
REMARK  Name = 
REMARK  11 active torsions:
REMARK  status: ('A' for Active; 'I' for Inactive)
REMARK    1  A    between atoms: C_1  and  C_2
REMARK    2  A    between atoms: C_4  and  C_5
REMARK    3  A    between atoms: C_6  and  N_7
REMARK    4  A    between atoms: N_10  and  C_11
REMARK    5  A    between atoms: C_11  and  C_12
REMARK    6  A    between atoms: C_11  and  C_16
REMARK    7  A    between atoms: C_12  and  C_13
REMARK    8  A    between atoms: C_13  and  C_14
REMARK    9  A    between atoms: C_13  and  C_15
REMARK   10  A    between atoms: N_18  and  O_19
REMARK   11  A    between atoms: C_20  and  C_21
REMARK                            x       y       z     vdW  Elec       q    Type
REMARK                         _______ _______ _______ _____ _____    ______ ____
ROOT
ATOM      1  N   UNL     1       6.225   4.871  18.231  0.00  0.00    +0.000 N 
ATOM      2  C   UNL     1       5.181   4.593  19.091  0.00  0.00    +0.000 C 
ATOM      3  O   UNL     1       4.670   5.365  19.894  0.00  0.00    +0.000 OA
ATOM      4  N   UNL     1       4.766   3.287  18.954  0.00  0.00    +0.000 N 
ATOM      5  H   UNL     1       6.783   4.058  18.025  0.00  0.00    +0.000 HD
ATOM      6  H   UNL     1       5.229   2.679  18.291  0.00  0.00    +0.000 HD
ENDROOT
BRANCH   1  12
ATOM      7  C   UNL     1       8.773  10.020  17.845  0.00  0.00    +0.000 C 
ATOM      8  C   UNL     1       8.131   8.667  17.934  0.00  0.00    +0.000 A 
ATOM      9  C   UNL     1       7.050   8.328  17.121  0.00  0.00    +0.000 A 
ATOM     10  C   UNL     1       6.435   7.066  17.218  0.00  0.00    +0.000 A 
ATOM     11  C   UNL     1       5.292   6.765  16.283  0.00  0.00    +0.000 C 
ATOM     12  C   UNL     1       6.911   6.113  18.152  0.00  0.00    +0.000 A 
ATOM     13  C   UNL     1       7.977   6.466  19.008  0.00  0.00    +0.000 A 
ATOM     14  C   UNL     1       8.487   5.609  20.136  0.00  0.00    +0.000 C 
ATOM     15  C   UNL     1       8.581   7.733  18.870  0.00  0.00    +0.000 A 
ENDBRANCH   1  12
BRANCH   4  16
ATOM     16  C   UNL     1       3.610   2.733  19.650  0.00  0.00    +0.000 C 
BRANCH  16  17
ATOM     17  C   UNL     1       4.090   1.968  20.896  0.00  0.00    +0.000 C 
ATOM     18  O   UNL     1       3.433   1.895  21.941  0.00  0.00    +0.000 OA
ATOM     19  N   UNL     1       5.325   1.366  20.782  0.00  0.00    +0.000 N 
ATOM     20  H   UNL     1       6.004   1.595  20.063  0.00  0.00    +0.000 HD
BRANCH  19  21
ATOM     21  O   UNL     1       5.840   0.766  21.955  0.00  0.00    +0.000 OA
ATOM     22  H   UNL     1       5.747   1.482  22.621  0.00  0.00    +0.000 HD
ENDBRANCH  19  21
ENDBRANCH  16  17
BRANCH  16  23
ATOM     23  C   UNL     1       2.728   1.846  18.744  0.00  0.00    +0.000 C 
BRANCH  23  24
ATOM     24  C   UNL     1       1.375   2.443  18.289  0.00  0.00    +0.000 C 
ATOM     25  C   UNL     1       0.467   2.643  19.509  0.00  0.00    +0.000 C 
ATOM     26  C   UNL     1       1.506   3.781  17.560  0.00  0.00    +0.000 C 
ENDBRANCH  23  24
ENDBRANCH  16  23
ENDBRANCH   4  16
TORSDOF 6
ENDMDL
MODEL 5
REMARK VINA RESULT:      -7.4      0.992      2.181
REMARK  Name = 
REMARK  11 active torsions:
REMARK  status: ('A' for Active; 'I' for Inactive)
REMARK    1  A    between atoms: C_1  and  C_2
REMARK    2  A    between atoms: C_4  and  C_5
REMARK    3  A    between atoms: C_6  and  N_7
REMARK    4  A    between atoms: N_10  and  C_11
REMARK    5  A    between atoms: C_11  and  C_12
REMARK    6  A    between atoms: C_11  and  C_16
REMARK    7  A    between atoms: C_12  and  C_13
REMARK    8  A    between atoms: C_13  and  C_14
REMARK    9  A    between atoms: C_13  and  C_15
REMARK   10  A    between atoms: N_18  and  O_19
REMARK   11  A    between atoms: C_20  and  C_21
REMARK                            x       y       z     vdW  Elec       q    Type
REMARK                         _______ _______ _______ _____ _____    ______ ____
ROOT
ATOM      1  N   UNL     1       3.838   4.309  16.435  0.00  0.00    +0.000 N 
ATOM      2  C   UNL     1       5.130   4.052  16.020  0.00  0.00    +0.000 C 
ATOM      3  O   UNL     1       6.064   3.683  16.723  0.00  0.00    +0.000 OA
ATOM      4  N   UNL     1       5.268   4.282  14.669  0.00  0.00    +0.000 N 
ATOM      5  H   UNL     1       3.384   5.011  15.873  0.00  0.00    +0.000 HD
ATOM      6  H   UNL     1       4.473   4.604  14.130  0.00  0.00    +0.000 HD
ENDROOT
BRANCH   1  12
ATOM      7  C   UNL     1       2.103   3.690  21.890  0.00  0.00    +0.000 C 
ATOM      8  C   UNL     1       2.530   3.860  20.462  0.00  0.00    +0.000 A 
ATOM      9  C   UNL     1       2.787   2.755  19.651  0.00  0.00    +0.000 A 
ATOM     10  C   UNL     1       3.206   2.914  18.317  0.00  0.00    +0.000 A 
ATOM     11  C   UNL     1       3.434   1.670  17.497  0.00  0.00    +0.000 C 
ATOM     12  C   UNL     1       3.375   4.212  17.775  0.00  0.00    +0.000 A 
ATOM     13  C   UNL     1       3.159   5.334  18.604  0.00  0.00    +0.000 A 
ATOM     14  C   UNL     1       3.436   6.759  18.203  0.00  0.00    +0.000 C 
ATOM     15  C   UNL     1       2.721   5.138  19.930  0.00  0.00    +0.000 A 
ENDBRANCH   1  12
BRANCH   4  16
ATOM     16  C   UNL     1       6.487   3.993  13.924  0.00  0.00    +0.000 C 
BRANCH  16  17
ATOM     17  C   UNL     1       7.507   5.121  14.169  0.00  0.00    +0.000 C 
ATOM     18  O   UNL     1       7.533   5.798  15.203  0.00  0.00    +0.000 OA
ATOM     19  N   UNL     1       8.400   5.344  13.143  0.00  0.00    +0.000 N 
ATOM     20  H   UNL     1       8.273   5.004  12.195  0.00  0.00    +0.000 HD
BRANCH  19  21
ATOM     21  O   UNL     1       9.262   6.456  13.293  0.00  0.00    +0.000 OA
ATOM     22  H   UNL     1       9.096   6.732  14.221  0.00  0.00    +0.000 HD
ENDBRANCH  19  21
ENDBRANCH  16  17
BRANCH  16  23
ATOM     23  C   UNL     1       6.235   3.774  12.416  0.00  0.00    +0.000 C 
BRANCH  23  24
ATOM     24  C   UNL     1       5.280   2.619  12.031  0.00  0.00    +0.000 C 
ATOM     25  C   UNL     1       4.122   3.170  11.189  0.00  0.00    +0.000 C 
ATOM     26  C   UNL     1       5.957   1.495  11.245  0.00  0.00    +0.000 C 
ENDBRANCH  23  24
ENDBRANCH  16  23
ENDBRANCH   4  16
TORSDOF 6
ENDMDL
MODEL 6
REMARK VINA RESULT:      -7.3      3.823      7.048
REMARK  Name = 
REMARK  11 active torsions:
REMARK  status: ('A' for Active; 'I' for Inactive)
REMARK    1  A    between atoms: C_1  and  C_2
REMARK    2  A    between atoms: C_4  and  C_5
REMARK    3  A    between atoms: C_6  and  N_7
REMARK    4  A    between atoms: N_10  and  C_11
REMARK    5  A    between atoms: C_11  and  C_12
REMARK    6  A    between atoms: C_11  and  C_16
REMARK    7  A    between atoms: C_12  and  C_13
REMARK    8  A    between atoms: C_13  and  C_14
REMARK    9  A    between atoms: C_13  and  C_15
REMARK   10  A    between atoms: N_18  and  O_19
REMARK   11  A    between atoms: C_20  and  C_21
REMARK                            x       y       z     vdW  Elec       q    Type
REMARK                         _______ _______ _______ _____ _____    ______ ____
ROOT
ATOM      1  N   UNL     1       6.272   4.896  18.364  0.00  0.00    +0.000 N 
ATOM      2  C   UNL     1       5.155   4.612  19.125  0.00  0.00    +0.000 C 
ATOM      3  O   UNL     1       4.478   5.414  19.759  0.00  0.00    +0.000 OA
ATOM      4  N   UNL     1       4.879   3.262  19.109  0.00  0.00    +0.000 N 
ATOM      5  H   UNL     1       6.921   4.127  18.329  0.00  0.00    +0.000 HD
ATOM      6  H   UNL     1       5.475   2.633  18.586  0.00  0.00    +0.000 HD
ENDROOT
BRANCH   1  12
ATOM      7  C   UNL     1       8.843  10.016  17.797  0.00  0.00    +0.000 C 
ATOM      8  C   UNL     1       8.152   8.694  17.956  0.00  0.00    +0.000 A 
ATOM      9  C   UNL     1       8.591   7.760  18.893  0.00  0.00    +0.000 A 
ATOM     10  C   UNL     1       7.955   6.513  19.029  0.00  0.00    +0.000 A 
ATOM     11  C   UNL     1       8.470   5.570  20.087  0.00  0.00    +0.000 C 
ATOM     12  C   UNL     1       6.848   6.186  18.207  0.00  0.00    +0.000 A 
ATOM     13  C   UNL     1       6.426   7.109  17.227  0.00  0.00    +0.000 A 
ATOM     14  C   UNL     1       5.362   6.837  16.197  0.00  0.00    +0.000 C 
ATOM     15  C   UNL     1       7.075   8.358  17.131  0.00  0.00    +0.000 A 
ENDBRANCH   1  12
BRANCH   4  16
ATOM     16  C   UNL     1       3.698   2.676  19.731  0.00  0.00    +0.000 C 
BRANCH  16  17
ATOM     17  C   UNL     1       4.123   1.910  20.998  0.00  0.00    +0.000 C 
ATOM     18  O   UNL     1       3.415   1.828  22.008  0.00  0.00    +0.000 OA
ATOM     19  N   UNL     1       5.367   1.321  20.944  0.00  0.00    +0.000 N 
ATOM     20  H   UNL     1       6.079   1.558  20.261  0.00  0.00    +0.000 HD
BRANCH  19  21
ATOM     21  O   UNL     1       5.829   0.721  22.139  0.00  0.00    +0.000 OA
ATOM     22  H   UNL     1       5.588  -0.223  22.013  0.00  0.00    +0.000 HD
ENDBRANCH  19  21
ENDBRANCH  16  17
BRANCH  16  23
ATOM     23  C   UNL     1       2.893   1.776  18.768  0.00  0.00    +0.000 C 
BRANCH  23  24
ATOM     24  C   UNL     1       1.564   2.352  18.223  0.00  0.00    +0.000 C 
ATOM     25  C   UNL     1       0.595   2.593  19.388  0.00  0.00    +0.000 C 
ATOM     26  C   UNL     1       1.731   3.663  17.454  0.00  0.00    +0.000 C 
ENDBRANCH  23  24
ENDBRANCH  16  23
ENDBRANCH   4  16
TORSDOF 6
ENDMDL
MODEL 7
REMARK VINA RESULT:      -7.2      3.834      6.425
REMARK  Name = 
REMARK  11 active torsions:
REMARK  status: ('A' for Active; 'I' for Inactive)
REMARK    1  A    between atoms: C_1  and  C_2
REMARK    2  A    between atoms: C_4  and  C_5
REMARK    3  A    between atoms: C_6  and  N_7
REMARK    4  A    between atoms: N_10  and  C_11
REMARK    5  A    between atoms: C_11  and  C_12
REMARK    6  A    between atoms: C_11  and  C_16
REMARK    7  A    between atoms: C_12  and  C_13
REMARK    8  A    between atoms: C_13  and  C_14
REMARK    9  A    between atoms: C_13  and  C_15
REMARK   10  A    between atoms: N_18  and  O_19
REMARK   11  A    between atoms: C_20  and  C_21
REMARK                            x       y       z     vdW  Elec       q    Type
REMARK                         _______ _______ _______ _____ _____    ______ ____
ROOT
ATOM      1  N   UNL     1       2.757   6.912  19.857  0.00  0.00    +0.000 N 
ATOM      2  C   UNL     1       2.497   5.646  19.369  0.00  0.00    +0.000 C 
ATOM      3  O   UNL     1       1.575   5.323  18.628  0.00  0.00    +0.000 OA
ATOM      4  N   UNL     1       3.418   4.738  19.840  0.00  0.00    +0.000 N 
ATOM      5  H   UNL     1       3.210   6.893  20.756  0.00  0.00    +0.000 HD
ATOM      6  H   UNL     1       4.153   5.045  20.465  0.00  0.00    +0.000 HD
ENDROOT
BRANCH   1  12
ATOM      7  C   UNL     1      -0.445  11.515  18.549  0.00  0.00    +0.000 C 
ATOM      8  C   UNL     1       0.404  10.331  18.906  0.00  0.00    +0.000 A 
ATOM      9  C   UNL     1       1.294   9.778  17.985  0.00  0.00    +0.000 A 
ATOM     10  C   UNL     1       2.076   8.656  18.313  0.00  0.00    +0.000 A 
ATOM     11  C   UNL     1       3.036   8.137  17.273  0.00  0.00    +0.000 C 
ATOM     12  C   UNL     1       1.970   8.066  19.597  0.00  0.00    +0.000 A 
ATOM     13  C   UNL     1       1.041   8.594  20.519  0.00  0.00    +0.000 A 
ATOM     14  C   UNL     1       0.724   7.983  21.859  0.00  0.00    +0.000 C 
ATOM     15  C   UNL     1       0.286   9.731  20.163  0.00  0.00    +0.000 A 
ENDBRANCH   1  12
BRANCH   4  16
ATOM     16  C   UNL     1       3.466   3.345  19.412  0.00  0.00    +0.000 C 
BRANCH  16  17
ATOM     17  C   UNL     1       3.913   2.468  20.596  0.00  0.00    +0.000 C 
ATOM     18  O   UNL     1       3.239   2.322  21.622  0.00  0.00    +0.000 OA
ATOM     19  N   UNL     1       5.137   1.852  20.447  0.00  0.00    +0.000 N 
ATOM     20  H   UNL     1       5.831   2.125  19.760  0.00  0.00    +0.000 HD
BRANCH  19  21
ATOM     21  O   UNL     1       5.622   1.145  21.573  0.00  0.00    +0.000 OA
ATOM     22  H   UNL     1       5.678   0.222  21.239  0.00  0.00    +0.000 HD
ENDBRANCH  19  21
ENDBRANCH  16  17
BRANCH  16  23
ATOM     23  C   UNL     1       4.363   3.125  18.173  0.00  0.00    +0.000 C 
BRANCH  23  24
ATOM     24  C   UNL     1       4.977   4.390  17.525  0.00  0.00    +0.000 C 
ATOM     25  C   UNL     1       6.418   4.569  18.016  0.00  0.00    +0.000 C 
ATOM     26  C   UNL     1       4.987   4.354  15.996  0.00  0.00    +0.000 C 
ENDBRANCH  23  24
ENDBRANCH  16  23
ENDBRANCH   4  16
TORSDOF 6
ENDMDL
MODEL 8
REMARK VINA RESULT:      -7.2      2.170      4.055
REMARK  Name = 
REMARK  11 active torsions:
REMARK  status: ('A' for Active; 'I' for Inactive)
REMARK    1  A    between atoms: C_1  and  C_2
REMARK    2  A    between atoms: C_4  and  C_5
REMARK    3  A    between atoms: C_6  and  N_7
REMARK    4  A    between atoms: N_10  and  C_11
REMARK    5  A    between atoms: C_11  and  C_12
REMARK    6  A    between atoms: C_11  and  C_16
REMARK    7  A    between atoms: C_12  and  C_13
REMARK    8  A    between atoms: C_13  and  C_14
REMARK    9  A    between atoms: C_13  and  C_15
REMARK   10  A    between atoms: N_18  and  O_19
REMARK   11  A    between atoms: C_20  and  C_21
REMARK                            x       y       z     vdW  Elec       q    Type
REMARK                         _______ _______ _______ _____ _____    ______ ____
ROOT
ATOM      1  N   UNL     1       4.255   3.009  18.046  0.00  0.00    +0.000 N 
ATOM      2  C   UNL     1       4.768   4.216  17.613  0.00  0.00    +0.000 C 
ATOM      3  O   UNL     1       4.535   5.322  18.088  0.00  0.00    +0.000 OA
ATOM      4  N   UNL     1       5.595   4.038  16.527  0.00  0.00    +0.000 N 
ATOM      5  H   UNL     1       4.170   2.336  17.301  0.00  0.00    +0.000 HD
ATOM      6  H   UNL     1       5.745   3.108  16.155  0.00  0.00    +0.000 HD
ENDROOT
BRANCH   1  12
ATOM      7  C   UNL     1       0.729   2.403  22.557  0.00  0.00    +0.000 C 
ATOM      8  C   UNL     1       1.635   2.540  21.369  0.00  0.00    +0.000 A 
ATOM      9  C   UNL     1       2.977   2.169  21.440  0.00  0.00    +0.000 A 
ATOM     10  C   UNL     1       3.831   2.315  20.333  0.00  0.00    +0.000 A 
ATOM     11  C   UNL     1       5.261   1.862  20.480  0.00  0.00    +0.000 C 
ATOM     12  C   UNL     1       3.335   2.848  19.117  0.00  0.00    +0.000 A 
ATOM     13  C   UNL     1       1.988   3.267  19.052  0.00  0.00    +0.000 A 
ATOM     14  C   UNL     1       1.369   3.977  17.877  0.00  0.00    +0.000 C 
ATOM     15  C   UNL     1       1.155   3.087  20.176  0.00  0.00    +0.000 A 
ENDBRANCH   1  12
BRANCH   4  16
ATOM     16  C   UNL     1       6.368   5.114  15.919  0.00  0.00    +0.000 C 
BRANCH  16  17
ATOM     17  C   UNL     1       6.800   4.688  14.504  0.00  0.00    +0.000 C 
ATOM     18  O   UNL     1       7.622   5.319  13.828  0.00  0.00    +0.000 OA
ATOM     19  N   UNL     1       6.198   3.548  14.019  0.00  0.00    +0.000 N 
ATOM     20  H   UNL     1       5.355   3.141  14.410  0.00  0.00    +0.000 HD
BRANCH  19  21
ATOM     21  O   UNL     1       6.485   3.210  12.675  0.00  0.00    +0.000 OA
ATOM     22  H   UNL     1       7.294   3.736  12.490  0.00  0.00    +0.000 HD
ENDBRANCH  19  21
ENDBRANCH  16  17
BRANCH  16  23
ATOM     23  C   UNL     1       7.578   5.546  16.776  0.00  0.00    +0.000 C 
BRANCH  23  24
ATOM     24  C   UNL     1       7.304   6.576  17.899  0.00  0.00    +0.000 C 
ATOM     25  C   UNL     1       7.887   6.059  19.220  0.00  0.00    +0.000 C 
ATOM     26  C   UNL     1       7.890   7.961  17.620  0.00  0.00    +0.000 C 
ENDBRANCH  23  24
ENDBRANCH  16  23
ENDBRANCH   4  16
TORSDOF 6
ENDMDL
MODEL 9
REMARK VINA RESULT:      -7.1      3.872      6.448
REMARK  Name = 
REMARK  11 active torsions:
REMARK  status: ('A' for Active; 'I' for Inactive)
REMARK    1  A    between atoms: C_1  and  C_2
REMARK    2  A    between atoms: C_4  and  C_5
REMARK    3  A    between atoms: C_6  and  N_7
REMARK    4  A    between atoms: N_10  and  C_11
REMARK    5  A    between atoms: C_11  and  C_12
REMARK    6  A    between atoms: C_11  and  C_16
REMARK    7  A    between atoms: C_12  and  C_13
REMARK    8  A    between atoms: C_13  and  C_14
REMARK    9  A    between atoms: C_13  and  C_15
REMARK   10  A    between atoms: N_18  and  O_19
REMARK   11  A    between atoms: C_20  and  C_21
REMARK                            x       y       z     vdW  Elec       q    Type
REMARK                         _______ _______ _______ _____ _____    ______ ____
ROOT
ATOM      1  N   UNL     1       2.315   7.401  20.066  0.00  0.00    +0.000 N 
ATOM      2  C   UNL     1       2.426   6.272  19.277  0.00  0.00    +0.000 C 
ATOM      3  O   UNL     1       1.822   6.047  18.234  0.00  0.00    +0.000 OA
ATOM      4  N   UNL     1       3.318   5.376  19.823  0.00  0.00    +0.000 N 
ATOM      5  H   UNL     1       2.491   7.210  21.039  0.00  0.00    +0.000 HD
ATOM      6  H   UNL     1       3.781   5.596  20.696  0.00  0.00    +0.000 HD
ENDROOT
BRANCH   1  12
ATOM      7  C   UNL     1      -1.200  11.894  19.284  0.00  0.00    +0.000 C 
ATOM      8  C   UNL     1      -0.298  10.709  19.469  0.00  0.00    +0.000 A 
ATOM      9  C   UNL     1      -0.334   9.953  20.640  0.00  0.00    +0.000 A 
ATOM     10  C   UNL     1       0.524   8.853  20.823  0.00  0.00    +0.000 A 
ATOM     11  C   UNL     1       0.402   8.068  22.103  0.00  0.00    +0.000 C 
ATOM     12  C   UNL     1       1.447   8.496  19.808  0.00  0.00    +0.000 A 
ATOM     13  C   UNL     1       1.519   9.284  18.639  0.00  0.00    +0.000 A 
ATOM     14  C   UNL     1       2.543   9.106  17.549  0.00  0.00    +0.000 C 
ATOM     15  C   UNL     1       0.630  10.368  18.482  0.00  0.00    +0.000 A 
ENDBRANCH   1  12
BRANCH   4  16
ATOM     16  C   UNL     1       3.725   4.142  19.162  0.00  0.00    +0.000 C 
BRANCH  16  17
ATOM     17  C   UNL     1       3.909   3.039  20.220  0.00  0.00    +0.000 C 
ATOM     18  O   UNL     1       3.076   2.801  21.102  0.00  0.00    +0.000 OA
ATOM     19  N   UNL     1       5.085   2.326  20.133  0.00  0.00    +0.000 N 
ATOM     20  H   UNL     1       5.897   2.632  19.607  0.00  0.00    +0.000 HD
BRANCH  19  21
ATOM     21  O   UNL     1       5.331   1.395  21.170  0.00  0.00    +0.000 OA
ATOM     22  H   UNL     1       5.018   0.550  20.779  0.00  0.00    +0.000 HD
ENDBRANCH  19  21
ENDBRANCH  16  17
BRANCH  16  23
ATOM     23  C   UNL     1       4.991   4.313  18.293  0.00  0.00    +0.000 C 
BRANCH  23  24
ATOM     24  C   UNL     1       4.770   4.622  16.793  0.00  0.00    +0.000 C 
ATOM     25  C   UNL     1       4.983   6.120  16.543  0.00  0.00    +0.000 C 
ATOM     26  C   UNL     1       5.696   3.839  15.861  0.00  0.00    +0.000 C 
ENDBRANCH  23  24
ENDBRANCH  16  23
ENDBRANCH   4  16
TORSDOF 6
ENDMDL
