MODEL 1
REMARK VINA RESULT:      -7.2      0.000      0.000
REMARK  Name = 
REMARK  5 active torsions:
REMARK  status: ('A' for Active; 'I' for Inactive)
REMARK    1  A    between atoms: C_1  and  O_2
REMARK    2  A    between atoms: O_2  and  C_3
REMARK    3  A    between atoms: C_7  and  C_8
REMARK    4  A    between atoms: N_10  and  C_11
REMARK    5  A    between atoms: C_15  and  C_16
REMARK                            x       y       z     vdW  Elec       q    Type
REMARK                         _______ _______ _______ _____ _____    ______ ____
ROOT
ATOM      1  C   UNL     1       3.710   3.890  17.120  0.00  0.00    +0.000 A 
ATOM      2  S   UNL     1       3.010   2.415  17.608  0.00  0.00    +0.000 S 
ATOM      3  C   UNL     1       2.514   3.043  19.094  0.00  0.00    +0.000 A 
ATOM      4  C   UNL     1       2.843   4.375  19.240  0.00  0.00    +0.000 A 
ATOM      5  C   UNL     1       3.534   4.895  18.072  0.00  0.00    +0.000 A 
ATOM      6  C   UNL     1       2.463   5.127  20.489  0.00  0.00    +0.000 C 
ATOM      7  C   UNL     1       2.190   4.172  21.661  0.00  0.00    +0.000 C 
ATOM      8  C   UNL     1       1.256   3.028  21.254  0.00  0.00    +0.000 C 
ATOM      9  C   UNL     1       1.849   2.180  20.121  0.00  0.00    +0.000 C 
ENDROOT
BRANCH   5  10
ATOM     10  C   UNL     1       3.998   6.273  17.942  0.00  0.00    +0.000 C 
ATOM     11  N   UNL     1       5.347   6.482  18.118  0.00  0.00    +0.000 N 
ATOM     12  O   UNL     1       3.280   7.222  17.642  0.00  0.00    +0.000 OA
ATOM     13  H   UNL     1       5.976   5.718  17.900  0.00  0.00    +0.000 HD
ATOM     14  H   UNL     1       5.646   7.404  17.822  0.00  0.00    +0.000 HD
ENDBRANCH   5  10
BRANCH   1  17
ATOM     15  C   UNL     1       5.788   4.109  15.789  0.00  0.00    +0.000 C 
ATOM     16  O   UNL     1       6.622   4.135  16.687  0.00  0.00    +0.000 OA
ATOM     17  N   UNL     1       4.412   3.963  15.917  0.00  0.00    +0.000 N 
ATOM     18  H   UNL     1       3.861   3.814  15.083  0.00  0.00    +0.000 HD
BRANCH  15  23
ATOM     19  C   UNL     1       6.384   3.351  12.105  0.00  0.00    +0.000 A 
ATOM     20  C   UNL     1       7.364   4.307  11.818  0.00  0.00    +0.000 A 
ATOM     21  C   UNL     1       7.806   5.193  12.799  0.00  0.00    +0.000 A 
ATOM     22  C   UNL     1       7.276   5.112  14.084  0.00  0.00    +0.000 A 
ATOM     23  C   UNL     1       6.307   4.145  14.392  0.00  0.00    +0.000 A 
ATOM     24  C   UNL     1       5.845   3.277  13.394  0.00  0.00    +0.000 A 
BRANCH  19  26
ATOM     25  C   UNL     1       6.459   1.188  11.119  0.00  0.00    +0.000 C 
ATOM     26  O   UNL     1       6.051   2.548  11.049  0.00  0.00    +0.000 OA
ENDBRANCH  19  26
ENDBRANCH  15  23
ENDBRANCH   1  17
TORSDOF 4
ENDMDL
MODEL 2
REMARK VINA RESULT:      -7.2      4.676      6.772
REMARK  Name = 
REMARK  5 active torsions:
REMARK  status: ('A' for Active; 'I' for Inactive)
REMARK    1  A    between atoms: C_1  and  O_2
REMARK    2  A    between atoms: O_2  and  C_3
REMARK    3  A    between atoms: C_7  and  C_8
REMARK    4  A    between atoms: N_10  and  C_11
REMARK    5  A    between atoms: C_15  and  C_16
REMARK                            x       y       z     vdW  Elec       q    Type
REMARK                         _______ _______ _______ _____ _____    ______ ____
ROOT
ATOM      1  C   UNL     1       1.419   8.409  20.179  0.00  0.00    +0.000 A 
ATOM      2  S   UNL     1       1.062   8.230  21.836  0.00  0.00    +0.000 S 
ATOM      3  C   UNL     1       0.147   9.649  21.880  0.00  0.00    +0.000 A 
ATOM      4  C   UNL     1       0.074  10.268  20.648  0.00  0.00    +0.000 A 
ATOM      5  C   UNL     1       0.806   9.536  19.628  0.00  0.00    +0.000 A 
ATOM      6  C   UNL     1      -0.719  11.536  20.473  0.00  0.00    +0.000 C 
ATOM      7  C   UNL     1      -0.941  12.253  21.814  0.00  0.00    +0.000 C 
ATOM      8  C   UNL     1      -1.441  11.290  22.896  0.00  0.00    +0.000 C 
ATOM      9  C   UNL     1      -0.442  10.156  23.159  0.00  0.00    +0.000 C 
ENDROOT
BRANCH   5  10
ATOM     10  C   UNL     1       0.899   9.951  18.231  0.00  0.00    +0.000 C 
ATOM     11  N   UNL     1      -0.294  10.112  17.562  0.00  0.00    +0.000 N 
ATOM     12  O   UNL     1       1.949  10.206  17.651  0.00  0.00    +0.000 OA
ATOM     13  H   UNL     1      -1.111  10.361  18.107  0.00  0.00    +0.000 HD
ATOM     14  H   UNL     1      -0.187  10.588  16.675  0.00  0.00    +0.000 HD
ENDBRANCH   5  10
BRANCH   1  17
ATOM     15  C   UNL     1       2.324   6.141  19.761  0.00  0.00    +0.000 C 
ATOM     16  O   UNL     1       1.577   5.474  20.466  0.00  0.00    +0.000 OA
ATOM     17  N   UNL     1       2.287   7.515  19.553  0.00  0.00    +0.000 N 
ATOM     18  H   UNL     1       2.873   7.912  18.832  0.00  0.00    +0.000 HD
BRANCH  15  23
ATOM     19  C   UNL     1       5.587   4.629  18.508  0.00  0.00    +0.000 A 
ATOM     20  C   UNL     1       5.123   3.967  17.367  0.00  0.00    +0.000 A 
ATOM     21  C   UNL     1       3.772   3.996  17.024  0.00  0.00    +0.000 A 
ATOM     22  C   UNL     1       2.879   4.707  17.821  0.00  0.00    +0.000 A 
ATOM     23  C   UNL     1       3.333   5.393  18.958  0.00  0.00    +0.000 A 
ATOM     24  C   UNL     1       4.687   5.335  19.314  0.00  0.00    +0.000 A 
BRANCH  19  26
ATOM     25  C   UNL     1       7.664   5.728  18.871  0.00  0.00    +0.000 C 
ATOM     26  O   UNL     1       6.934   4.519  18.718  0.00  0.00    +0.000 OA
ENDBRANCH  19  26
ENDBRANCH  15  23
ENDBRANCH   1  17
TORSDOF 4
ENDMDL
MODEL 3
REMARK VINA RESULT:      -7.1      4.711      9.479
REMARK  Name = 
REMARK  5 active torsions:
REMARK  status: ('A' for Active; 'I' for Inactive)
REMARK    1  A    between atoms: C_1  and  O_2
REMARK    2  A    between atoms: O_2  and  C_3
REMARK    3  A    between atoms: C_7  and  C_8
REMARK    4  A    between atoms: N_10  and  C_11
REMARK    5  A    between atoms: C_15  and  C_16
REMARK                            x       y       z     vdW  Elec       q    Type
REMARK                         _______ _______ _______ _____ _____    ______ ____
ROOT
ATOM      1  C   UNL     1       2.526   7.096  19.020  0.00  0.00    +0.000 A 
ATOM      2  S   UNL     1       3.432   7.869  17.802  0.00  0.00    +0.000 S 
ATOM      3  C   UNL     1       4.065   6.412  17.230  0.00  0.00    +0.000 A 
ATOM      4  C   UNL     1       3.589   5.320  17.927  0.00  0.00    +0.000 A 
ATOM      5  C   UNL     1       2.663   5.708  18.978  0.00  0.00    +0.000 A 
ATOM      6  C   UNL     1       4.015   3.925  17.553  0.00  0.00    +0.000 C 
ATOM      7  C   UNL     1       5.325   3.932  16.749  0.00  0.00    +0.000 C 
ATOM      8  C   UNL     1       5.284   4.953  15.607  0.00  0.00    +0.000 C 
ATOM      9  C   UNL     1       5.074   6.382  16.124  0.00  0.00    +0.000 C 
ENDROOT
BRANCH   5  10
ATOM     10  C   UNL     1       1.998   4.765  19.872  0.00  0.00    +0.000 C 
ATOM     11  N   UNL     1       2.434   4.752  21.178  0.00  0.00    +0.000 N 
ATOM     12  O   UNL     1       1.063   4.039  19.546  0.00  0.00    +0.000 OA
ATOM     13  H   UNL     1       2.829   5.606  21.553  0.00  0.00    +0.000 HD
ATOM     14  H   UNL     1       1.817   4.237  21.795  0.00  0.00    +0.000 HD
ENDBRANCH   5  10
BRANCH   1  17
ATOM     15  C   UNL     1       1.077   9.002  19.660  0.00  0.00    +0.000 C 
ATOM     16  O   UNL     1       0.873   9.501  18.559  0.00  0.00    +0.000 OA
ATOM     17  N   UNL     1       1.813   7.858  19.946  0.00  0.00    +0.000 N 
ATOM     18  H   UNL     1       1.776   7.480  20.882  0.00  0.00    +0.000 HD
BRANCH  15  23
ATOM     19  C   UNL     1      -1.005  11.342  21.827  0.00  0.00    +0.000 A 
ATOM     20  C   UNL     1      -0.851  10.720  23.069  0.00  0.00    +0.000 A 
ATOM     21  C   UNL     1      -0.102   9.551  23.195  0.00  0.00    +0.000 A 
ATOM     22  C   UNL     1       0.514   9.008  22.070  0.00  0.00    +0.000 A 
ATOM     23  C   UNL     1       0.385   9.632  20.820  0.00  0.00    +0.000 A 
ATOM     24  C   UNL     1      -0.394  10.790  20.695  0.00  0.00    +0.000 A 
BRANCH  19  26
ATOM     25  C   UNL     1      -2.940  12.454  22.647  0.00  0.00    +0.000 C 
ATOM     26  O   UNL     1      -1.761  12.482  21.854  0.00  0.00    +0.000 OA
ENDBRANCH  19  26
ENDBRANCH  15  23
ENDBRANCH   1  17
TORSDOF 4
ENDMDL
MODEL 4
REMARK VINA RESULT:      -7.1      4.419      6.234
REMARK  Name = 
REMARK  5 active torsions:
REMARK  status: ('A' for Active; 'I' for Inactive)
REMARK    1  A    between atoms: C_1  and  O_2
REMARK    2  A    between atoms: O_2  and  C_3
REMARK    3  A    between atoms: C_7  and  C_8
REMARK    4  A    between atoms: N_10  and  C_11
REMARK    5  A    between atoms: C_15  and  C_16
REMARK                            x       y       z     vdW  Elec       q    Type
REMARK                         _______ _______ _______ _____ _____    ______ ____
ROOT
ATOM      1  C   UNL     1       1.677   8.317  19.884  0.00  0.00    +0.000 A 
ATOM      2  S   UNL     1       1.452   7.911  21.524  0.00  0.00    +0.000 S 
ATOM      3  C   UNL     1       0.456   9.245  21.806  0.00  0.00    +0.000 A 
ATOM      4  C   UNL     1       0.256  10.003  20.670  0.00  0.00    +0.000 A 
ATOM      5  C   UNL     1       0.957   9.456  19.521  0.00  0.00    +0.000 A 
ATOM      6  C   UNL     1      -0.626  11.224  20.707  0.00  0.00    +0.000 C 
ATOM      7  C   UNL     1      -0.795  11.753  22.140  0.00  0.00    +0.000 C 
ATOM      8  C   UNL     1      -1.155  10.632  23.120  0.00  0.00    +0.000 C 
ATOM      9  C   UNL     1      -0.071   9.548  23.174  0.00  0.00    +0.000 C 
ENDROOT
BRANCH   5  10
ATOM     10  C   UNL     1       0.924  10.044  18.185  0.00  0.00    +0.000 C 
ATOM     11  N   UNL     1      -0.324  10.243  17.637  0.00  0.00    +0.000 N 
ATOM     12  O   UNL     1       1.916  10.409  17.562  0.00  0.00    +0.000 OA
ATOM     13  H   UNL     1      -1.100  10.392  18.271  0.00  0.00    +0.000 HD
ATOM     14  H   UNL     1      -0.303  10.830  16.812  0.00  0.00    +0.000 HD
ENDBRANCH   5  10
BRANCH   1  17
ATOM     15  C   UNL     1       2.559   6.185  18.982  0.00  0.00    +0.000 C 
ATOM     16  O   UNL     1       1.777   5.391  19.490  0.00  0.00    +0.000 OA
ATOM     17  N   UNL     1       2.553   7.570  19.096  0.00  0.00    +0.000 N 
ATOM     18  H   UNL     1       3.171   8.108  18.505  0.00  0.00    +0.000 HD
BRANCH  15  23
ATOM     19  C   UNL     1       5.668   5.729  16.828  0.00  0.00    +0.000 A 
ATOM     20  C   UNL     1       5.421   4.451  16.318  0.00  0.00    +0.000 A 
ATOM     21  C   UNL     1       4.276   3.744  16.684  0.00  0.00    +0.000 A 
ATOM     22  C   UNL     1       3.361   4.328  17.555  0.00  0.00    +0.000 A 
ATOM     23  C   UNL     1       3.585   5.617  18.059  0.00  0.00    +0.000 A 
ATOM     24  C   UNL     1       4.752   6.310  17.712  0.00  0.00    +0.000 A 
BRANCH  19  26
ATOM     25  C   UNL     1       7.519   7.149  17.288  0.00  0.00    +0.000 C 
ATOM     26  O   UNL     1       6.825   6.304  16.380  0.00  0.00    +0.000 OA
ENDBRANCH  19  26
ENDBRANCH  15  23
ENDBRANCH   1  17
TORSDOF 4
ENDMDL
MODEL 5
REMARK VINA RESULT:      -7.1      1.901      2.577
REMARK  Name = 
REMARK  5 active torsions:
REMARK  status: ('A' for Active; 'I' for Inactive)
REMARK    1  A    between atoms: C_1  and  O_2
REMARK    2  A    between atoms: O_2  and  C_3
REMARK    3  A    between atoms: C_7  and  C_8
REMARK    4  A    between atoms: N_10  and  C_11
REMARK    5  A    between atoms: C_15  and  C_16
REMARK                            x       y       z     vdW  Elec       q    Type
REMARK                         _______ _______ _______ _____ _____    ______ ____
ROOT
ATOM      1  C   UNL     1       4.024   5.411  17.143  0.00  0.00    +0.000 A 
ATOM      2  S   UNL     1       3.535   7.033  17.333  0.00  0.00    +0.000 S 
ATOM      3  C   UNL     1       2.817   6.730  18.831  0.00  0.00    +0.000 A 
ATOM      4  C   UNL     1       2.952   5.415  19.224  0.00  0.00    +0.000 A 
ATOM      5  C   UNL     1       3.680   4.626  18.245  0.00  0.00    +0.000 A 
ATOM      6  C   UNL     1       2.400   4.949  20.546  0.00  0.00    +0.000 C 
ATOM      7  C   UNL     1       1.312   5.899  21.070  0.00  0.00    +0.000 C 
ATOM      8  C   UNL     1       1.759   7.363  21.005  0.00  0.00    +0.000 C 
ATOM      9  C   UNL     1       2.077   7.802  19.570  0.00  0.00    +0.000 C 
ENDROOT
BRANCH   5  10
ATOM     10  C   UNL     1       3.979   3.205  18.396  0.00  0.00    +0.000 C 
ATOM     11  N   UNL     1       4.936   2.879  19.331  0.00  0.00    +0.000 N 
ATOM     12  O   UNL     1       3.403   2.306  17.790  0.00  0.00    +0.000 OA
ATOM     13  H   UNL     1       5.060   3.505  20.118  0.00  0.00    +0.000 HD
ATOM     14  H   UNL     1       4.961   1.888  19.540  0.00  0.00    +0.000 HD
ENDBRANCH   5  10
BRANCH   1  17
ATOM     15  C   UNL     1       5.876   5.420  15.498  0.00  0.00    +0.000 C 
ATOM     16  O   UNL     1       6.672   6.156  16.068  0.00  0.00    +0.000 OA
ATOM     17  N   UNL     1       4.633   5.002  15.957  0.00  0.00    +0.000 N 
ATOM     18  H   UNL     1       4.146   4.279  15.446  0.00  0.00    +0.000 HD
BRANCH  15  23
ATOM     19  C   UNL     1       6.094   3.272  12.360  0.00  0.00    +0.000 A 
ATOM     20  C   UNL     1       7.262   3.791  11.795  0.00  0.00    +0.000 A 
ATOM     21  C   UNL     1       7.953   4.833  12.411  0.00  0.00    +0.000 A 
ATOM     22  C   UNL     1       7.481   5.349  13.614  0.00  0.00    +0.000 A 
ATOM     23  C   UNL     1       6.321   4.825  14.205  0.00  0.00    +0.000 A 
ATOM     24  C   UNL     1       5.615   3.799  13.565  0.00  0.00    +0.000 A 
BRANCH  19  26
ATOM     25  C   UNL     1       6.399   1.250  11.146  0.00  0.00    +0.000 C 
ATOM     26  O   UNL     1       5.525   2.251  11.649  0.00  0.00    +0.000 OA
ENDBRANCH  19  26
ENDBRANCH  15  23
ENDBRANCH   1  17
TORSDOF 4
ENDMDL
MODEL 6
REMARK VINA RESULT:      -7.0      4.421      9.264
REMARK  Name = 
REMARK  5 active torsions:
REMARK  status: ('A' for Active; 'I' for Inactive)
REMARK    1  A    between atoms: C_1  and  O_2
REMARK    2  A    between atoms: O_2  and  C_3
REMARK    3  A    between atoms: C_7  and  C_8
REMARK    4  A    between atoms: N_10  and  C_11
REMARK    5  A    between atoms: C_15  and  C_16
REMARK                            x       y       z     vdW  Elec       q    Type
REMARK                         _______ _______ _______ _____ _____    ______ ____
ROOT
ATOM      1  C   UNL     1       2.826   6.871  18.672  0.00  0.00    +0.000 A 
ATOM      2  S   UNL     1       3.717   7.653  17.449  0.00  0.00    +0.000 S 
ATOM      3  C   UNL     1       4.335   6.200  16.851  0.00  0.00    +0.000 A 
ATOM      4  C   UNL     1       3.866   5.103  17.543  0.00  0.00    +0.000 A 
ATOM      5  C   UNL     1       2.957   5.483  18.612  0.00  0.00    +0.000 A 
ATOM      6  C   UNL     1       4.280   3.710  17.147  0.00  0.00    +0.000 C 
ATOM      7  C   UNL     1       5.577   3.721  16.323  0.00  0.00    +0.000 C 
ATOM      8  C   UNL     1       5.523   4.755  15.193  0.00  0.00    +0.000 C 
ATOM      9  C   UNL     1       5.327   6.179  15.729  0.00  0.00    +0.000 C 
ENDROOT
BRANCH   5  10
ATOM     10  C   UNL     1       2.302   4.532  19.506  0.00  0.00    +0.000 C 
ATOM     11  N   UNL     1       1.229   3.844  18.985  0.00  0.00    +0.000 N 
ATOM     12  O   UNL     1       2.676   4.282  20.648  0.00  0.00    +0.000 OA
ATOM     13  H   UNL     1       1.210   3.687  17.984  0.00  0.00    +0.000 HD
ATOM     14  H   UNL     1       0.942   3.064  19.564  0.00  0.00    +0.000 HD
ENDBRANCH   5  10
BRANCH   1  17
ATOM     15  C   UNL     1       1.405   8.781  19.357  0.00  0.00    +0.000 C 
ATOM     16  O   UNL     1       1.197   9.301  18.267  0.00  0.00    +0.000 OA
ATOM     17  N   UNL     1       2.131   7.625  19.617  0.00  0.00    +0.000 N 
ATOM     18  H   UNL     1       2.098   7.232  20.548  0.00  0.00    +0.000 HD
BRANCH  15  23
ATOM     19  C   UNL     1       0.002  11.306  21.840  0.00  0.00    +0.000 A 
ATOM     20  C   UNL     1      -0.546  10.434  22.785  0.00  0.00    +0.000 A 
ATOM     21  C   UNL     1      -0.478   9.053  22.608  0.00  0.00    +0.000 A 
ATOM     22  C   UNL     1       0.159   8.539  21.482  0.00  0.00    +0.000 A 
ATOM     23  C   UNL     1       0.731   9.400  20.535  0.00  0.00    +0.000 A 
ATOM     24  C   UNL     1       0.633  10.788  20.703  0.00  0.00    +0.000 A 
BRANCH  19  26
ATOM     25  C   UNL     1      -1.170  12.982  23.054  0.00  0.00    +0.000 C 
ATOM     26  O   UNL     1      -0.134  12.632  22.146  0.00  0.00    +0.000 OA
ENDBRANCH  19  26
ENDBRANCH  15  23
ENDBRANCH   1  17
TORSDOF 4
ENDMDL
MODEL 7
REMARK VINA RESULT:      -6.8      4.785      6.646
REMARK  Name = 
REMARK  5 active torsions:
REMARK  status: ('A' for Active; 'I' for Inactive)
REMARK    1  A    between atoms: C_1  and  O_2
REMARK    2  A    between atoms: O_2  and  C_3
REMARK    3  A    between atoms: C_7  and  C_8
REMARK    4  A    between atoms: N_10  and  C_11
REMARK    5  A    between atoms: C_15  and  C_16
REMARK                            x       y       z     vdW  Elec       q    Type
REMARK                         _______ _______ _______ _____ _____    ______ ____
ROOT
ATOM      1  C   UNL     1       1.257   8.693  20.236  0.00  0.00    +0.000 A 
ATOM      2  S   UNL     1       1.018   8.567  21.918  0.00  0.00    +0.000 S 
ATOM      3  C   UNL     1      -0.037   9.885  21.953  0.00  0.00    +0.000 A 
ATOM      4  C   UNL     1      -0.245  10.427  20.701  0.00  0.00    +0.000 A 
ATOM      5  C   UNL     1       0.499   9.720  19.672  0.00  0.00    +0.000 A 
ATOM      6  C   UNL     1      -1.177  11.596  20.516  0.00  0.00    +0.000 C 
ATOM      7  C   UNL     1      -1.394  12.357  21.833  0.00  0.00    +0.000 C 
ATOM      8  C   UNL     1      -1.727  11.407  22.988  0.00  0.00    +0.000 C 
ATOM      9  C   UNL     1      -0.601  10.397  23.242  0.00  0.00    +0.000 C 
ENDROOT
BRANCH   5  10
ATOM     10  C   UNL     1       0.467  10.067  18.254  0.00  0.00    +0.000 C 
ATOM     11  N   UNL     1       1.599  10.665  17.747  0.00  0.00    +0.000 N 
ATOM     12  O   UNL     1      -0.467   9.817  17.499  0.00  0.00    +0.000 OA
ATOM     13  H   UNL     1       2.485  10.454  18.192  0.00  0.00    +0.000 HD
ATOM     14  H   UNL     1       1.607  10.699  16.734  0.00  0.00    +0.000 HD
ENDBRANCH   5  10
BRANCH   1  17
ATOM     15  C   UNL     1       2.284   6.485  19.776  0.00  0.00    +0.000 C 
ATOM     16  O   UNL     1       1.566   5.764  20.458  0.00  0.00    +0.000 OA
ATOM     17  N   UNL     1       2.177   7.860  19.599  0.00  0.00    +0.000 N 
ATOM     18  H   UNL     1       2.749   8.303  18.894  0.00  0.00    +0.000 HD
BRANCH  15  23
ATOM     19  C   UNL     1       4.713   5.579  16.986  0.00  0.00    +0.000 A 
ATOM     20  C   UNL     1       5.318   4.452  17.551  0.00  0.00    +0.000 A 
ATOM     21  C   UNL     1       4.956   4.008  18.822  0.00  0.00    +0.000 A 
ATOM     22  C   UNL     1       3.969   4.689  19.529  0.00  0.00    +0.000 A 
ATOM     23  C   UNL     1       3.339   5.809  18.967  0.00  0.00    +0.000 A 
ATOM     24  C   UNL     1       3.728   6.268  17.702  0.00  0.00    +0.000 A 
BRANCH  19  26
ATOM     25  C   UNL     1       5.658   4.828  14.937  0.00  0.00    +0.000 C 
ATOM     26  O   UNL     1       5.163   5.896  15.734  0.00  0.00    +0.000 OA
ENDBRANCH  19  26
ENDBRANCH  15  23
ENDBRANCH   1  17
TORSDOF 4
ENDMDL
MODEL 8
REMARK VINA RESULT:      -6.6      7.949     12.343
REMARK  Name = 
REMARK  5 active torsions:
REMARK  status: ('A' for Active; 'I' for Inactive)
REMARK    1  A    between atoms: C_1  and  O_2
REMARK    2  A    between atoms: O_2  and  C_3
REMARK    3  A    between atoms: C_7  and  C_8
REMARK    4  A    between atoms: N_10  and  C_11
REMARK    5  A    between atoms: C_15  and  C_16
REMARK                            x       y       z     vdW  Elec       q    Type
REMARK                         _______ _______ _______ _____ _____    ______ ____
ROOT
ATOM      1  C   UNL     1       0.067  10.162  21.039  0.00  0.00    +0.000 A 
ATOM      2  S   UNL     1       0.790   8.745  21.650  0.00  0.00    +0.000 S 
ATOM      3  C   UNL     1       1.505   8.369  20.167  0.00  0.00    +0.000 A 
ATOM      4  C   UNL     1       1.232   9.311  19.196  0.00  0.00    +0.000 A 
ATOM      5  C   UNL     1       0.398  10.387  19.703  0.00  0.00    +0.000 A 
ATOM      6  C   UNL     1       1.801   9.170  17.809  0.00  0.00    +0.000 C 
ATOM      7  C   UNL     1       2.212   7.719  17.513  0.00  0.00    +0.000 C 
ATOM      8  C   UNL     1       3.051   7.124  18.648  0.00  0.00    +0.000 C 
ATOM      9  C   UNL     1       2.285   7.105  19.977  0.00  0.00    +0.000 C 
ENDROOT
BRANCH   5  10
ATOM     10  C   UNL     1      -0.045  11.526  18.903  0.00  0.00    +0.000 C 
ATOM     11  N   UNL     1       0.754  12.646  18.942  0.00  0.00    +0.000 N 
ATOM     12  O   UNL     1      -1.035  11.522  18.177  0.00  0.00    +0.000 OA
ATOM     13  H   UNL     1       1.742  12.516  19.126  0.00  0.00    +0.000 HD
ATOM     14  H   UNL     1       0.520  13.323  18.225  0.00  0.00    +0.000 HD
ENDBRANCH   5  10
BRANCH   1  17
ATOM     15  C   UNL     1      -0.576  12.209  22.278  0.00  0.00    +0.000 C 
ATOM     16  O   UNL     1       0.358  12.945  21.985  0.00  0.00    +0.000 OA
ATOM     17  N   UNL     1      -0.794  10.906  21.845  0.00  0.00    +0.000 N 
ATOM     18  H   UNL     1      -1.682  10.469  22.052  0.00  0.00    +0.000 HD
BRANCH  15  23
ATOM     19  C   UNL     1      -3.832  12.739  24.182  0.00  0.00    +0.000 A 
ATOM     20  C   UNL     1      -3.601  14.016  24.702  0.00  0.00    +0.000 A 
ATOM     21  C   UNL     1      -2.402  14.682  24.454  0.00  0.00    +0.000 A 
ATOM     22  C   UNL     1      -1.431  14.073  23.665  0.00  0.00    +0.000 A 
ATOM     23  C   UNL     1      -1.656  12.800  23.120  0.00  0.00    +0.000 A 
ATOM     24  C   UNL     1      -2.851  12.123  23.398  0.00  0.00    +0.000 A 
BRANCH  19  26
ATOM     25  C   UNL     1      -6.197  12.851  23.959  0.00  0.00    +0.000 C 
ATOM     26  O   UNL     1      -5.052  12.209  24.503  0.00  0.00    +0.000 OA
ENDBRANCH  19  26
ENDBRANCH  15  23
ENDBRANCH   1  17
TORSDOF 4
ENDMDL
MODEL 9
REMARK VINA RESULT:      -6.6      5.750      7.919
REMARK  Name = 
REMARK  5 active torsions:
REMARK  status: ('A' for Active; 'I' for Inactive)
REMARK    1  A    between atoms: C_1  and  O_2
REMARK    2  A    between atoms: O_2  and  C_3
REMARK    3  A    between atoms: C_7  and  C_8
REMARK    4  A    between atoms: N_10  and  C_11
REMARK    5  A    between atoms: C_15  and  C_16
REMARK                            x       y       z     vdW  Elec       q    Type
REMARK                         _______ _______ _______ _____ _____    ______ ____
ROOT
ATOM      1  C   UNL     1       0.473   9.703  20.037  0.00  0.00    +0.000 A 
ATOM      2  S   UNL     1      -0.334  10.565  18.808  0.00  0.00    +0.000 S 
ATOM      3  C   UNL     1      -1.188  11.511  19.915  0.00  0.00    +0.000 A 
ATOM      4  C   UNL     1      -0.866  11.213  21.224  0.00  0.00    +0.000 A 
ATOM      5  C   UNL     1       0.130  10.158  21.311  0.00  0.00    +0.000 A 
ATOM      6  C   UNL     1      -1.502  11.967  22.362  0.00  0.00    +0.000 C 
ATOM      7  C   UNL     1      -2.812  12.642  21.928  0.00  0.00    +0.000 C 
ATOM      8  C   UNL     1      -2.644  13.418  20.617  0.00  0.00    +0.000 C 
ATOM      9  C   UNL     1      -2.213  12.504  19.463  0.00  0.00    +0.000 C 
ENDROOT
BRANCH   5  10
ATOM     10  C   UNL     1       0.666   9.641  22.567  0.00  0.00    +0.000 C 
ATOM     11  N   UNL     1      -0.259   9.240  23.505  0.00  0.00    +0.000 N 
ATOM     12  O   UNL     1       1.861   9.499  22.806  0.00  0.00    +0.000 OA
ATOM     13  H   UNL     1      -1.160   8.917  23.173  0.00  0.00    +0.000 HD
ATOM     14  H   UNL     1       0.153   8.709  24.263  0.00  0.00    +0.000 HD
ENDBRANCH   5  10
BRANCH   1  17
ATOM     15  C   UNL     1       2.009   8.497  18.512  0.00  0.00    +0.000 C 
ATOM     16  O   UNL     1       2.065   9.293  17.583  0.00  0.00    +0.000 OA
ATOM     17  N   UNL     1       1.310   8.638  19.706  0.00  0.00    +0.000 N 
ATOM     18  H   UNL     1       1.471   7.966  20.443  0.00  0.00    +0.000 HD
BRANCH  15  23
ATOM     19  C   UNL     1       3.534   5.056  19.095  0.00  0.00    +0.000 A 
ATOM     20  C   UNL     1       4.510   5.054  18.094  0.00  0.00    +0.000 A 
ATOM     21  C   UNL     1       4.655   6.141  17.233  0.00  0.00    +0.000 A 
ATOM     22  C   UNL     1       3.827   7.249  17.387  0.00  0.00    +0.000 A 
ATOM     23  C   UNL     1       2.856   7.275  18.400  0.00  0.00    +0.000 A 
ATOM     24  C   UNL     1       2.696   6.167  19.241  0.00  0.00    +0.000 A 
BRANCH  19  26
ATOM     25  C   UNL     1       4.389   2.873  19.494  0.00  0.00    +0.000 C 
ATOM     26  O   UNL     1       3.510   3.926  19.865  0.00  0.00    +0.000 OA
ENDBRANCH  19  26
ENDBRANCH  15  23
ENDBRANCH   1  17
TORSDOF 4
ENDMDL
