MODEL 1
REMARK VINA RESULT:      -7.7      0.000      0.000
REMARK  Name = 
REMARK  11 active torsions:
REMARK  status: ('A' for Active; 'I' for Inactive)
REMARK    1  A    between atoms: C_1  and  O_2
REMARK    2  A    between atoms: O_2  and  C_3
REMARK    3  A    between atoms: C_4  and  O_5
REMARK    4  A    between atoms: O_5  and  C_6
REMARK    5  A    between atoms: C_8  and  C_9
REMARK    6  A    between atoms: C_9  and  O_10
REMARK    7  A    between atoms: C_11  and  O_12
REMARK    8  A    between atoms: C_13  and  O_14
REMARK    9  A    between atoms: C_15  and  O_16
REMARK   10  A    between atoms: C_17  and  C_18
REMARK   11  A    between atoms: C_25  and  O_26
REMARK                            x       y       z     vdW  Elec       q    Type
REMARK                         _______ _______ _______ _____ _____    ______ ____
ROOT
ATOM      1  C   UNL     1       1.489   8.133  20.280  0.00  0.00    +0.000 A 
ATOM      2  C   UNL     1       1.417   9.308  19.501  0.00  0.00    +0.000 A 
ATOM      3  C   UNL     1       2.175   9.391  18.309  0.00  0.00    +0.000 A 
ATOM      4  C   UNL     1       2.224  10.646  17.471  0.00  0.00    +0.000 C 
ATOM      5  C   UNL     1       2.926   8.284  17.875  0.00  0.00    +0.000 A 
ATOM      6  C   UNL     1       2.862   7.075  18.568  0.00  0.00    +0.000 A 
ATOM      7  C   UNL     1       2.088   6.990  19.721  0.00  0.00    +0.000 A 
ATOM      8  C   UNL     1       1.823   5.650  20.268  0.00  0.00    +0.000 C 
ATOM      9  O   UNL     1       0.812   5.404  20.924  0.00  0.00    +0.000 OA
ATOM     10  C   UNL     1       2.760   4.560  20.003  0.00  0.00    +0.000 A 
ATOM     11  C   UNL     1       2.761   3.418  20.812  0.00  0.00    +0.000 A 
ATOM     12  C   UNL     1       3.606   2.357  20.519  0.00  0.00    +0.000 A 
ATOM     13  C   UNL     1       4.449   2.433  19.410  0.00  0.00    +0.000 A 
ATOM     14  C   UNL     1       4.467   3.586  18.612  0.00  0.00    +0.000 A 
ATOM     15  C   UNL     1       3.625   4.660  18.919  0.00  0.00    +0.000 A 
ATOM     16  C   UNL     1       3.637   5.897  18.103  0.00  0.00    +0.000 C 
ATOM     17  O   UNL     1       4.313   5.960  17.083  0.00  0.00    +0.000 OA
ENDROOT
BRANCH   1  19
ATOM     18  C   UNL     1       1.483   9.144  22.433  0.00  0.00    +0.000 C 
ATOM     19  O   UNL     1       0.952   8.151  21.542  0.00  0.00    +0.000 OA
ENDBRANCH   1  19
BRANCH  11  20
ATOM     20  O   UNL     1       1.962   3.289  21.915  0.00  0.00    +0.000 OA
ATOM     21  H   UNL     1       2.328   3.857  22.629  0.00  0.00    +0.000 HD
ENDBRANCH  11  20
BRANCH   2  22
ATOM     22  O   UNL     1       0.697  10.434  19.803  0.00  0.00    +0.000 OA
BRANCH  22  23
ATOM     23  C   UNL     1      -0.725  10.527  19.591  0.00  0.00    +0.000 C 
ATOM     24  O   UNL     1      -1.016  10.324  18.211  0.00  0.00    +0.000 OA
ATOM     25  C   UNL     1      -2.415  10.301  17.903  0.00  0.00    +0.000 C 
ATOM     26  C   UNL     1      -3.042  11.658  18.231  0.00  0.00    +0.000 C 
ATOM     27  C   UNL     1      -2.831  12.004  19.704  0.00  0.00    +0.000 C 
ATOM     28  C   UNL     1      -1.408  11.769  20.226  0.00  0.00    +0.000 C 
BRANCH  26  29
ATOM     29  O   UNL     1      -4.451  11.625  17.969  0.00  0.00    +0.000 OA
ATOM     30  H   UNL     1      -4.716  12.543  17.765  0.00  0.00    +0.000 HD
ENDBRANCH  26  29
BRANCH  27  31
ATOM     31  O   UNL     1      -3.185  13.387  19.916  0.00  0.00    +0.000 OA
ATOM     32  H   UNL     1      -4.029  13.561  19.453  0.00  0.00    +0.000 HD
ENDBRANCH  27  31
BRANCH  28  33
ATOM     33  O   UNL     1      -1.476  11.620  21.663  0.00  0.00    +0.000 OA
ATOM     34  H   UNL     1      -1.204  12.475  22.048  0.00  0.00    +0.000 HD
ENDBRANCH  28  33
BRANCH  25  35
ATOM     35  C   UNL     1      -2.502  10.001  16.403  0.00  0.00    +0.000 C 
BRANCH  35  36
ATOM     36  O   UNL     1      -2.482  11.234  15.679  0.00  0.00    +0.000 OA
ATOM     37  H   UNL     1      -1.730  11.117  15.062  0.00  0.00    +0.000 HD
ENDBRANCH  35  36
ENDBRANCH  25  35
ENDBRANCH  22  23
ENDBRANCH   2  22
TORSDOF 9
ENDMDL
MODEL 2
REMARK VINA RESULT:      -7.6      1.201      3.086
REMARK  Name = 
REMARK  11 active torsions:
REMARK  status: ('A' for Active; 'I' for Inactive)
REMARK    1  A    between atoms: C_1  and  O_2
REMARK    2  A    between atoms: O_2  and  C_3
REMARK    3  A    between atoms: C_4  and  O_5
REMARK    4  A    between atoms: O_5  and  C_6
REMARK    5  A    between atoms: C_8  and  C_9
REMARK    6  A    between atoms: C_9  and  O_10
REMARK    7  A    between atoms: C_11  and  O_12
REMARK    8  A    between atoms: C_13  and  O_14
REMARK    9  A    between atoms: C_15  and  O_16
REMARK   10  A    between atoms: C_17  and  C_18
REMARK   11  A    between atoms: C_25  and  O_26
REMARK                            x       y       z     vdW  Elec       q    Type
REMARK                         _______ _______ _______ _____ _____    ______ ____
ROOT
ATOM      1  C   UNL     1       1.880   8.757  18.662  0.00  0.00    +0.000 A 
ATOM      2  C   UNL     1       1.150   9.146  19.806  0.00  0.00    +0.000 A 
ATOM      3  C   UNL     1       0.923   8.199  20.833  0.00  0.00    +0.000 A 
ATOM      4  C   UNL     1       0.074   8.509  22.042  0.00  0.00    +0.000 C 
ATOM      5  C   UNL     1       1.489   6.915  20.742  0.00  0.00    +0.000 A 
ATOM      6  C   UNL     1       2.342   6.595  19.685  0.00  0.00    +0.000 A 
ATOM      7  C   UNL     1       2.586   7.542  18.696  0.00  0.00    +0.000 A 
ATOM      8  C   UNL     1       3.687   7.278  17.756  0.00  0.00    +0.000 C 
ATOM      9  O   UNL     1       4.302   8.189  17.203  0.00  0.00    +0.000 OA
ATOM     10  C   UNL     1       4.098   5.902  17.488  0.00  0.00    +0.000 A 
ATOM     11  C   UNL     1       4.836   5.596  16.339  0.00  0.00    +0.000 A 
ATOM     12  C   UNL     1       5.281   4.300  16.120  0.00  0.00    +0.000 A 
ATOM     13  C   UNL     1       4.995   3.306  17.056  0.00  0.00    +0.000 A 
ATOM     14  C   UNL     1       4.236   3.604  18.196  0.00  0.00    +0.000 A 
ATOM     15  C   UNL     1       3.776   4.908  18.406  0.00  0.00    +0.000 A 
ATOM     16  C   UNL     1       2.957   5.247  19.594  0.00  0.00    +0.000 C 
ATOM     17  O   UNL     1       2.754   4.410  20.466  0.00  0.00    +0.000 OA
ENDROOT
BRANCH   1  19
ATOM     18  C   UNL     1       2.374  10.924  17.813  0.00  0.00    +0.000 C 
ATOM     19  O   UNL     1       1.887   9.594  17.575  0.00  0.00    +0.000 OA
ENDBRANCH   1  19
BRANCH  11  20
ATOM     20  O   UNL     1       5.141   6.527  15.383  0.00  0.00    +0.000 OA
ATOM     21  H   UNL     1       5.744   6.110  14.728  0.00  0.00    +0.000 HD
ENDBRANCH  11  20
BRANCH   2  22
ATOM     22  O   UNL     1       0.580  10.374  20.021  0.00  0.00    +0.000 OA
BRANCH  22  23
ATOM     23  C   UNL     1      -0.818  10.633  19.787  0.00  0.00    +0.000 C 
ATOM     24  O   UNL     1      -1.117  10.428  18.409  0.00  0.00    +0.000 OA
ATOM     25  C   UNL     1      -2.505  10.567  18.083  0.00  0.00    +0.000 C 
ATOM     26  C   UNL     1      -2.965  11.999  18.365  0.00  0.00    +0.000 C 
ATOM     27  C   UNL     1      -2.728  12.358  19.831  0.00  0.00    +0.000 C 
ATOM     28  C   UNL     1      -1.351  11.967  20.380  0.00  0.00    +0.000 C 
BRANCH  26  29
ATOM     29  O   UNL     1      -4.365  12.130  18.085  0.00  0.00    +0.000 OA
ATOM     30  H   UNL     1      -4.639  12.996  18.444  0.00  0.00    +0.000 HD
ENDBRANCH  26  29
BRANCH  27  31
ATOM     31  O   UNL     1      -2.914  13.779  20.001  0.00  0.00    +0.000 OA
ATOM     32  H   UNL     1      -2.138  14.236  19.620  0.00  0.00    +0.000 HD
ENDBRANCH  27  31
BRANCH  28  33
ATOM     33  O   UNL     1      -1.452  11.868  21.819  0.00  0.00    +0.000 OA
ATOM     34  H   UNL     1      -0.568  12.076  22.178  0.00  0.00    +0.000 HD
ENDBRANCH  28  33
BRANCH  25  35
ATOM     35  C   UNL     1      -2.613  10.238  16.590  0.00  0.00    +0.000 C 
BRANCH  35  36
ATOM     36  O   UNL     1      -2.408  11.433  15.833  0.00  0.00    +0.000 OA
ATOM     37  H   UNL     1      -1.749  11.160  15.161  0.00  0.00    +0.000 HD
ENDBRANCH  35  36
ENDBRANCH  25  35
ENDBRANCH  22  23
ENDBRANCH   2  22
TORSDOF 9
ENDMDL
MODEL 3
REMARK VINA RESULT:      -7.0      1.358      3.548
REMARK  Name = 
REMARK  11 active torsions:
REMARK  status: ('A' for Active; 'I' for Inactive)
REMARK    1  A    between atoms: C_1  and  O_2
REMARK    2  A    between atoms: O_2  and  C_3
REMARK    3  A    between atoms: C_4  and  O_5
REMARK    4  A    between atoms: O_5  and  C_6
REMARK    5  A    between atoms: C_8  and  C_9
REMARK    6  A    between atoms: C_9  and  O_10
REMARK    7  A    between atoms: C_11  and  O_12
REMARK    8  A    between atoms: C_13  and  O_14
REMARK    9  A    between atoms: C_15  and  O_16
REMARK   10  A    between atoms: C_17  and  C_18
REMARK   11  A    between atoms: C_25  and  O_26
REMARK                            x       y       z     vdW  Elec       q    Type
REMARK                         _______ _______ _______ _____ _____    ______ ____
ROOT
ATOM      1  C   UNL     1       1.787   8.941  18.772  0.00  0.00    +0.000 A 
ATOM      2  C   UNL     1       1.078   9.581  19.810  0.00  0.00    +0.000 A 
ATOM      3  C   UNL     1       0.635   8.816  20.915  0.00  0.00    +0.000 A 
ATOM      4  C   UNL     1      -0.208   9.408  22.019  0.00  0.00    +0.000 C 
ATOM      5  C   UNL     1       0.968   7.452  21.005  0.00  0.00    +0.000 A 
ATOM      6  C   UNL     1       1.805   6.869  20.053  0.00  0.00    +0.000 A 
ATOM      7  C   UNL     1       2.265   7.636  18.987  0.00  0.00    +0.000 A 
ATOM      8  C   UNL     1       3.349   7.079  18.163  0.00  0.00    +0.000 C 
ATOM      9  O   UNL     1       4.143   7.800  17.561  0.00  0.00    +0.000 OA
ATOM     10  C   UNL     1       3.524   5.631  18.077  0.00  0.00    +0.000 A 
ATOM     11  C   UNL     1       4.254   5.069  17.023  0.00  0.00    +0.000 A 
ATOM     12  C   UNL     1       4.474   3.700  16.979  0.00  0.00    +0.000 A 
ATOM     13  C   UNL     1       3.969   2.888  17.994  0.00  0.00    +0.000 A 
ATOM     14  C   UNL     1       3.217   3.444  19.038  0.00  0.00    +0.000 A 
ATOM     15  C   UNL     1       2.983   4.823  19.072  0.00  0.00    +0.000 A 
ATOM     16  C   UNL     1       2.177   5.435  20.154  0.00  0.00    +0.000 C 
ATOM     17  O   UNL     1       1.784   4.755  21.095  0.00  0.00    +0.000 OA
ENDROOT
BRANCH   1  19
ATOM     18  C   UNL     1       2.664  10.894  17.735  0.00  0.00    +0.000 C 
ATOM     19  O   UNL     1       1.998   9.628  17.603  0.00  0.00    +0.000 OA
ENDBRANCH   1  19
BRANCH  11  20
ATOM     20  O   UNL     1       4.769   5.814  15.997  0.00  0.00    +0.000 OA
ATOM     21  H   UNL     1       4.901   5.222  15.223  0.00  0.00    +0.000 HD
ENDBRANCH  11  20
BRANCH   2  22
ATOM     22  O   UNL     1       0.724  10.905  19.850  0.00  0.00    +0.000 OA
BRANCH  22  23
ATOM     23  C   UNL     1      -0.480  11.405  19.237  0.00  0.00    +0.000 C 
ATOM     24  O   UNL     1      -1.214  12.176  20.185  0.00  0.00    +0.000 OA
ATOM     25  C   UNL     1      -2.387  12.801  19.650  0.00  0.00    +0.000 C 
ATOM     26  C   UNL     1      -3.376  11.733  19.177  0.00  0.00    +0.000 C 
ATOM     27  C   UNL     1      -2.731  10.834  18.124  0.00  0.00    +0.000 C 
ATOM     28  C   UNL     1      -1.318  10.346  18.468  0.00  0.00    +0.000 C 
BRANCH  26  29
ATOM     29  O   UNL     1      -4.531  12.355  18.599  0.00  0.00    +0.000 OA
ATOM     30  H   UNL     1      -4.827  13.034  19.235  0.00  0.00    +0.000 HD
ENDBRANCH  26  29
BRANCH  27  31
ATOM     31  O   UNL     1      -3.580   9.688  17.902  0.00  0.00    +0.000 OA
ATOM     32  H   UNL     1      -3.910   9.380  18.769  0.00  0.00    +0.000 HD
ENDBRANCH  27  31
BRANCH  28  33
ATOM     33  O   UNL     1      -0.655   9.987  17.234  0.00  0.00    +0.000 OA
ATOM     34  H   UNL     1       0.225  10.412  17.253  0.00  0.00    +0.000 HD
ENDBRANCH  28  33
BRANCH  25  35
ATOM     35  C   UNL     1      -2.975  13.626  20.800  0.00  0.00    +0.000 C 
BRANCH  35  36
ATOM     36  O   UNL     1      -3.849  14.621  20.262  0.00  0.00    +0.000 OA
ATOM     37  H   UNL     1      -3.238  15.350  20.028  0.00  0.00    +0.000 HD
ENDBRANCH  35  36
ENDBRANCH  25  35
ENDBRANCH  22  23
ENDBRANCH   2  22
TORSDOF 9
ENDMDL
MODEL 4
REMARK VINA RESULT:      -7.0      8.032     11.773
REMARK  Name = 
REMARK  11 active torsions:
REMARK  status: ('A' for Active; 'I' for Inactive)
REMARK    1  A    between atoms: C_1  and  O_2
REMARK    2  A    between atoms: O_2  and  C_3
REMARK    3  A    between atoms: C_4  and  O_5
REMARK    4  A    between atoms: O_5  and  C_6
REMARK    5  A    between atoms: C_8  and  C_9
REMARK    6  A    between atoms: C_9  and  O_10
REMARK    7  A    between atoms: C_11  and  O_12
REMARK    8  A    between atoms: C_13  and  O_14
REMARK    9  A    between atoms: C_15  and  O_16
REMARK   10  A    between atoms: C_17  and  C_18
REMARK   11  A    between atoms: C_25  and  O_26
REMARK                            x       y       z     vdW  Elec       q    Type
REMARK                         _______ _______ _______ _____ _____    ______ ____
ROOT
ATOM      1  C   UNL     1       7.660  15.284  20.096  0.00  0.00    +0.000 A 
ATOM      2  C   UNL     1       8.544  15.024  21.165  0.00  0.00    +0.000 A 
ATOM      3  C   UNL     1       8.012  14.766  22.451  0.00  0.00    +0.000 A 
ATOM      4  C   UNL     1       8.891  14.571  23.662  0.00  0.00    +0.000 C 
ATOM      5  C   UNL     1       6.619  14.695  22.634  0.00  0.00    +0.000 A 
ATOM      6  C   UNL     1       5.759  14.793  21.540  0.00  0.00    +0.000 A 
ATOM      7  C   UNL     1       6.291  15.014  20.273  0.00  0.00    +0.000 A 
ATOM      8  C   UNL     1       5.395  14.842  19.118  0.00  0.00    +0.000 C 
ATOM      9  O   UNL     1       5.820  14.521  18.009  0.00  0.00    +0.000 OA
ATOM     10  C   UNL     1       3.955  15.017  19.285  0.00  0.00    +0.000 A 
ATOM     11  C   UNL     1       3.139  15.257  18.173  0.00  0.00    +0.000 A 
ATOM     12  C   UNL     1       1.764  15.358  18.326  0.00  0.00    +0.000 A 
ATOM     13  C   UNL     1       1.199  15.212  19.592  0.00  0.00    +0.000 A 
ATOM     14  C   UNL     1       2.014  14.996  20.711  0.00  0.00    +0.000 A 
ATOM     15  C   UNL     1       3.402  14.910  20.557  0.00  0.00    +0.000 A 
ATOM     16  C   UNL     1       4.289  14.699  21.725  0.00  0.00    +0.000 C 
ATOM     17  O   UNL     1       3.814  14.495  22.835  0.00  0.00    +0.000 OA
ENDROOT
BRANCH   1  19
ATOM     18  C   UNL     1       8.268  17.199  18.822  0.00  0.00    +0.000 C 
ATOM     19  O   UNL     1       8.178  15.769  18.922  0.00  0.00    +0.000 OA
ENDBRANCH   1  19
BRANCH  11  20
ATOM     20  O   UNL     1       3.637  15.415  16.908  0.00  0.00    +0.000 OA
ATOM     21  H   UNL     1       2.881  15.423  16.278  0.00  0.00    +0.000 HD
ENDBRANCH  11  20
BRANCH   2  22
ATOM     22  O   UNL     1       9.913  15.033  21.101  0.00  0.00    +0.000 OA
BRANCH  22  23
ATOM     23  C   UNL     1      10.664  14.018  20.408  0.00  0.00    +0.000 C 
ATOM     24  O   UNL     1      11.056  14.505  19.127  0.00  0.00    +0.000 OA
ATOM     25  C   UNL     1      11.892  13.606  18.389  0.00  0.00    +0.000 C 
ATOM     26  C   UNL     1      11.131  12.313  18.090  0.00  0.00    +0.000 C 
ATOM     27  C   UNL     1      10.664  11.654  19.387  0.00  0.00    +0.000 C 
ATOM     28  C   UNL     1      10.015  12.606  20.399  0.00  0.00    +0.000 C 
BRANCH  26  29
ATOM     29  O   UNL     1      11.979  11.392  17.392  0.00  0.00    +0.000 OA
ATOM     30  H   UNL     1      11.627  10.499  17.574  0.00  0.00    +0.000 HD
ENDBRANCH  26  29
BRANCH  27  31
ATOM     31  O   UNL     1       9.729  10.602  19.068  0.00  0.00    +0.000 OA
ATOM     32  H   UNL     1       9.219  10.392  19.875  0.00  0.00    +0.000 HD
ENDBRANCH  27  31
BRANCH  28  33
ATOM     33  O   UNL     1      10.116  12.004  21.710  0.00  0.00    +0.000 OA
ATOM     34  H   UNL     1       9.740  12.645  22.344  0.00  0.00    +0.000 HD
ENDBRANCH  28  33
BRANCH  25  35
ATOM     35  C   UNL     1      12.251  14.346  17.095  0.00  0.00    +0.000 C 
BRANCH  35  36
ATOM     36  O   UNL     1      11.212  14.138  16.135  0.00  0.00    +0.000 OA
ATOM     37  H   UNL     1      10.688  14.963  16.193  0.00  0.00    +0.000 HD
ENDBRANCH  35  36
ENDBRANCH  25  35
ENDBRANCH  22  23
ENDBRANCH   2  22
TORSDOF 9
ENDMDL
MODEL 5
REMARK VINA RESULT:      -6.8      2.964      8.712
REMARK  Name = 
REMARK  11 active torsions:
REMARK  status: ('A' for Active; 'I' for Inactive)
REMARK    1  A    between atoms: C_1  and  O_2
REMARK    2  A    between atoms: O_2  and  C_3
REMARK    3  A    between atoms: C_4  and  O_5
REMARK    4  A    between atoms: O_5  and  C_6
REMARK    5  A    between atoms: C_8  and  C_9
REMARK    6  A    between atoms: C_9  and  O_10
REMARK    7  A    between atoms: C_11  and  O_12
REMARK    8  A    between atoms: C_13  and  O_14
REMARK    9  A    between atoms: C_15  and  O_16
REMARK   10  A    between atoms: C_17  and  C_18
REMARK   11  A    between atoms: C_25  and  O_26
REMARK                            x       y       z     vdW  Elec       q    Type
REMARK                         _______ _______ _______ _____ _____    ______ ____
ROOT
ATOM      1  C   UNL     1       2.576   6.977  18.559  0.00  0.00    +0.000 A 
ATOM      2  C   UNL     1       2.397   5.688  19.106  0.00  0.00    +0.000 A 
ATOM      3  C   UNL     1       1.871   5.562  20.413  0.00  0.00    +0.000 A 
ATOM      4  C   UNL     1       1.737   4.226  21.103  0.00  0.00    +0.000 C 
ATOM      5  C   UNL     1       1.460   6.707  21.119  0.00  0.00    +0.000 A 
ATOM      6  C   UNL     1       1.491   7.960  20.506  0.00  0.00    +0.000 A 
ATOM      7  C   UNL     1       1.980   8.072  19.209  0.00  0.00    +0.000 A 
ATOM      8  C   UNL     1       1.748   9.341  18.500  0.00  0.00    +0.000 C 
ATOM      9  O   UNL     1       1.671   9.395  17.273  0.00  0.00    +0.000 OA
ATOM     10  C   UNL     1       1.567  10.575  19.261  0.00  0.00    +0.000 A 
ATOM     11  C   UNL     1       1.747  11.818  18.644  0.00  0.00    +0.000 A 
ATOM     12  C   UNL     1       1.511  12.988  19.352  0.00  0.00    +0.000 A 
ATOM     13  C   UNL     1       1.087  12.918  20.679  0.00  0.00    +0.000 A 
ATOM     14  C   UNL     1       0.929  11.675  21.306  0.00  0.00    +0.000 A 
ATOM     15  C   UNL     1       1.183  10.497  20.596  0.00  0.00    +0.000 A 
ATOM     16  C   UNL     1       1.041   9.170  21.240  0.00  0.00    +0.000 C 
ATOM     17  O   UNL     1       0.601   9.078  22.379  0.00  0.00    +0.000 OA
ENDROOT
BRANCH   1  19
ATOM     18  C   UNL     1       4.630   7.636  17.556  0.00  0.00    +0.000 C 
ATOM     19  O   UNL     1       3.305   7.102  17.403  0.00  0.00    +0.000 OA
ENDBRANCH   1  19
BRANCH  11  20
ATOM     20  O   UNL     1       2.167  11.950  17.348  0.00  0.00    +0.000 OA
ATOM     21  H   UNL     1       1.372  12.034  16.775  0.00  0.00    +0.000 HD
ENDBRANCH  11  20
BRANCH   2  22
ATOM     22  O   UNL     1       2.728   4.502  18.503  0.00  0.00    +0.000 OA
BRANCH  22  23
ATOM     23  C   UNL     1       4.093   4.094  18.289  0.00  0.00    +0.000 C 
ATOM     24  O   UNL     1       4.973   5.027  18.911  0.00  0.00    +0.000 OA
ATOM     25  C   UNL     1       6.357   4.665  18.840  0.00  0.00    +0.000 C 
ATOM     26  C   UNL     1       6.811   4.626  17.379  0.00  0.00    +0.000 C 
ATOM     27  C   UNL     1       5.964   3.635  16.582  0.00  0.00    +0.000 C 
ATOM     28  C   UNL     1       4.453   3.735  16.821  0.00  0.00    +0.000 C 
BRANCH  26  29
ATOM     29  O   UNL     1       8.183   4.218  17.301  0.00  0.00    +0.000 OA
ATOM     30  H   UNL     1       8.427   4.250  16.356  0.00  0.00    +0.000 HD
ENDBRANCH  26  29
BRANCH  27  31
ATOM     31  O   UNL     1       6.229   3.819  15.175  0.00  0.00    +0.000 OA
ATOM     32  H   UNL     1       6.128   4.769  14.966  0.00  0.00    +0.000 HD
ENDBRANCH  27  31
BRANCH  28  33
ATOM     33  O   UNL     1       3.855   2.470  16.457  0.00  0.00    +0.000 OA
ATOM     34  H   UNL     1       2.994   2.423  16.916  0.00  0.00    +0.000 HD
ENDBRANCH  28  33
BRANCH  25  35
ATOM     35  C   UNL     1       7.107   5.749  19.622  0.00  0.00    +0.000 C 
BRANCH  35  36
ATOM     36  O   UNL     1       8.281   5.177  20.203  0.00  0.00    +0.000 OA
ATOM     37  H   UNL     1       9.005   5.569  19.673  0.00  0.00    +0.000 HD
ENDBRANCH  35  36
ENDBRANCH  25  35
ENDBRANCH  22  23
ENDBRANCH   2  22
TORSDOF 9
ENDMDL
MODEL 6
REMARK VINA RESULT:      -6.8      2.266      8.556
REMARK  Name = 
REMARK  11 active torsions:
REMARK  status: ('A' for Active; 'I' for Inactive)
REMARK    1  A    between atoms: C_1  and  O_2
REMARK    2  A    between atoms: O_2  and  C_3
REMARK    3  A    between atoms: C_4  and  O_5
REMARK    4  A    between atoms: O_5  and  C_6
REMARK    5  A    between atoms: C_8  and  C_9
REMARK    6  A    between atoms: C_9  and  O_10
REMARK    7  A    between atoms: C_11  and  O_12
REMARK    8  A    between atoms: C_13  and  O_14
REMARK    9  A    between atoms: C_15  and  O_16
REMARK   10  A    between atoms: C_17  and  C_18
REMARK   11  A    between atoms: C_25  and  O_26
REMARK                            x       y       z     vdW  Elec       q    Type
REMARK                         _______ _______ _______ _____ _____    ______ ____
ROOT
ATOM      1  C   UNL     1       1.506   8.884  18.659  0.00  0.00    +0.000 A 
ATOM      2  C   UNL     1       1.978   7.565  18.831  0.00  0.00    +0.000 A 
ATOM      3  C   UNL     1       1.919   6.975  20.116  0.00  0.00    +0.000 A 
ATOM      4  C   UNL     1       2.488   5.606  20.400  0.00  0.00    +0.000 C 
ATOM      5  C   UNL     1       1.325   7.673  21.183  0.00  0.00    +0.000 A 
ATOM      6  C   UNL     1       0.718   8.910  20.964  0.00  0.00    +0.000 A 
ATOM      7  C   UNL     1       0.750   9.469  19.691  0.00  0.00    +0.000 A 
ATOM      8  C   UNL     1      -0.123  10.625  19.431  0.00  0.00    +0.000 C 
ATOM      9  O   UNL     1      -0.551  10.876  18.306  0.00  0.00    +0.000 OA
ATOM     10  C   UNL     1      -0.531  11.488  20.537  0.00  0.00    +0.000 A 
ATOM     11  C   UNL     1      -1.004  12.781  20.286  0.00  0.00    +0.000 A 
ATOM     12  C   UNL     1      -1.452  13.575  21.332  0.00  0.00    +0.000 A 
ATOM     13  C   UNL     1      -1.435  13.074  22.634  0.00  0.00    +0.000 A 
ATOM     14  C   UNL     1      -0.939  11.789  22.891  0.00  0.00    +0.000 A 
ATOM     15  C   UNL     1      -0.474  10.997  21.837  0.00  0.00    +0.000 A 
ATOM     16  C   UNL     1       0.072   9.641  22.084  0.00  0.00    +0.000 C 
ATOM     17  O   UNL     1       0.031   9.151  23.205  0.00  0.00    +0.000 OA
ENDROOT
BRANCH   1  19
ATOM     18  C   UNL     1       2.640  10.681  17.590  0.00  0.00    +0.000 C 
ATOM     19  O   UNL     1       1.786   9.531  17.482  0.00  0.00    +0.000 OA
ENDBRANCH   1  19
BRANCH  11  20
ATOM     20  O   UNL     1      -1.039  13.328  19.032  0.00  0.00    +0.000 OA
ATOM     21  H   UNL     1      -1.979  13.499  18.797  0.00  0.00    +0.000 HD
ENDBRANCH  11  20
BRANCH   2  22
ATOM     22  O   UNL     1       2.544   6.778  17.863  0.00  0.00    +0.000 OA
BRANCH  22  23
ATOM     23  C   UNL     1       3.838   6.162  18.022  0.00  0.00    +0.000 C 
ATOM     24  O   UNL     1       4.858   7.103  17.696  0.00  0.00    +0.000 OA
ATOM     25  C   UNL     1       6.189   6.622  17.913  0.00  0.00    +0.000 C 
ATOM     26  C   UNL     1       6.466   5.426  16.999  0.00  0.00    +0.000 C 
ATOM     27  C   UNL     1       5.453   4.311  17.255  0.00  0.00    +0.000 C 
ATOM     28  C   UNL     1       3.993   4.771  17.349  0.00  0.00    +0.000 C 
BRANCH  26  29
ATOM     29  O   UNL     1       7.781   4.912  17.245  0.00  0.00    +0.000 OA
ATOM     30  H   UNL     1       8.259   5.604  17.744  0.00  0.00    +0.000 HD
ENDBRANCH  26  29
BRANCH  27  31
ATOM     31  O   UNL     1       5.567   3.325  16.207  0.00  0.00    +0.000 OA
ATOM     32  H   UNL     1       6.006   3.743  15.440  0.00  0.00    +0.000 HD
ENDBRANCH  27  31
BRANCH  28  33
ATOM     33  O   UNL     1       3.255   3.773  18.091  0.00  0.00    +0.000 OA
ATOM     34  H   UNL     1       2.749   4.250  18.777  0.00  0.00    +0.000 HD
ENDBRANCH  28  33
BRANCH  25  35
ATOM     35  C   UNL     1       7.112   7.798  17.576  0.00  0.00    +0.000 C 
BRANCH  35  36
ATOM     36  O   UNL     1       8.286   7.718  18.388  0.00  0.00    +0.000 OA
ATOM     37  H   UNL     1       8.810   8.492  18.097  0.00  0.00    +0.000 HD
ENDBRANCH  35  36
ENDBRANCH  25  35
ENDBRANCH  22  23
ENDBRANCH   2  22
TORSDOF 9
ENDMDL
MODEL 7
REMARK VINA RESULT:      -6.8      4.591      7.720
REMARK  Name = 
REMARK  11 active torsions:
REMARK  status: ('A' for Active; 'I' for Inactive)
REMARK    1  A    between atoms: C_1  and  O_2
REMARK    2  A    between atoms: O_2  and  C_3
REMARK    3  A    between atoms: C_4  and  O_5
REMARK    4  A    between atoms: O_5  and  C_6
REMARK    5  A    between atoms: C_8  and  C_9
REMARK    6  A    between atoms: C_9  and  O_10
REMARK    7  A    between atoms: C_11  and  O_12
REMARK    8  A    between atoms: C_13  and  O_14
REMARK    9  A    between atoms: C_15  and  O_16
REMARK   10  A    between atoms: C_17  and  C_18
REMARK   11  A    between atoms: C_25  and  O_26
REMARK                            x       y       z     vdW  Elec       q    Type
REMARK                         _______ _______ _______ _____ _____    ______ ____
ROOT
ATOM      1  C   UNL     1       0.247  12.398  19.579  0.00  0.00    +0.000 A 
ATOM      2  C   UNL     1      -0.969  12.227  20.275  0.00  0.00    +0.000 A 
ATOM      3  C   UNL     1      -1.141  12.863  21.527  0.00  0.00    +0.000 A 
ATOM      4  C   UNL     1      -2.373  12.655  22.374  0.00  0.00    +0.000 C 
ATOM      5  C   UNL     1      -0.139  13.714  22.027  0.00  0.00    +0.000 A 
ATOM      6  C   UNL     1       0.988  14.002  21.256  0.00  0.00    +0.000 A 
ATOM      7  C   UNL     1       1.135  13.399  20.011  0.00  0.00    +0.000 A 
ATOM      8  C   UNL     1       2.179  13.924  19.117  0.00  0.00    +0.000 C 
ATOM      9  O   UNL     1       2.088  13.843  17.893  0.00  0.00    +0.000 OA
ATOM     10  C   UNL     1       3.346  14.597  19.682  0.00  0.00    +0.000 A 
ATOM     11  C   UNL     1       4.514  14.743  18.924  0.00  0.00    +0.000 A 
ATOM     12  C   UNL     1       5.597  15.439  19.439  0.00  0.00    +0.000 A 
ATOM     13  C   UNL     1       5.514  16.000  20.713  0.00  0.00    +0.000 A 
ATOM     14  C   UNL     1       4.356  15.835  21.484  0.00  0.00    +0.000 A 
ATOM     15  C   UNL     1       3.270  15.120  20.969  0.00  0.00    +0.000 A 
ATOM     16  C   UNL     1       2.039  14.916  21.770  0.00  0.00    +0.000 C 
ATOM     17  O   UNL     1       1.913  15.459  22.861  0.00  0.00    +0.000 OA
ENDROOT
BRANCH   1  19
ATOM     18  C   UNL     1       1.113  10.327  18.790  0.00  0.00    +0.000 C 
ATOM     19  O   UNL     1       0.500  11.593  18.497  0.00  0.00    +0.000 OA
ENDBRANCH   1  19
BRANCH  11  20
ATOM     20  O   UNL     1       4.656  14.210  17.671  0.00  0.00    +0.000 OA
ATOM     21  H   UNL     1       4.426  14.905  17.014  0.00  0.00    +0.000 HD
ENDBRANCH  11  20
BRANCH   2  22
ATOM     22  O   UNL     1      -2.026  11.452  19.875  0.00  0.00    +0.000 OA
BRANCH  22  23
ATOM     23  C   UNL     1      -3.049  11.935  18.982  0.00  0.00    +0.000 C 
ATOM     24  O   UNL     1      -4.318  11.864  19.626  0.00  0.00    +0.000 OA
ATOM     25  C   UNL     1      -5.397  12.411  18.858  0.00  0.00    +0.000 C 
ATOM     26  C   UNL     1      -5.578  11.607  17.569  0.00  0.00    +0.000 C 
ATOM     27  C   UNL     1      -4.289  11.614  16.748  0.00  0.00    +0.000 C 
ATOM     28  C   UNL     1      -3.010  11.336  17.548  0.00  0.00    +0.000 C 
BRANCH  26  29
ATOM     29  O   UNL     1      -6.625  12.179  16.776  0.00  0.00    +0.000 OA
ATOM     30  H   UNL     1      -7.315  11.492  16.692  0.00  0.00    +0.000 HD
ENDBRANCH  26  29
BRANCH  27  31
ATOM     31  O   UNL     1      -4.401  10.638  15.692  0.00  0.00    +0.000 OA
ATOM     32  H   UNL     1      -4.995  10.999  15.004  0.00  0.00    +0.000 HD
ENDBRANCH  27  31
BRANCH  28  33
ATOM     33  O   UNL     1      -1.892  11.881  16.811  0.00  0.00    +0.000 OA
ATOM     34  H   UNL     1      -1.130  11.892  17.422  0.00  0.00    +0.000 HD
ENDBRANCH  28  33
BRANCH  25  35
ATOM     35  C   UNL     1      -6.636  12.303  19.754  0.00  0.00    +0.000 C 
BRANCH  35  36
ATOM     36  O   UNL     1      -7.422  11.186  19.330  0.00  0.00    +0.000 OA
ATOM     37  H   UNL     1      -7.901  10.930  20.145  0.00  0.00    +0.000 HD
ENDBRANCH  35  36
ENDBRANCH  25  35
ENDBRANCH  22  23
ENDBRANCH   2  22
TORSDOF 9
ENDMDL
MODEL 8
REMARK VINA RESULT:      -6.6      2.695      8.582
REMARK  Name = 
REMARK  11 active torsions:
REMARK  status: ('A' for Active; 'I' for Inactive)
REMARK    1  A    between atoms: C_1  and  O_2
REMARK    2  A    between atoms: O_2  and  C_3
REMARK    3  A    between atoms: C_4  and  O_5
REMARK    4  A    between atoms: O_5  and  C_6
REMARK    5  A    between atoms: C_8  and  C_9
REMARK    6  A    between atoms: C_9  and  O_10
REMARK    7  A    between atoms: C_11  and  O_12
REMARK    8  A    between atoms: C_13  and  O_14
REMARK    9  A    between atoms: C_15  and  O_16
REMARK   10  A    between atoms: C_17  and  C_18
REMARK   11  A    between atoms: C_25  and  O_26
REMARK                            x       y       z     vdW  Elec       q    Type
REMARK                         _______ _______ _______ _____ _____    ______ ____
ROOT
ATOM      1  C   UNL     1       2.741   7.261  18.481  0.00  0.00    +0.000 A 
ATOM      2  C   UNL     1       2.871   5.903  18.840  0.00  0.00    +0.000 A 
ATOM      3  C   UNL     1       2.360   5.468  20.086  0.00  0.00    +0.000 A 
ATOM      4  C   UNL     1       2.541   4.053  20.582  0.00  0.00    +0.000 C 
ATOM      5  C   UNL     1       1.665   6.368  20.913  0.00  0.00    +0.000 A 
ATOM      6  C   UNL     1       1.402   7.667  20.476  0.00  0.00    +0.000 A 
ATOM      7  C   UNL     1       1.879   8.077  19.235  0.00  0.00    +0.000 A 
ATOM      8  C   UNL     1       1.361   9.342  18.689  0.00  0.00    +0.000 C 
ATOM      9  O   UNL     1       1.302   9.551  17.479  0.00  0.00    +0.000 OA
ATOM     10  C   UNL     1       0.865  10.374  19.597  0.00  0.00    +0.000 A 
ATOM     11  C   UNL     1       0.748  11.699  19.163  0.00  0.00    +0.000 A 
ATOM     12  C   UNL     1       0.215  12.665  20.005  0.00  0.00    +0.000 A 
ATOM     13  C   UNL     1      -0.210  12.305  21.284  0.00  0.00    +0.000 A 
ATOM     14  C   UNL     1      -0.073  10.984  21.730  0.00  0.00    +0.000 A 
ATOM     15  C   UNL     1       0.478  10.015  20.884  0.00  0.00    +0.000 A 
ATOM     16  C   UNL     1       0.651   8.614  21.337  0.00  0.00    +0.000 C 
ATOM     17  O   UNL     1       0.219   8.257  22.426  0.00  0.00    +0.000 OA
ENDROOT
BRANCH   1  19
ATOM     18  C   UNL     1       4.743   8.268  17.682  0.00  0.00    +0.000 C 
ATOM     19  O   UNL     1       3.445   7.722  17.397  0.00  0.00    +0.000 OA
ENDBRANCH   1  19
BRANCH  11  20
ATOM     20  O   UNL     1       1.154  12.112  17.923  0.00  0.00    +0.000 OA
ATOM     21  H   UNL     1       2.092  11.843  17.801  0.00  0.00    +0.000 HD
ENDBRANCH  11  20
BRANCH   2  22
ATOM     22  O   UNL     1       3.497   4.930  18.105  0.00  0.00    +0.000 OA
BRANCH  22  23
ATOM     23  C   UNL     1       4.697   5.180  17.348  0.00  0.00    +0.000 C 
ATOM     24  O   UNL     1       4.554   4.645  16.035  0.00  0.00    +0.000 OA
ATOM     25  C   UNL     1       5.658   4.922  15.165  0.00  0.00    +0.000 C 
ATOM     26  C   UNL     1       6.928   4.266  15.709  0.00  0.00    +0.000 C 
ATOM     27  C   UNL     1       7.228   4.768  17.120  0.00  0.00    +0.000 C 
ATOM     28  C   UNL     1       6.022   4.802  18.066  0.00  0.00    +0.000 C 
BRANCH  26  29
ATOM     29  O   UNL     1       8.044   4.580  14.867  0.00  0.00    +0.000 OA
ATOM     30  H   UNL     1       7.785   4.327  13.959  0.00  0.00    +0.000 HD
ENDBRANCH  26  29
BRANCH  27  31
ATOM     31  O   UNL     1       8.257   3.942  17.703  0.00  0.00    +0.000 OA
ATOM     32  H   UNL     1       7.938   3.017  17.712  0.00  0.00    +0.000 HD
ENDBRANCH  27  31
BRANCH  28  33
ATOM     33  O   UNL     1       6.304   5.750  19.121  0.00  0.00    +0.000 OA
ATOM     34  H   UNL     1       7.214   6.074  18.972  0.00  0.00    +0.000 HD
ENDBRANCH  28  33
BRANCH  25  35
ATOM     35  C   UNL     1       5.270   4.330  13.805  0.00  0.00    +0.000 C 
BRANCH  35  36
ATOM     36  O   UNL     1       6.142   3.238  13.506  0.00  0.00    +0.000 OA
ATOM     37  H   UNL     1       6.859   3.660  12.991  0.00  0.00    +0.000 HD
ENDBRANCH  35  36
ENDBRANCH  25  35
ENDBRANCH  22  23
ENDBRANCH   2  22
TORSDOF 9
ENDMDL
MODEL 9
REMARK VINA RESULT:      -6.5      1.411      3.118
REMARK  Name = 
REMARK  11 active torsions:
REMARK  status: ('A' for Active; 'I' for Inactive)
REMARK    1  A    between atoms: C_1  and  O_2
REMARK    2  A    between atoms: O_2  and  C_3
REMARK    3  A    between atoms: C_4  and  O_5
REMARK    4  A    between atoms: O_5  and  C_6
REMARK    5  A    between atoms: C_8  and  C_9
REMARK    6  A    between atoms: C_9  and  O_10
REMARK    7  A    between atoms: C_11  and  O_12
REMARK    8  A    between atoms: C_13  and  O_14
REMARK    9  A    between atoms: C_15  and  O_16
REMARK   10  A    between atoms: C_17  and  C_18
REMARK   11  A    between atoms: C_25  and  O_26
REMARK                            x       y       z     vdW  Elec       q    Type
REMARK                         _______ _______ _______ _____ _____    ______ ____
ROOT
ATOM      1  C   UNL     1       1.895   8.573  19.363  0.00  0.00    +0.000 A 
ATOM      2  C   UNL     1       1.234   9.128  20.480  0.00  0.00    +0.000 A 
ATOM      3  C   UNL     1       0.741   8.264  21.487  0.00  0.00    +0.000 A 
ATOM      4  C   UNL     1      -0.056   8.772  22.664  0.00  0.00    +0.000 C 
ATOM      5  C   UNL     1       0.980   6.881  21.405  0.00  0.00    +0.000 A 
ATOM      6  C   UNL     1       1.773   6.363  20.380  0.00  0.00    +0.000 A 
ATOM      7  C   UNL     1       2.282   7.222  19.412  0.00  0.00    +0.000 A 
ATOM      8  C   UNL     1       3.324   6.698  18.514  0.00  0.00    +0.000 C 
ATOM      9  O   UNL     1       4.165   7.432  17.997  0.00  0.00    +0.000 OA
ATOM     10  C   UNL     1       3.398   5.263  18.249  0.00  0.00    +0.000 A 
ATOM     11  C   UNL     1       4.086   4.787  17.127  0.00  0.00    +0.000 A 
ATOM     12  C   UNL     1       4.211   3.422  16.913  0.00  0.00    +0.000 A 
ATOM     13  C   UNL     1       3.653   2.527  17.826  0.00  0.00    +0.000 A 
ATOM     14  C   UNL     1       2.943   3.001  18.938  0.00  0.00    +0.000 A 
ATOM     15  C   UNL     1       2.806   4.378  19.143  0.00  0.00    +0.000 A 
ATOM     16  C   UNL     1       2.045   4.905  20.301  0.00  0.00    +0.000 C 
ATOM     17  O   UNL     1       1.609   4.144  21.155  0.00  0.00    +0.000 OA
ENDROOT
BRANCH   1  19
ATOM     18  C   UNL     1       1.048   9.598  17.390  0.00  0.00    +0.000 C 
ATOM     19  O   UNL     1       2.150   9.383  18.285  0.00  0.00    +0.000 OA
ENDBRANCH   1  19
BRANCH  11  20
ATOM     20  O   UNL     1       4.649   5.616  16.195  0.00  0.00    +0.000 OA
ATOM     21  H   UNL     1       5.573   5.319  16.036  0.00  0.00    +0.000 HD
ENDBRANCH  11  20
BRANCH   2  22
ATOM     22  O   UNL     1       0.972  10.458  20.685  0.00  0.00    +0.000 OA
BRANCH  22  23
ATOM     23  C   UNL     1      -0.366  10.993  20.694  0.00  0.00    +0.000 C 
ATOM     24  O   UNL     1      -0.843  11.107  19.356  0.00  0.00    +0.000 OA
ATOM     25  C   UNL     1      -2.204  11.542  19.255  0.00  0.00    +0.000 C 
ATOM     26  C   UNL     1      -2.346  12.951  19.833  0.00  0.00    +0.000 C 
ATOM     27  C   UNL     1      -1.889  12.980  21.291  0.00  0.00    +0.000 C 
ATOM     28  C   UNL     1      -0.564  12.261  21.569  0.00  0.00    +0.000 C 
BRANCH  26  29
ATOM     29  O   UNL     1      -3.714  13.371  19.776  0.00  0.00    +0.000 OA
ATOM     30  H   UNL     1      -3.750  14.114  19.142  0.00  0.00    +0.000 HD
ENDBRANCH  26  29
BRANCH  27  31
ATOM     31  O   UNL     1      -1.776  14.353  21.720  0.00  0.00    +0.000 OA
ATOM     32  H   UNL     1      -2.341  14.474  22.509  0.00  0.00    +0.000 HD
ENDBRANCH  27  31
BRANCH  28  33
ATOM     33  O   UNL     1      -0.529  11.909  22.971  0.00  0.00    +0.000 OA
ATOM     34  H   UNL     1      -1.243  12.414  23.406  0.00  0.00    +0.000 HD
ENDBRANCH  28  33
BRANCH  25  35
ATOM     35  C   UNL     1      -2.531  11.525  17.757  0.00  0.00    +0.000 C 
BRANCH  35  36
ATOM     36  O   UNL     1      -1.559  12.306  17.058  0.00  0.00    +0.000 OA
ATOM     37  H   UNL     1      -0.779  11.714  17.028  0.00  0.00    +0.000 HD
ENDBRANCH  35  36
ENDBRANCH  25  35
ENDBRANCH  22  23
ENDBRANCH   2  22
TORSDOF 9
ENDMDL
