MODEL 1
REMARK VINA RESULT:      -7.2      0.000      0.000
REMARK  Name = 
REMARK  8 active torsions:
REMARK  status: ('A' for Active; 'I' for Inactive)
REMARK    1  A    between atoms: C_1  and  C_2
REMARK    2  A    between atoms: C_5  and  C_6
REMARK    3  A    between atoms: C_8  and  C_9
REMARK    4  A    between atoms: N_11  and  C_12
REMARK    5  A    between atoms: C_12  and  C_13
REMARK    6  A    between atoms: C_20  and  O_21
REMARK    7  A    between atoms: N_24  and  C_25
REMARK    8  A    between atoms: N_26  and  C_27
REMARK                            x       y       z     vdW  Elec       q    Type
REMARK                         _______ _______ _______ _____ _____    ______ ____
ROOT
ATOM      1  C   UNL     1       0.704  12.395  20.946  0.00  0.00    +0.000 A 
ATOM      2  N   UNL     1       1.195  11.576  20.055  0.00  0.00    +0.000 NA
ATOM      3  C   UNL     1       0.802  10.252  20.113  0.00  0.00    +0.000 A 
ATOM      4  C   UNL     1       0.028   9.715  21.075  0.00  0.00    +0.000 A 
ATOM      5  C   UNL     1      -0.473  10.643  22.116  0.00  0.00    +0.000 A 
ATOM      6  O   UNL     1      -1.120  10.208  23.070  0.00  0.00    +0.000 OA
ATOM      7  N   UNL     1      -0.175  11.983  21.938  0.00  0.00    +0.000 N 
ATOM      8  C   UNL     1      -0.822  12.908  22.861  0.00  0.00    +0.000 C 
ENDROOT
BRANCH   1  13
ATOM      9  C   UNL     1       1.337  16.560  18.397  0.00  0.00    +0.000 C 
ATOM     10  C   UNL     1       1.606  15.175  18.978  0.00  0.00    +0.000 C 
ATOM     11  C   UNL     1       2.852  15.197  19.856  0.00  0.00    +0.000 C 
ATOM     12  C   UNL     1       2.662  14.020  20.791  0.00  0.00    +0.000 C 
ATOM     13  C   UNL     1       1.145  13.886  20.947  0.00  0.00    +0.000 C 
ATOM     14  N   UNL     1       0.548  14.743  19.898  0.00  0.00    +0.000 NA
ATOM     15  C   UNL     1      -0.654  14.255  19.245  0.00  0.00    +0.000 C 
ENDBRANCH   1  13
BRANCH   3  16
ATOM     16  C   UNL     1       1.261   9.291  19.035  0.00  0.00    +0.000 C 
ATOM     17  O   UNL     1       0.944   9.449  17.856  0.00  0.00    +0.000 OA
ATOM     18  N   UNL     1       2.051   8.256  19.456  0.00  0.00    +0.000 N 
ATOM     19  H   UNL     1       2.263   8.189  20.446  0.00  0.00    +0.000 HD
BRANCH  18  20
ATOM     20  C   UNL     1       2.520   7.246  18.534  0.00  0.00    +0.000 C 
BRANCH  20  21
ATOM     21  C   UNL     1       2.144   5.857  18.978  0.00  0.00    +0.000 A 
ATOM     22  C   UNL     1       1.884   5.591  20.331  0.00  0.00    +0.000 A 
ATOM     23  C   UNL     1       1.513   4.309  20.738  0.00  0.00    +0.000 A 
ATOM     24  C   UNL     1       1.406   3.293  19.796  0.00  0.00    +0.000 A 
ATOM     25  F   UNL     1       1.045   2.065  20.190  0.00  0.00    +0.000 F 
ATOM     26  C   UNL     1       1.667   3.533  18.452  0.00  0.00    +0.000 A 
ATOM     27  C   UNL     1       2.040   4.814  18.043  0.00  0.00    +0.000 A 
ENDBRANCH  20  21
ENDBRANCH  18  20
ENDBRANCH   3  16
BRANCH   4  28
ATOM     28  O   UNL     1      -0.358   8.386  21.172  0.00  0.00    +0.000 OA
ATOM     29  H   UNL     1       0.435   7.845  21.381  0.00  0.00    +0.000 HD
ENDBRANCH   4  28
TORSDOF 5
ENDMDL
MODEL 2
REMARK VINA RESULT:      -7.1      0.542      1.087
REMARK  Name = 
REMARK  8 active torsions:
REMARK  status: ('A' for Active; 'I' for Inactive)
REMARK    1  A    between atoms: C_1  and  C_2
REMARK    2  A    between atoms: C_5  and  C_6
REMARK    3  A    between atoms: C_8  and  C_9
REMARK    4  A    between atoms: N_11  and  C_12
REMARK    5  A    between atoms: C_12  and  C_13
REMARK    6  A    between atoms: C_20  and  O_21
REMARK    7  A    between atoms: N_24  and  C_25
REMARK    8  A    between atoms: N_26  and  C_27
REMARK                            x       y       z     vdW  Elec       q    Type
REMARK                         _______ _______ _______ _____ _____    ______ ____
ROOT
ATOM      1  C   UNL     1       0.358  12.306  21.036  0.00  0.00    +0.000 A 
ATOM      2  N   UNL     1       0.892  11.547  20.118  0.00  0.00    +0.000 NA
ATOM      3  C   UNL     1       0.693  10.182  20.215  0.00  0.00    +0.000 A 
ATOM      4  C   UNL     1       0.075   9.561  21.237  0.00  0.00    +0.000 A 
ATOM      5  C   UNL     1      -0.475  10.430  22.305  0.00  0.00    +0.000 A 
ATOM      6  O   UNL     1      -0.983   9.927  23.308  0.00  0.00    +0.000 OA
ATOM      7  N   UNL     1      -0.381  11.795  22.094  0.00  0.00    +0.000 N 
ATOM      8  C   UNL     1      -1.081  12.638  23.055  0.00  0.00    +0.000 C 
ENDROOT
BRANCH   1  13
ATOM      9  C   UNL     1      -0.111  16.522  18.535  0.00  0.00    +0.000 C 
ATOM     10  C   UNL     1       0.455  15.186  19.008  0.00  0.00    +0.000 C 
ATOM     11  C   UNL     1       1.840  15.379  19.616  0.00  0.00    +0.000 C 
ATOM     12  C   UNL     1       2.005  14.186  20.535  0.00  0.00    +0.000 C 
ATOM     13  C   UNL     1       0.584  13.844  20.991  0.00  0.00    +0.000 C 
ATOM     14  N   UNL     1      -0.324  14.612  20.110  0.00  0.00    +0.000 NA
ATOM     15  C   UNL     1      -1.558  13.964  19.700  0.00  0.00    +0.000 C 
ENDBRANCH   1  13
BRANCH   3  16
ATOM     16  C   UNL     1       1.203   9.274  19.114  0.00  0.00    +0.000 C 
ATOM     17  O   UNL     1       0.913   9.470  17.934  0.00  0.00    +0.000 OA
ATOM     18  N   UNL     1       2.005   8.241  19.517  0.00  0.00    +0.000 N 
ATOM     19  H   UNL     1       2.193   8.140  20.508  0.00  0.00    +0.000 HD
BRANCH  18  20
ATOM     20  C   UNL     1       2.521   7.279  18.569  0.00  0.00    +0.000 C 
BRANCH  20  21
ATOM     21  C   UNL     1       2.168   5.865  18.951  0.00  0.00    +0.000 A 
ATOM     22  C   UNL     1       2.031   4.877  17.964  0.00  0.00    +0.000 A 
ATOM     23  C   UNL     1       1.727   3.563  18.322  0.00  0.00    +0.000 A 
ATOM     24  C   UNL     1       1.556   3.237  19.663  0.00  0.00    +0.000 A 
ATOM     25  F   UNL     1       1.270   1.974  20.002  0.00  0.00    +0.000 F 
ATOM     26  C   UNL     1       1.680   4.202  20.655  0.00  0.00    +0.000 A 
ATOM     27  C   UNL     1       1.982   5.518  20.300  0.00  0.00    +0.000 A 
ENDBRANCH  20  21
ENDBRANCH  18  20
ENDBRANCH   3  16
BRANCH   4  28
ATOM     28  O   UNL     1      -0.114   8.194  21.374  0.00  0.00    +0.000 OA
ATOM     29  H   UNL     1      -1.079   8.014  21.420  0.00  0.00    +0.000 HD
ENDBRANCH   4  28
TORSDOF 5
ENDMDL
MODEL 3
REMARK VINA RESULT:      -7.0      2.856      4.083
REMARK  Name = 
REMARK  8 active torsions:
REMARK  status: ('A' for Active; 'I' for Inactive)
REMARK    1  A    between atoms: C_1  and  C_2
REMARK    2  A    between atoms: C_5  and  C_6
REMARK    3  A    between atoms: C_8  and  C_9
REMARK    4  A    between atoms: N_11  and  C_12
REMARK    5  A    between atoms: C_12  and  C_13
REMARK    6  A    between atoms: C_20  and  O_21
REMARK    7  A    between atoms: N_24  and  C_25
REMARK    8  A    between atoms: N_26  and  C_27
REMARK                            x       y       z     vdW  Elec       q    Type
REMARK                         _______ _______ _______ _____ _____    ______ ____
ROOT
ATOM      1  C   UNL     1      -0.978  11.321  19.151  0.00  0.00    +0.000 A 
ATOM      2  N   UNL     1      -0.849  10.078  19.528  0.00  0.00    +0.000 NA
ATOM      3  C   UNL     1       0.059   9.801  20.534  0.00  0.00    +0.000 A 
ATOM      4  C   UNL     1       0.895  10.698  21.091  0.00  0.00    +0.000 A 
ATOM      5  C   UNL     1       0.781  12.096  20.611  0.00  0.00    +0.000 A 
ATOM      6  O   UNL     1       1.567  12.953  21.019  0.00  0.00    +0.000 OA
ATOM      7  N   UNL     1      -0.238  12.354  19.710  0.00  0.00    +0.000 N 
ATOM      8  C   UNL     1      -0.458  13.758  19.384  0.00  0.00    +0.000 C 
ENDROOT
BRANCH   1  13
ATOM      9  C   UNL     1      -5.615  11.429  17.499  0.00  0.00    +0.000 C 
ATOM     10  C   UNL     1      -4.223  10.908  17.842  0.00  0.00    +0.000 C 
ATOM     11  C   UNL     1      -3.491  10.470  16.579  0.00  0.00    +0.000 C 
ATOM     12  C   UNL     1      -2.026  10.559  16.956  0.00  0.00    +0.000 C 
ATOM     13  C   UNL     1      -1.958  11.679  17.998  0.00  0.00    +0.000 C 
ATOM     14  N   UNL     1      -3.357  11.956  18.393  0.00  0.00    +0.000 NA
ATOM     15  C   UNL     1      -3.605  12.267  19.790  0.00  0.00    +0.000 C 
ENDBRANCH   1  13
BRANCH   3  16
ATOM     16  C   UNL     1       0.162   8.390  21.076  0.00  0.00    +0.000 C 
ATOM     17  O   UNL     1      -0.702   7.921  21.817  0.00  0.00    +0.000 OA
ATOM     18  N   UNL     1       1.263   7.679  20.682  0.00  0.00    +0.000 N 
ATOM     19  H   UNL     1       1.936   8.137  20.076  0.00  0.00    +0.000 HD
BRANCH  18  20
ATOM     20  C   UNL     1       1.501   6.337  21.164  0.00  0.00    +0.000 C 
BRANCH  20  21
ATOM     21  C   UNL     1       1.730   5.365  20.037  0.00  0.00    +0.000 A 
ATOM     22  C   UNL     1       1.177   4.076  20.088  0.00  0.00    +0.000 A 
ATOM     23  C   UNL     1       1.370   3.185  19.032  0.00  0.00    +0.000 A 
ATOM     24  C   UNL     1       2.119   3.578  17.928  0.00  0.00    +0.000 A 
ATOM     25  F   UNL     1       2.297   2.721  16.915  0.00  0.00    +0.000 F 
ATOM     26  C   UNL     1       2.682   4.847  17.861  0.00  0.00    +0.000 A 
ATOM     27  C   UNL     1       2.491   5.740  18.917  0.00  0.00    +0.000 A 
ENDBRANCH  20  21
ENDBRANCH  18  20
ENDBRANCH   3  16
BRANCH   4  28
ATOM     28  O   UNL     1       1.832  10.442  22.080  0.00  0.00    +0.000 OA
ATOM     29  H   UNL     1       2.680  10.867  21.825  0.00  0.00    +0.000 HD
ENDBRANCH   4  28
TORSDOF 5
ENDMDL
MODEL 4
REMARK VINA RESULT:      -6.8      3.632      8.402
REMARK  Name = 
REMARK  8 active torsions:
REMARK  status: ('A' for Active; 'I' for Inactive)
REMARK    1  A    between atoms: C_1  and  C_2
REMARK    2  A    between atoms: C_5  and  C_6
REMARK    3  A    between atoms: C_8  and  C_9
REMARK    4  A    between atoms: N_11  and  C_12
REMARK    5  A    between atoms: C_12  and  C_13
REMARK    6  A    between atoms: C_20  and  O_21
REMARK    7  A    between atoms: N_24  and  C_25
REMARK    8  A    between atoms: N_26  and  C_27
REMARK                            x       y       z     vdW  Elec       q    Type
REMARK                         _______ _______ _______ _____ _____    ______ ____
ROOT
ATOM      1  C   UNL     1       3.966   4.857  18.481  0.00  0.00    +0.000 A 
ATOM      2  N   UNL     1       3.487   6.021  18.135  0.00  0.00    +0.000 NA
ATOM      3  C   UNL     1       2.601   6.635  19.002  0.00  0.00    +0.000 A 
ATOM      4  C   UNL     1       2.115   6.084  20.130  0.00  0.00    +0.000 A 
ATOM      5  C   UNL     1       2.620   4.736  20.480  0.00  0.00    +0.000 A 
ATOM      6  O   UNL     1       2.161   4.139  21.455  0.00  0.00    +0.000 OA
ATOM      7  N   UNL     1       3.613   4.222  19.664  0.00  0.00    +0.000 N 
ATOM      8  C   UNL     1       4.231   2.982  20.116  0.00  0.00    +0.000 C 
ENDROOT
BRANCH   1  13
ATOM      9  C   UNL     1       7.674   5.126  15.251  0.00  0.00    +0.000 C 
ATOM     10  C   UNL     1       6.260   5.162  15.823  0.00  0.00    +0.000 C 
ATOM     11  C   UNL     1       5.386   4.109  15.152  0.00  0.00    +0.000 C 
ATOM     12  C   UNL     1       4.287   3.848  16.162  0.00  0.00    +0.000 C 
ATOM     13  C   UNL     1       4.937   4.109  17.523  0.00  0.00    +0.000 C 
ATOM     14  N   UNL     1       6.223   4.784  17.240  0.00  0.00    +0.000 NA
ATOM     15  C   UNL     1       6.638   5.834  18.154  0.00  0.00    +0.000 C 
ENDBRANCH   1  13
BRANCH   3  16
ATOM     16  C   UNL     1       2.104   8.033  18.692  0.00  0.00    +0.000 C 
ATOM     17  O   UNL     1       2.174   8.502  17.556  0.00  0.00    +0.000 OA
ATOM     18  N   UNL     1       1.571   8.723  19.747  0.00  0.00    +0.000 N 
ATOM     19  H   UNL     1       1.556   8.271  20.655  0.00  0.00    +0.000 HD
BRANCH  18  20
ATOM     20  C   UNL     1       1.101  10.082  19.594  0.00  0.00    +0.000 C 
BRANCH  20  21
ATOM     21  C   UNL     1       0.199  10.498  20.726  0.00  0.00    +0.000 A 
ATOM     22  C   UNL     1      -0.687  11.574  20.567  0.00  0.00    +0.000 A 
ATOM     23  C   UNL     1      -1.540  11.943  21.608  0.00  0.00    +0.000 A 
ATOM     24  C   UNL     1      -1.503  11.241  22.808  0.00  0.00    +0.000 A 
ATOM     25  F   UNL     1      -2.327  11.596  23.803  0.00  0.00    +0.000 F 
ATOM     26  C   UNL     1      -0.628  10.178  22.988  0.00  0.00    +0.000 A 
ATOM     27  C   UNL     1       0.226   9.807  21.949  0.00  0.00    +0.000 A 
ENDBRANCH  20  21
ENDBRANCH  18  20
ENDBRANCH   3  16
BRANCH   4  28
ATOM     28  O   UNL     1       1.206   6.666  21.001  0.00  0.00    +0.000 OA
ATOM     29  H   UNL     1       1.301   7.642  20.947  0.00  0.00    +0.000 HD
ENDBRANCH   4  28
TORSDOF 5
ENDMDL
MODEL 5
REMARK VINA RESULT:      -6.6      3.830      8.252
REMARK  Name = 
REMARK  8 active torsions:
REMARK  status: ('A' for Active; 'I' for Inactive)
REMARK    1  A    between atoms: C_1  and  C_2
REMARK    2  A    between atoms: C_5  and  C_6
REMARK    3  A    between atoms: C_8  and  C_9
REMARK    4  A    between atoms: N_11  and  C_12
REMARK    5  A    between atoms: C_12  and  C_13
REMARK    6  A    between atoms: C_20  and  O_21
REMARK    7  A    between atoms: N_24  and  C_25
REMARK    8  A    between atoms: N_26  and  C_27
REMARK                            x       y       z     vdW  Elec       q    Type
REMARK                         _______ _______ _______ _____ _____    ______ ____
ROOT
ATOM      1  C   UNL     1       3.837   5.169  18.336  0.00  0.00    +0.000 A 
ATOM      2  N   UNL     1       3.436   6.343  17.929  0.00  0.00    +0.000 NA
ATOM      3  C   UNL     1       2.591   7.058  18.758  0.00  0.00    +0.000 A 
ATOM      4  C   UNL     1       2.068   6.600  19.911  0.00  0.00    +0.000 A 
ATOM      5  C   UNL     1       2.482   5.241  20.332  0.00  0.00    +0.000 A 
ATOM      6  O   UNL     1       1.982   4.727  21.334  0.00  0.00    +0.000 OA
ATOM      7  N   UNL     1       3.440   4.621  19.548  0.00  0.00    +0.000 N 
ATOM      8  C   UNL     1       3.974   3.368  20.067  0.00  0.00    +0.000 C 
ENDROOT
BRANCH   1  13
ATOM      9  C   UNL     1       7.638   5.011  15.209  0.00  0.00    +0.000 C 
ATOM     10  C   UNL     1       6.218   5.193  15.740  0.00  0.00    +0.000 C 
ATOM     11  C   UNL     1       5.267   4.210  15.067  0.00  0.00    +0.000 C 
ATOM     12  C   UNL     1       4.122   4.079  16.050  0.00  0.00    +0.000 C 
ATOM     13  C   UNL     1       4.757   4.310  17.423  0.00  0.00    +0.000 C 
ATOM     14  N   UNL     1       6.109   4.855  17.162  0.00  0.00    +0.000 NA
ATOM     15  C   UNL     1       6.597   5.884  18.064  0.00  0.00    +0.000 C 
ENDBRANCH   1  13
BRANCH   3  16
ATOM     16  C   UNL     1       2.189   8.468  18.375  0.00  0.00    +0.000 C 
ATOM     17  O   UNL     1       2.550   8.972  17.311  0.00  0.00    +0.000 OA
ATOM     18  N   UNL     1       1.398   9.128  19.276  0.00  0.00    +0.000 N 
ATOM     19  H   UNL     1       1.148   8.648  20.134  0.00  0.00    +0.000 HD
BRANCH  18  20
ATOM     20  C   UNL     1       0.981  10.494  19.049  0.00  0.00    +0.000 C 
BRANCH  20  21
ATOM     21  C   UNL     1      -0.470  10.582  18.654  0.00  0.00    +0.000 A 
ATOM     22  C   UNL     1      -1.326  11.489  19.297  0.00  0.00    +0.000 A 
ATOM     23  C   UNL     1      -2.664  11.587  18.913  0.00  0.00    +0.000 A 
ATOM     24  C   UNL     1      -3.147  10.776  17.893  0.00  0.00    +0.000 A 
ATOM     25  F   UNL     1      -4.431  10.877  17.525  0.00  0.00    +0.000 F 
ATOM     26  C   UNL     1      -2.319   9.865  17.249  0.00  0.00    +0.000 A 
ATOM     27  C   UNL     1      -0.980   9.765  17.631  0.00  0.00    +0.000 A 
ENDBRANCH  20  21
ENDBRANCH  18  20
ENDBRANCH   3  16
BRANCH   4  28
ATOM     28  O   UNL     1       1.197   7.284  20.746  0.00  0.00    +0.000 OA
ATOM     29  H   UNL     1       0.474   7.664  20.200  0.00  0.00    +0.000 HD
ENDBRANCH   4  28
TORSDOF 5
ENDMDL
MODEL 6
REMARK VINA RESULT:      -6.5      4.417      6.177
REMARK  Name = 
REMARK  8 active torsions:
REMARK  status: ('A' for Active; 'I' for Inactive)
REMARK    1  A    between atoms: C_1  and  C_2
REMARK    2  A    between atoms: C_5  and  C_6
REMARK    3  A    between atoms: C_8  and  C_9
REMARK    4  A    between atoms: N_11  and  C_12
REMARK    5  A    between atoms: C_12  and  C_13
REMARK    6  A    between atoms: C_20  and  O_21
REMARK    7  A    between atoms: N_24  and  C_25
REMARK    8  A    between atoms: N_26  and  C_27
REMARK                            x       y       z     vdW  Elec       q    Type
REMARK                         _______ _______ _______ _____ _____    ______ ____
ROOT
ATOM      1  C   UNL     1      -5.046  12.466  19.276  0.00  0.00    +0.000 A 
ATOM      2  N   UNL     1      -3.902  12.330  19.892  0.00  0.00    +0.000 NA
ATOM      3  C   UNL     1      -2.817  11.909  19.146  0.00  0.00    +0.000 A 
ATOM      4  C   UNL     1      -2.864  11.531  17.855  0.00  0.00    +0.000 A 
ATOM      5  C   UNL     1      -4.181  11.631  17.183  0.00  0.00    +0.000 A 
ATOM      6  O   UNL     1      -4.315  11.228  16.027  0.00  0.00    +0.000 OA
ATOM      7  N   UNL     1      -5.206  12.194  17.924  0.00  0.00    +0.000 N 
ATOM      8  C   UNL     1      -6.445  12.456  17.201  0.00  0.00    +0.000 C 
ENDROOT
BRANCH   1  13
ATOM      9  C   UNL     1      -6.910  14.992  23.070  0.00  0.00    +0.000 C 
ATOM     10  C   UNL     1      -6.261  13.863  22.274  0.00  0.00    +0.000 C 
ATOM     11  C   UNL     1      -7.123  12.607  22.329  0.00  0.00    +0.000 C 
ATOM     12  C   UNL     1      -6.719  11.832  21.092  0.00  0.00    +0.000 C 
ATOM     13  C   UNL     1      -6.305  12.901  20.078  0.00  0.00    +0.000 C 
ATOM     14  N   UNL     1      -6.189  14.165  20.840  0.00  0.00    +0.000 NA
ATOM     15  C   UNL     1      -5.114  15.068  20.469  0.00  0.00    +0.000 C 
ENDBRANCH   1  13
BRANCH   3  16
ATOM     16  C   UNL     1      -1.449  11.842  19.795  0.00  0.00    +0.000 C 
ATOM     17  O   UNL     1      -0.942  12.829  20.329  0.00  0.00    +0.000 OA
ATOM     18  N   UNL     1      -0.829  10.622  19.755  0.00  0.00    +0.000 N 
ATOM     19  H   UNL     1      -1.307   9.858  19.290  0.00  0.00    +0.000 HD
BRANCH  18  20
ATOM     20  C   UNL     1       0.497  10.437  20.300  0.00  0.00    +0.000 C 
BRANCH  20  21
ATOM     21  C   UNL     1       1.216   9.281  19.655  0.00  0.00    +0.000 A 
ATOM     22  C   UNL     1       1.601   9.349  18.307  0.00  0.00    +0.000 A 
ATOM     23  C   UNL     1       2.289   8.287  17.718  0.00  0.00    +0.000 A 
ATOM     24  C   UNL     1       2.585   7.157  18.472  0.00  0.00    +0.000 A 
ATOM     25  F   UNL     1       3.249   6.142  17.903  0.00  0.00    +0.000 F 
ATOM     26  C   UNL     1       2.206   7.066  19.805  0.00  0.00    +0.000 A 
ATOM     27  C   UNL     1       1.517   8.127  20.397  0.00  0.00    +0.000 A 
ENDBRANCH  20  21
ENDBRANCH  18  20
ENDBRANCH   3  16
BRANCH   4  28
ATOM     28  O   UNL     1      -1.797  11.078  17.093  0.00  0.00    +0.000 OA
ATOM     29  H   UNL     1      -2.138  10.449  16.419  0.00  0.00    +0.000 HD
ENDBRANCH   4  28
TORSDOF 5
ENDMDL
MODEL 7
REMARK VINA RESULT:      -6.5      3.136      4.336
REMARK  Name = 
REMARK  8 active torsions:
REMARK  status: ('A' for Active; 'I' for Inactive)
REMARK    1  A    between atoms: C_1  and  C_2
REMARK    2  A    between atoms: C_5  and  C_6
REMARK    3  A    between atoms: C_8  and  C_9
REMARK    4  A    between atoms: N_11  and  C_12
REMARK    5  A    between atoms: C_12  and  C_13
REMARK    6  A    between atoms: C_20  and  O_21
REMARK    7  A    between atoms: N_24  and  C_25
REMARK    8  A    between atoms: N_26  and  C_27
REMARK                            x       y       z     vdW  Elec       q    Type
REMARK                         _______ _______ _______ _____ _____    ______ ____
ROOT
ATOM      1  C   UNL     1      -2.867  12.432  20.356  0.00  0.00    +0.000 A 
ATOM      2  N   UNL     1      -1.612  12.114  20.187  0.00  0.00    +0.000 NA
ATOM      3  C   UNL     1      -1.242  11.577  18.967  0.00  0.00    +0.000 A 
ATOM      4  C   UNL     1      -2.091  11.263  17.970  0.00  0.00    +0.000 A 
ATOM      5  C   UNL     1      -3.523  11.573  18.198  0.00  0.00    +0.000 A 
ATOM      6  O   UNL     1      -4.365  11.241  17.362  0.00  0.00    +0.000 OA
ATOM      7  N   UNL     1      -3.827  12.241  19.371  0.00  0.00    +0.000 N 
ATOM      8  C   UNL     1      -5.203  12.703  19.503  0.00  0.00    +0.000 C 
ENDROOT
BRANCH   1  13
ATOM      9  C   UNL     1      -2.223  15.748  23.939  0.00  0.00    +0.000 C 
ATOM     10  C   UNL     1      -2.052  14.483  23.102  0.00  0.00    +0.000 C 
ATOM     11  C   UNL     1      -2.391  13.247  23.928  0.00  0.00    +0.000 C 
ATOM     12  C   UNL     1      -2.759  12.205  22.892  0.00  0.00    +0.000 C 
ATOM     13  C   UNL     1      -3.339  13.004  21.722  0.00  0.00    +0.000 C 
ATOM     14  N   UNL     1      -3.003  14.421  21.988  0.00  0.00    +0.000 NA
ATOM     15  C   UNL     1      -2.647  15.245  20.846  0.00  0.00    +0.000 C 
ENDBRANCH   1  13
BRANCH   3  16
ATOM     16  C   UNL     1       0.221  11.294  18.690  0.00  0.00    +0.000 C 
ATOM     17  O   UNL     1       1.094  12.125  18.942  0.00  0.00    +0.000 OA
ATOM     18  N   UNL     1       0.500  10.066  18.156  0.00  0.00    +0.000 N 
ATOM     19  H   UNL     1      -0.276   9.439  17.969  0.00  0.00    +0.000 HD
BRANCH  18  20
ATOM     20  C   UNL     1       1.851   9.689  17.806  0.00  0.00    +0.000 C 
BRANCH  20  21
ATOM     21  C   UNL     1       2.246   8.371  18.417  0.00  0.00    +0.000 A 
ATOM     22  C   UNL     1       3.148   7.524  17.755  0.00  0.00    +0.000 A 
ATOM     23  C   UNL     1       3.532   6.314  18.334  0.00  0.00    +0.000 A 
ATOM     24  C   UNL     1       3.011   5.947  19.570  0.00  0.00    +0.000 A 
ATOM     25  F   UNL     1       3.386   4.787  20.123  0.00  0.00    +0.000 F 
ATOM     26  C   UNL     1       2.110   6.767  20.238  0.00  0.00    +0.000 A 
ATOM     27  C   UNL     1       1.724   7.978  19.661  0.00  0.00    +0.000 A 
ENDBRANCH  20  21
ENDBRANCH  18  20
ENDBRANCH   3  16
BRANCH   4  28
ATOM     28  O   UNL     1      -1.751  10.699  16.750  0.00  0.00    +0.000 OA
ATOM     29  H   UNL     1      -2.561  10.642  16.195  0.00  0.00    +0.000 HD
ENDBRANCH   4  28
TORSDOF 5
ENDMDL
MODEL 8
REMARK VINA RESULT:      -6.5      3.862      5.413
REMARK  Name = 
REMARK  8 active torsions:
REMARK  status: ('A' for Active; 'I' for Inactive)
REMARK    1  A    between atoms: C_1  and  C_2
REMARK    2  A    between atoms: C_5  and  C_6
REMARK    3  A    between atoms: C_8  and  C_9
REMARK    4  A    between atoms: N_11  and  C_12
REMARK    5  A    between atoms: C_12  and  C_13
REMARK    6  A    between atoms: C_20  and  O_21
REMARK    7  A    between atoms: N_24  and  C_25
REMARK    8  A    between atoms: N_26  and  C_27
REMARK                            x       y       z     vdW  Elec       q    Type
REMARK                         _______ _______ _______ _____ _____    ______ ____
ROOT
ATOM      1  C   UNL     1      -4.368  12.615  20.774  0.00  0.00    +0.000 A 
ATOM      2  N   UNL     1      -3.110  12.548  20.429  0.00  0.00    +0.000 NA
ATOM      3  C   UNL     1      -2.814  12.085  19.161  0.00  0.00    +0.000 A 
ATOM      4  C   UNL     1      -3.714  11.603  18.283  0.00  0.00    +0.000 A 
ATOM      5  C   UNL     1      -5.133  11.628  18.709  0.00  0.00    +0.000 A 
ATOM      6  O   UNL     1      -6.001  11.131  17.989  0.00  0.00    +0.000 OA
ATOM      7  N   UNL     1      -5.398  12.232  19.926  0.00  0.00    +0.000 N 
ATOM      8  C   UNL     1      -6.806  12.415  20.253  0.00  0.00    +0.000 C 
ENDROOT
BRANCH   1  13
ATOM      9  C   UNL     1      -4.067  16.117  24.222  0.00  0.00    +0.000 C 
ATOM     10  C   UNL     1      -3.701  14.912  23.361  0.00  0.00    +0.000 C 
ATOM     11  C   UNL     1      -3.561  13.663  24.224  0.00  0.00    +0.000 C 
ATOM     12  C   UNL     1      -3.798  12.521  23.257  0.00  0.00    +0.000 C 
ATOM     13  C   UNL     1      -4.750  13.093  22.203  0.00  0.00    +0.000 C 
ATOM     14  N   UNL     1      -4.767  14.557  22.419  0.00  0.00    +0.000 NA
ATOM     15  C   UNL     1      -4.832  15.402  21.239  0.00  0.00    +0.000 C 
ENDBRANCH   1  13
BRANCH   3  16
ATOM     16  C   UNL     1      -1.376  12.093  18.681  0.00  0.00    +0.000 C 
ATOM     17  O   UNL     1      -0.993  12.876  17.812  0.00  0.00    +0.000 OA
ATOM     18  N   UNL     1      -0.543  11.188  19.281  0.00  0.00    +0.000 N 
ATOM     19  H   UNL     1      -0.934  10.571  19.984  0.00  0.00    +0.000 HD
BRANCH  18  20
ATOM     20  C   UNL     1       0.842  11.065  18.883  0.00  0.00    +0.000 C 
BRANCH  20  21
ATOM     21  C   UNL     1       1.354   9.658  19.046  0.00  0.00    +0.000 A 
ATOM     22  C   UNL     1       2.012   9.015  17.987  0.00  0.00    +0.000 A 
ATOM     23  C   UNL     1       2.506   7.721  18.148  0.00  0.00    +0.000 A 
ATOM     24  C   UNL     1       2.339   7.067  19.363  0.00  0.00    +0.000 A 
ATOM     25  F   UNL     1       2.819   5.826  19.514  0.00  0.00    +0.000 F 
ATOM     26  C   UNL     1       1.683   7.682  20.422  0.00  0.00    +0.000 A 
ATOM     27  C   UNL     1       1.186   8.977  20.264  0.00  0.00    +0.000 A 
ENDBRANCH  20  21
ENDBRANCH  18  20
ENDBRANCH   3  16
BRANCH   4  28
ATOM     28  O   UNL     1      -3.441  11.108  17.016  0.00  0.00    +0.000 OA
ATOM     29  H   UNL     1      -4.252  11.190  16.467  0.00  0.00    +0.000 HD
ENDBRANCH   4  28
TORSDOF 5
ENDMDL
MODEL 9
REMARK VINA RESULT:      -6.5      0.945      1.343
REMARK  Name = 
REMARK  8 active torsions:
REMARK  status: ('A' for Active; 'I' for Inactive)
REMARK    1  A    between atoms: C_1  and  C_2
REMARK    2  A    between atoms: C_5  and  C_6
REMARK    3  A    between atoms: C_8  and  C_9
REMARK    4  A    between atoms: N_11  and  C_12
REMARK    5  A    between atoms: C_12  and  C_13
REMARK    6  A    between atoms: C_20  and  O_21
REMARK    7  A    between atoms: N_24  and  C_25
REMARK    8  A    between atoms: N_26  and  C_27
REMARK                            x       y       z     vdW  Elec       q    Type
REMARK                         _______ _______ _______ _____ _____    ______ ____
ROOT
ATOM      1  C   UNL     1       1.181  13.011  20.484  0.00  0.00    +0.000 A 
ATOM      2  N   UNL     1       1.492  12.073  19.631  0.00  0.00    +0.000 NA
ATOM      3  C   UNL     1       0.858  10.851  19.760  0.00  0.00    +0.000 A 
ATOM      4  C   UNL     1       0.017  10.516  20.757  0.00  0.00    +0.000 A 
ATOM      5  C   UNL     1      -0.280  11.571  21.755  0.00  0.00    +0.000 A 
ATOM      6  O   UNL     1      -0.977  11.312  22.737  0.00  0.00    +0.000 OA
ATOM      7  N   UNL     1       0.261  12.821  21.506  0.00  0.00    +0.000 N 
ATOM      8  C   UNL     1      -0.182  13.894  22.388  0.00  0.00    +0.000 C 
ENDROOT
BRANCH   1  13
ATOM      9  C   UNL     1       2.364  16.945  17.769  0.00  0.00    +0.000 C 
ATOM     10  C   UNL     1       2.416  15.542  18.366  0.00  0.00    +0.000 C 
ATOM     11  C   UNL     1       3.716  15.338  19.136  0.00  0.00    +0.000 C 
ATOM     12  C   UNL     1       3.389  14.232  20.118  0.00  0.00    +0.000 C 
ATOM     13  C   UNL     1       1.894  14.391  20.404  0.00  0.00    +0.000 C 
ATOM     14  N   UNL     1       1.380  15.332  19.383  0.00  0.00    +0.000 NA
ATOM     15  C   UNL     1       0.055  15.074  18.847  0.00  0.00    +0.000 C 
ENDBRANCH   1  13
BRANCH   3  16
ATOM     16  C   UNL     1       1.107   9.769  18.728  0.00  0.00    +0.000 C 
ATOM     17  O   UNL     1       0.328   9.584  17.792  0.00  0.00    +0.000 OA
ATOM     18  N   UNL     1       2.246   9.032  18.900  0.00  0.00    +0.000 N 
ATOM     19  H   UNL     1       2.834   9.240  19.700  0.00  0.00    +0.000 HD
BRANCH  18  20
ATOM     20  C   UNL     1       2.576   7.943  18.008  0.00  0.00    +0.000 C 
BRANCH  20  21
ATOM     21  C   UNL     1       2.296   6.599  18.630  0.00  0.00    +0.000 A 
ATOM     22  C   UNL     1       2.232   5.448  17.831  0.00  0.00    +0.000 A 
ATOM     23  C   UNL     1       1.996   4.201  18.412  0.00  0.00    +0.000 A 
ATOM     24  C   UNL     1       1.819   4.106  19.787  0.00  0.00    +0.000 A 
ATOM     25  F   UNL     1       1.597   2.906  20.340  0.00  0.00    +0.000 F 
ATOM     26  C   UNL     1       1.870   5.235  20.595  0.00  0.00    +0.000 A 
ATOM     27  C   UNL     1       2.105   6.483  20.017  0.00  0.00    +0.000 A 
ENDBRANCH  20  21
ENDBRANCH  18  20
ENDBRANCH   3  16
BRANCH   4  28
ATOM     28  O   UNL     1      -0.609   9.290  20.926  0.00  0.00    +0.000 OA
ATOM     29  H   UNL     1      -0.981   9.251  21.835  0.00  0.00    +0.000 HD
ENDBRANCH   4  28
TORSDOF 5
ENDMDL
