MODEL 1
REMARK VINA RESULT:      -7.2      0.000      0.000
REMARK  Name = 
REMARK  8 active torsions:
REMARK  status: ('A' for Active; 'I' for Inactive)
REMARK    1  A    between atoms: C_1  and  O_2
REMARK    2  A    between atoms: O_2  and  C_3
REMARK    3  A    between atoms: C_3  and  C_4
REMARK    4  A    between atoms: C_6  and  C_7
REMARK    5  A    between atoms: C_9  and  N_10
REMARK    6  A    between atoms: N_10  and  C_11
REMARK    7  A    between atoms: N_10  and  C_12
REMARK    8  A    between atoms: C_12  and  C_13
REMARK                            x       y       z     vdW  Elec       q    Type
REMARK                         _______ _______ _______ _____ _____    ______ ____
ROOT
ATOM      1  N   UNL     1       3.778   3.313  17.795  0.00  0.00    +0.000 N 
ATOM      2  C   UNL     1       3.650   1.941  18.248  0.00  0.00    +0.000 C 
ENDROOT
BRANCH   1   8
ATOM      3  C   UNL     1       6.563   4.468  15.880  0.00  0.00    +0.000 A 
ATOM      4  N   UNL     1       7.360   5.107  16.754  0.00  0.00    +0.000 NA
ATOM      5  C   UNL     1       6.973   5.085  18.038  0.00  0.00    +0.000 A 
ATOM      6  C   UNL     1       7.876   5.738  19.040  0.00  0.00    +0.000 C 
ATOM      7  C   UNL     1       5.790   4.495  18.445  0.00  0.00    +0.000 A 
ATOM      8  C   UNL     1       4.999   3.885  17.487  0.00  0.00    +0.000 A 
ATOM      9  N   UNL     1       5.412   3.845  16.209  0.00  0.00    +0.000 NA
BRANCH   3  10
ATOM     10  C   UNL     1       6.957   4.489  14.418  0.00  0.00    +0.000 C 
BRANCH  10  12
ATOM     11  C   UNL     1       6.478   3.627  12.278  0.00  0.00    +0.000 C 
ATOM     12  O   UNL     1       6.109   3.628  13.648  0.00  0.00    +0.000 OA
ENDBRANCH  10  12
ENDBRANCH   3  10
ENDBRANCH   1   8
BRANCH   1  13
ATOM     13  C   UNL     1       2.562   4.065  17.495  0.00  0.00    +0.000 C 
BRANCH  13  14
ATOM     14  C   UNL     1       2.285   5.188  18.459  0.00  0.00    +0.000 A 
ATOM     15  C   UNL     1       2.484   6.529  18.125  0.00  0.00    +0.000 A 
ATOM     16  C   UNL     1       2.291   7.515  19.092  0.00  0.00    +0.000 A 
ATOM     17  C   UNL     1       1.890   7.143  20.366  0.00  0.00    +0.000 A 
ATOM     18  N   UNL     1       1.738   8.095  21.371  0.00  0.00    +0.000 N 
ATOM     19  N   UNL     1       1.681   5.866  20.716  0.00  0.00    +0.000 NA
ATOM     20  C   UNL     1       1.877   4.924  19.762  0.00  0.00    +0.000 A 
ATOM     21  H   UNL     1       1.120   8.845  21.087  0.00  0.00    +0.000 HD
ATOM     22  H   UNL     1       1.388   7.599  22.185  0.00  0.00    +0.000 HD
ENDBRANCH  13  14
ENDBRANCH   1  13
TORSDOF 5
ENDMDL
MODEL 2
REMARK VINA RESULT:      -7.1      0.604      1.075
REMARK  Name = 
REMARK  8 active torsions:
REMARK  status: ('A' for Active; 'I' for Inactive)
REMARK    1  A    between atoms: C_1  and  O_2
REMARK    2  A    between atoms: O_2  and  C_3
REMARK    3  A    between atoms: C_3  and  C_4
REMARK    4  A    between atoms: C_6  and  C_7
REMARK    5  A    between atoms: C_9  and  N_10
REMARK    6  A    between atoms: N_10  and  C_11
REMARK    7  A    between atoms: N_10  and  C_12
REMARK    8  A    between atoms: C_12  and  C_13
REMARK                            x       y       z     vdW  Elec       q    Type
REMARK                         _______ _______ _______ _____ _____    ______ ____
ROOT
ATOM      1  N   UNL     1       3.699   3.359  17.775  0.00  0.00    +0.000 N 
ATOM      2  C   UNL     1       3.519   1.962  18.122  0.00  0.00    +0.000 C 
ENDROOT
BRANCH   1   8
ATOM      3  C   UNL     1       6.504   4.472  15.865  0.00  0.00    +0.000 A 
ATOM      4  N   UNL     1       7.331   5.058  16.750  0.00  0.00    +0.000 NA
ATOM      5  C   UNL     1       6.955   5.013  18.037  0.00  0.00    +0.000 A 
ATOM      6  C   UNL     1       7.890   5.605  19.048  0.00  0.00    +0.000 C 
ATOM      7  C   UNL     1       5.757   4.451  18.438  0.00  0.00    +0.000 A 
ATOM      8  C   UNL     1       4.937   3.898  17.472  0.00  0.00    +0.000 A 
ATOM      9  N   UNL     1       5.336   3.880  16.188  0.00  0.00    +0.000 NA
BRANCH   3  10
ATOM     10  C   UNL     1       6.885   4.522  14.401  0.00  0.00    +0.000 C 
BRANCH  10  12
ATOM     11  C   UNL     1       6.495   3.580  12.276  0.00  0.00    +0.000 C 
ATOM     12  O   UNL     1       6.078   3.623  13.631  0.00  0.00    +0.000 OA
ENDBRANCH  10  12
ENDBRANCH   3  10
ENDBRANCH   1   8
BRANCH   1  13
ATOM     13  C   UNL     1       2.512   4.188  17.578  0.00  0.00    +0.000 C 
BRANCH  13  14
ATOM     14  C   UNL     1       2.311   5.230  18.646  0.00  0.00    +0.000 A 
ATOM     15  C   UNL     1       1.843   4.915  19.923  0.00  0.00    +0.000 A 
ATOM     16  C   UNL     1       1.596   5.939  20.838  0.00  0.00    +0.000 A 
ATOM     17  C   UNL     1       1.835   7.252  20.463  0.00  0.00    +0.000 A 
ATOM     18  N   UNL     1       1.551   8.303  21.331  0.00  0.00    +0.000 N 
ATOM     19  N   UNL     1       2.294   7.587  19.249  0.00  0.00    +0.000 NA
ATOM     20  C   UNL     1       2.523   6.578  18.374  0.00  0.00    +0.000 A 
ATOM     21  H   UNL     1       2.000   8.178  22.231  0.00  0.00    +0.000 HD
ATOM     22  H   UNL     1       1.858   9.151  20.865  0.00  0.00    +0.000 HD
ENDBRANCH  13  14
ENDBRANCH   1  13
TORSDOF 5
ENDMDL
MODEL 3
REMARK VINA RESULT:      -7.0      2.166      2.951
REMARK  Name = 
REMARK  8 active torsions:
REMARK  status: ('A' for Active; 'I' for Inactive)
REMARK    1  A    between atoms: C_1  and  O_2
REMARK    2  A    between atoms: O_2  and  C_3
REMARK    3  A    between atoms: C_3  and  C_4
REMARK    4  A    between atoms: C_6  and  C_7
REMARK    5  A    between atoms: C_9  and  N_10
REMARK    6  A    between atoms: N_10  and  C_11
REMARK    7  A    between atoms: N_10  and  C_12
REMARK    8  A    between atoms: C_12  and  C_13
REMARK                            x       y       z     vdW  Elec       q    Type
REMARK                         _______ _______ _______ _____ _____    ______ ____
ROOT
ATOM      1  N   UNL     1       3.571   5.876  17.511  0.00  0.00    +0.000 N 
ATOM      2  C   UNL     1       2.827   6.891  18.233  0.00  0.00    +0.000 C 
ENDROOT
BRANCH   1   8
ATOM      3  C   UNL     1       6.622   5.517  15.689  0.00  0.00    +0.000 A 
ATOM      4  N   UNL     1       7.474   6.403  16.236  0.00  0.00    +0.000 NA
ATOM      5  C   UNL     1       7.020   7.090  17.294  0.00  0.00    +0.000 A 
ATOM      6  C   UNL     1       7.971   8.038  17.959  0.00  0.00    +0.000 C 
ATOM      7  C   UNL     1       5.728   6.950  17.768  0.00  0.00    +0.000 A 
ATOM      8  C   UNL     1       4.893   6.047  17.137  0.00  0.00    +0.000 A 
ATOM      9  N   UNL     1       5.360   5.306  16.117  0.00  0.00    +0.000 NA
BRANCH   3  10
ATOM     10  C   UNL     1       7.093   4.738  14.479  0.00  0.00    +0.000 C 
BRANCH  10  12
ATOM     11  C   UNL     1       7.872   5.378  12.349  0.00  0.00    +0.000 C 
ATOM     12  O   UNL     1       8.080   5.476  13.748  0.00  0.00    +0.000 OA
ENDBRANCH  10  12
ENDBRANCH   3  10
ENDBRANCH   1   8
BRANCH   1  13
ATOM     13  C   UNL     1       2.957   4.565  17.317  0.00  0.00    +0.000 C 
BRANCH  13  14
ATOM     14  C   UNL     1       2.505   3.906  18.593  0.00  0.00    +0.000 A 
ATOM     15  C   UNL     1       1.163   3.636  18.863  0.00  0.00    +0.000 A 
ATOM     16  C   UNL     1       0.804   3.103  20.101  0.00  0.00    +0.000 A 
ATOM     17  C   UNL     1       1.793   2.838  21.036  0.00  0.00    +0.000 A 
ATOM     18  N   UNL     1       1.467   2.356  22.301  0.00  0.00    +0.000 N 
ATOM     19  N   UNL     1       3.091   3.078  20.804  0.00  0.00    +0.000 NA
ATOM     20  C   UNL     1       3.418   3.599  19.597  0.00  0.00    +0.000 A 
ATOM     21  H   UNL     1       0.896   1.520  22.247  0.00  0.00    +0.000 HD
ATOM     22  H   UNL     1       2.346   2.188  22.779  0.00  0.00    +0.000 HD
ENDBRANCH  13  14
ENDBRANCH   1  13
TORSDOF 5
ENDMDL
MODEL 4
REMARK VINA RESULT:      -6.8      1.616      2.815
REMARK  Name = 
REMARK  8 active torsions:
REMARK  status: ('A' for Active; 'I' for Inactive)
REMARK    1  A    between atoms: C_1  and  O_2
REMARK    2  A    between atoms: O_2  and  C_3
REMARK    3  A    between atoms: C_3  and  C_4
REMARK    4  A    between atoms: C_6  and  C_7
REMARK    5  A    between atoms: C_9  and  N_10
REMARK    6  A    between atoms: N_10  and  C_11
REMARK    7  A    between atoms: N_10  and  C_12
REMARK    8  A    between atoms: C_12  and  C_13
REMARK                            x       y       z     vdW  Elec       q    Type
REMARK                         _______ _______ _______ _____ _____    ______ ____
ROOT
ATOM      1  N   UNL     1       3.696   3.202  17.823  0.00  0.00    +0.000 N 
ATOM      2  C   UNL     1       3.671   1.932  18.523  0.00  0.00    +0.000 C 
ENDROOT
BRANCH   1   8
ATOM      3  C   UNL     1       6.938   4.659  17.465  0.00  0.00    +0.000 A 
ATOM      4  N   UNL     1       7.209   4.612  16.148  0.00  0.00    +0.000 NA
ATOM      5  C   UNL     1       6.238   4.135  15.356  0.00  0.00    +0.000 A 
ATOM      6  C   UNL     1       6.493   4.130  13.880  0.00  0.00    +0.000 C 
ATOM      7  C   UNL     1       5.041   3.658  15.859  0.00  0.00    +0.000 A 
ATOM      8  C   UNL     1       4.841   3.702  17.227  0.00  0.00    +0.000 A 
ATOM      9  N   UNL     1       5.783   4.239  18.022  0.00  0.00    +0.000 NA
BRANCH   3  10
ATOM     10  C   UNL     1       8.019   5.172  18.391  0.00  0.00    +0.000 C 
BRANCH  10  12
ATOM     11  C   UNL     1       7.728   7.458  17.898  0.00  0.00    +0.000 C 
ATOM     12  O   UNL     1       7.679   6.464  18.909  0.00  0.00    +0.000 OA
ENDBRANCH  10  12
ENDBRANCH   3  10
ENDBRANCH   1   8
BRANCH   1  13
ATOM     13  C   UNL     1       2.433   3.900  17.597  0.00  0.00    +0.000 C 
BRANCH  13  14
ATOM     14  C   UNL     1       2.194   5.052  18.536  0.00  0.00    +0.000 A 
ATOM     15  C   UNL     1       2.444   6.378  18.176  0.00  0.00    +0.000 A 
ATOM     16  C   UNL     1       2.284   7.390  19.122  0.00  0.00    +0.000 A 
ATOM     17  C   UNL     1       1.866   7.059  20.402  0.00  0.00    +0.000 A 
ATOM     18  N   UNL     1       1.746   8.036  21.388  0.00  0.00    +0.000 N 
ATOM     19  N   UNL     1       1.609   5.798  20.777  0.00  0.00    +0.000 NA
ATOM     20  C   UNL     1       1.774   4.830  19.843  0.00  0.00    +0.000 A 
ATOM     21  H   UNL     1       1.157   8.803  21.085  0.00  0.00    +0.000 HD
ATOM     22  H   UNL     1       1.376   7.570  22.210  0.00  0.00    +0.000 HD
ENDBRANCH  13  14
ENDBRANCH   1  13
TORSDOF 5
ENDMDL
MODEL 5
REMARK VINA RESULT:      -6.7      1.840      3.009
REMARK  Name = 
REMARK  8 active torsions:
REMARK  status: ('A' for Active; 'I' for Inactive)
REMARK    1  A    between atoms: C_1  and  O_2
REMARK    2  A    between atoms: O_2  and  C_3
REMARK    3  A    between atoms: C_3  and  C_4
REMARK    4  A    between atoms: C_6  and  C_7
REMARK    5  A    between atoms: C_9  and  N_10
REMARK    6  A    between atoms: N_10  and  C_11
REMARK    7  A    between atoms: N_10  and  C_12
REMARK    8  A    between atoms: C_12  and  C_13
REMARK                            x       y       z     vdW  Elec       q    Type
REMARK                         _______ _______ _______ _____ _____    ______ ____
ROOT
ATOM      1  N   UNL     1       4.189   3.791  18.631  0.00  0.00    +0.000 N 
ATOM      2  C   UNL     1       4.526   2.776  19.612  0.00  0.00    +0.000 C 
ENDROOT
BRANCH   1   8
ATOM      3  C   UNL     1       6.877   5.847  17.489  0.00  0.00    +0.000 A 
ATOM      4  N   UNL     1       7.119   5.454  16.226  0.00  0.00    +0.000 NA
ATOM      5  C   UNL     1       6.302   4.514  15.728  0.00  0.00    +0.000 A 
ATOM      6  C   UNL     1       6.512   4.104  14.302  0.00  0.00    +0.000 C 
ATOM      7  C   UNL     1       5.302   3.928  16.483  0.00  0.00    +0.000 A 
ATOM      8  C   UNL     1       5.131   4.354  17.788  0.00  0.00    +0.000 A 
ATOM      9  N   UNL     1       5.902   5.342  18.273  0.00  0.00    +0.000 NA
BRANCH   3  10
ATOM     10  C   UNL     1       7.793   6.892  18.091  0.00  0.00    +0.000 C 
BRANCH  10  12
ATOM     11  C   UNL     1       8.230   9.206  18.004  0.00  0.00    +0.000 C 
ATOM     12  O   UNL     1       7.853   8.058  17.261  0.00  0.00    +0.000 OA
ENDBRANCH  10  12
ENDBRANCH   3  10
ENDBRANCH   1   8
BRANCH   1  13
ATOM     13  C   UNL     1       2.781   4.112  18.415  0.00  0.00    +0.000 C 
BRANCH  13  14
ATOM     14  C   UNL     1       2.359   5.434  18.999  0.00  0.00    +0.000 A 
ATOM     15  C   UNL     1       2.509   6.640  18.311  0.00  0.00    +0.000 A 
ATOM     16  C   UNL     1       2.177   7.838  18.943  0.00  0.00    +0.000 A 
ATOM     17  C   UNL     1       1.691   7.807  20.241  0.00  0.00    +0.000 A 
ATOM     18  N   UNL     1       1.400   8.986  20.922  0.00  0.00    +0.000 N 
ATOM     19  N   UNL     1       1.526   6.665  20.925  0.00  0.00    +0.000 NA
ATOM     20  C   UNL     1       1.857   5.513  20.294  0.00  0.00    +0.000 A 
ATOM     21  H   UNL     1       0.766   9.576  20.395  0.00  0.00    +0.000 HD
ATOM     22  H   UNL     1       1.010   8.711  21.818  0.00  0.00    +0.000 HD
ENDBRANCH  13  14
ENDBRANCH   1  13
TORSDOF 5
ENDMDL
MODEL 6
REMARK VINA RESULT:      -6.7      2.356      3.638
REMARK  Name = 
REMARK  8 active torsions:
REMARK  status: ('A' for Active; 'I' for Inactive)
REMARK    1  A    between atoms: C_1  and  O_2
REMARK    2  A    between atoms: O_2  and  C_3
REMARK    3  A    between atoms: C_3  and  C_4
REMARK    4  A    between atoms: C_6  and  C_7
REMARK    5  A    between atoms: C_9  and  N_10
REMARK    6  A    between atoms: N_10  and  C_11
REMARK    7  A    between atoms: N_10  and  C_12
REMARK    8  A    between atoms: C_12  and  C_13
REMARK                            x       y       z     vdW  Elec       q    Type
REMARK                         _______ _______ _______ _____ _____    ______ ____
ROOT
ATOM      1  N   UNL     1       3.544   5.198  18.130  0.00  0.00    +0.000 N 
ATOM      2  C   UNL     1       2.441   4.393  17.642  0.00  0.00    +0.000 C 
ENDROOT
BRANCH   1   8
ATOM      3  C   UNL     1       6.800   6.368  17.241  0.00  0.00    +0.000 A 
ATOM      4  N   UNL     1       7.110   5.731  16.097  0.00  0.00    +0.000 NA
ATOM      5  C   UNL     1       6.161   4.936  15.581  0.00  0.00    +0.000 A 
ATOM      6  C   UNL     1       6.460   4.264  14.276  0.00  0.00    +0.000 C 
ATOM      7  C   UNL     1       4.948   4.727  16.213  0.00  0.00    +0.000 A 
ATOM      8  C   UNL     1       4.708   5.385  17.405  0.00  0.00    +0.000 A 
ATOM      9  N   UNL     1       5.627   6.234  17.895  0.00  0.00    +0.000 NA
BRANCH   3  10
ATOM     10  C   UNL     1       7.855   7.256  17.863  0.00  0.00    +0.000 C 
BRANCH  10  12
ATOM     11  C   UNL     1       8.512   9.488  18.244  0.00  0.00    +0.000 C 
ATOM     12  O   UNL     1       7.603   8.635  17.565  0.00  0.00    +0.000 OA
ENDBRANCH  10  12
ENDBRANCH   3  10
ENDBRANCH   1   8
BRANCH   1  13
ATOM     13  C   UNL     1       3.357   5.971  19.356  0.00  0.00    +0.000 C 
BRANCH  13  14
ATOM     14  C   UNL     1       2.515   7.207  19.177  0.00  0.00    +0.000 A 
ATOM     15  C   UNL     1       2.445   7.897  17.965  0.00  0.00    +0.000 A 
ATOM     16  C   UNL     1       1.716   9.083  17.890  0.00  0.00    +0.000 A 
ATOM     17  C   UNL     1       1.062   9.547  19.021  0.00  0.00    +0.000 A 
ATOM     18  N   UNL     1       0.368  10.755  18.999  0.00  0.00    +0.000 N 
ATOM     19  N   UNL     1       1.102   8.904  20.197  0.00  0.00    +0.000 NA
ATOM     20  C   UNL     1       1.819   7.755  20.249  0.00  0.00    +0.000 A 
ATOM     21  H   UNL     1      -0.311  10.783  18.247  0.00  0.00    +0.000 HD
ATOM     22  H   UNL     1      -0.067  10.853  19.910  0.00  0.00    +0.000 HD
ENDBRANCH  13  14
ENDBRANCH   1  13
TORSDOF 5
ENDMDL
MODEL 7
REMARK VINA RESULT:      -6.6      1.375      1.716
REMARK  Name = 
REMARK  8 active torsions:
REMARK  status: ('A' for Active; 'I' for Inactive)
REMARK    1  A    between atoms: C_1  and  O_2
REMARK    2  A    between atoms: O_2  and  C_3
REMARK    3  A    between atoms: C_3  and  C_4
REMARK    4  A    between atoms: C_6  and  C_7
REMARK    5  A    between atoms: C_9  and  N_10
REMARK    6  A    between atoms: N_10  and  C_11
REMARK    7  A    between atoms: N_10  and  C_12
REMARK    8  A    between atoms: C_12  and  C_13
REMARK                            x       y       z     vdW  Elec       q    Type
REMARK                         _______ _______ _______ _____ _____    ______ ____
ROOT
ATOM      1  N   UNL     1       4.429   4.544  18.321  0.00  0.00    +0.000 N 
ATOM      2  C   UNL     1       4.620   3.438  19.240  0.00  0.00    +0.000 C 
ENDROOT
BRANCH   1   8
ATOM      3  C   UNL     1       6.769   5.229  15.710  0.00  0.00    +0.000 A 
ATOM      4  N   UNL     1       7.466   6.303  16.125  0.00  0.00    +0.000 NA
ATOM      5  C   UNL     1       7.177   6.763  17.351  0.00  0.00    +0.000 A 
ATOM      6  C   UNL     1       7.982   7.920  17.859  0.00  0.00    +0.000 C 
ATOM      7  C   UNL     1       6.179   6.210  18.132  0.00  0.00    +0.000 A 
ATOM      8  C   UNL     1       5.477   5.129  17.631  0.00  0.00    +0.000 A 
ATOM      9  N   UNL     1       5.803   4.621  16.430  0.00  0.00    +0.000 NA
BRANCH   3  10
ATOM     10  C   UNL     1       7.053   4.695  14.323  0.00  0.00    +0.000 C 
BRANCH  10  12
ATOM     11  C   UNL     1       5.711   3.548  12.762  0.00  0.00    +0.000 C 
ATOM     12  O   UNL     1       6.281   3.517  14.060  0.00  0.00    +0.000 OA
ENDBRANCH  10  12
ENDBRANCH   3  10
ENDBRANCH   1   8
BRANCH   1  13
ATOM     13  C   UNL     1       3.065   4.948  17.988  0.00  0.00    +0.000 C 
BRANCH  13  14
ATOM     14  C   UNL     1       2.559   6.114  18.795  0.00  0.00    +0.000 A 
ATOM     15  C   UNL     1       2.094   5.975  20.104  0.00  0.00    +0.000 A 
ATOM     16  C   UNL     1       1.557   7.080  20.765  0.00  0.00    +0.000 A 
ATOM     17  C   UNL     1       1.510   8.301  20.111  0.00  0.00    +0.000 A 
ATOM     18  N   UNL     1       0.933   9.413  20.719  0.00  0.00    +0.000 N 
ATOM     19  N   UNL     1       1.956   8.470  18.858  0.00  0.00    +0.000 NA
ATOM     20  C   UNL     1       2.470   7.383  18.233  0.00  0.00    +0.000 A 
ATOM     21  H   UNL     1       1.339   9.594  21.630  0.00  0.00    +0.000 HD
ATOM     22  H   UNL     1       1.066  10.191  20.080  0.00  0.00    +0.000 HD
ENDBRANCH  13  14
ENDBRANCH   1  13
TORSDOF 5
ENDMDL
MODEL 8
REMARK VINA RESULT:      -6.6      1.804      2.659
REMARK  Name = 
REMARK  8 active torsions:
REMARK  status: ('A' for Active; 'I' for Inactive)
REMARK    1  A    between atoms: C_1  and  O_2
REMARK    2  A    between atoms: O_2  and  C_3
REMARK    3  A    between atoms: C_3  and  C_4
REMARK    4  A    between atoms: C_6  and  C_7
REMARK    5  A    between atoms: C_9  and  N_10
REMARK    6  A    between atoms: N_10  and  C_11
REMARK    7  A    between atoms: N_10  and  C_12
REMARK    8  A    between atoms: C_12  and  C_13
REMARK                            x       y       z     vdW  Elec       q    Type
REMARK                         _______ _______ _______ _____ _____    ______ ____
ROOT
ATOM      1  N   UNL     1       3.466   6.132  17.596  0.00  0.00    +0.000 N 
ATOM      2  C   UNL     1       3.046   7.457  18.012  0.00  0.00    +0.000 C 
ENDROOT
BRANCH   1   8
ATOM      3  C   UNL     1       6.500   5.047  16.056  0.00  0.00    +0.000 A 
ATOM      4  N   UNL     1       7.451   5.187  16.997  0.00  0.00    +0.000 NA
ATOM      5  C   UNL     1       7.037   5.596  18.205  0.00  0.00    +0.000 A 
ATOM      6  C   UNL     1       8.068   5.701  19.287  0.00  0.00    +0.000 C 
ATOM      7  C   UNL     1       5.717   5.919  18.465  0.00  0.00    +0.000 A 
ATOM      8  C   UNL     1       4.797   5.786  17.441  0.00  0.00    +0.000 A 
ATOM      9  N   UNL     1       5.191   5.314  16.247  0.00  0.00    +0.000 NA
BRANCH   3  10
ATOM     10  C   UNL     1       6.933   4.607  14.674  0.00  0.00    +0.000 C 
BRANCH  10  12
ATOM     11  C   UNL     1       6.186   3.545  12.707  0.00  0.00    +0.000 C 
ATOM     12  O   UNL     1       5.799   4.262  13.868  0.00  0.00    +0.000 OA
ENDBRANCH  10  12
ENDBRANCH   3  10
ENDBRANCH   1   8
BRANCH   1  13
ATOM     13  C   UNL     1       2.457   5.081  17.494  0.00  0.00    +0.000 C 
BRANCH  13  14
ATOM     14  C   UNL     1       2.160   4.390  18.799  0.00  0.00    +0.000 A 
ATOM     15  C   UNL     1       2.035   5.085  20.003  0.00  0.00    +0.000 A 
ATOM     16  C   UNL     1       1.845   4.377  21.190  0.00  0.00    +0.000 A 
ATOM     17  C   UNL     1       1.770   2.993  21.147  0.00  0.00    +0.000 A 
ATOM     18  N   UNL     1       1.635   2.250  22.316  0.00  0.00    +0.000 N 
ATOM     19  N   UNL     1       1.877   2.297  20.006  0.00  0.00    +0.000 NA
ATOM     20  C   UNL     1       2.064   3.004  18.865  0.00  0.00    +0.000 A 
ATOM     21  H   UNL     1       0.842   2.560  22.867  0.00  0.00    +0.000 HD
ATOM     22  H   UNL     1       1.545   1.280  22.031  0.00  0.00    +0.000 HD
ENDBRANCH  13  14
ENDBRANCH   1  13
TORSDOF 5
ENDMDL
MODEL 9
REMARK VINA RESULT:      -6.5      2.511      3.756
REMARK  Name = 
REMARK  8 active torsions:
REMARK  status: ('A' for Active; 'I' for Inactive)
REMARK    1  A    between atoms: C_1  and  O_2
REMARK    2  A    between atoms: O_2  and  C_3
REMARK    3  A    between atoms: C_3  and  C_4
REMARK    4  A    between atoms: C_6  and  C_7
REMARK    5  A    between atoms: C_9  and  N_10
REMARK    6  A    between atoms: N_10  and  C_11
REMARK    7  A    between atoms: N_10  and  C_12
REMARK    8  A    between atoms: C_12  and  C_13
REMARK                            x       y       z     vdW  Elec       q    Type
REMARK                         _______ _______ _______ _____ _____    ______ ____
ROOT
ATOM      1  N   UNL     1       3.994   3.907  17.127  0.00  0.00    +0.000 N 
ATOM      2  C   UNL     1       3.812   2.472  17.023  0.00  0.00    +0.000 C 
ENDROOT
BRANCH   1   8
ATOM      3  C   UNL     1       6.847   6.043  16.885  0.00  0.00    +0.000 A 
ATOM      4  N   UNL     1       7.358   5.821  15.661  0.00  0.00    +0.000 NA
ATOM      5  C   UNL     1       6.676   4.976  14.875  0.00  0.00    +0.000 A 
ATOM      6  C   UNL     1       7.193   4.760  13.485  0.00  0.00    +0.000 C 
ATOM      7  C   UNL     1       5.542   4.314  15.309  0.00  0.00    +0.000 A 
ATOM      8  C   UNL     1       5.090   4.560  16.592  0.00  0.00    +0.000 A 
ATOM      9  N   UNL     1       5.730   5.456  17.364  0.00  0.00    +0.000 NA
BRANCH   3  10
ATOM     10  C   UNL     1       7.601   6.975  17.809  0.00  0.00    +0.000 C 
BRANCH  10  12
ATOM     11  C   UNL     1       8.288   9.208  18.116  0.00  0.00    +0.000 C 
ATOM     12  O   UNL     1       7.818   8.247  17.185  0.00  0.00    +0.000 OA
ENDBRANCH  10  12
ENDBRANCH   3  10
ENDBRANCH   1   8
BRANCH   1  13
ATOM     13  C   UNL     1       2.902   4.711  17.672  0.00  0.00    +0.000 C 
BRANCH  13  14
ATOM     14  C   UNL     1       2.371   4.210  18.988  0.00  0.00    +0.000 A 
ATOM     15  C   UNL     1       2.954   4.551  20.210  0.00  0.00    +0.000 A 
ATOM     16  C   UNL     1       2.466   3.983  21.387  0.00  0.00    +0.000 A 
ATOM     17  C   UNL     1       1.400   3.099  21.320  0.00  0.00    +0.000 A 
ATOM     18  N   UNL     1       0.920   2.472  22.468  0.00  0.00    +0.000 N 
ATOM     19  N   UNL     1       0.812   2.759  20.164  0.00  0.00    +0.000 NA
ATOM     20  C   UNL     1       1.304   3.319  19.032  0.00  0.00    +0.000 A 
ATOM     21  H   UNL     1       0.689   3.143  23.191  0.00  0.00    +0.000 HD
ATOM     22  H   UNL     1       0.115   1.926  22.181  0.00  0.00    +0.000 HD
ENDBRANCH  13  14
ENDBRANCH   1  13
TORSDOF 5
ENDMDL
