MODEL 1
REMARK VINA RESULT:      -8.1      0.000      0.000
REMARK  Name = 
REMARK  8 active torsions:
REMARK  status: ('A' for Active; 'I' for Inactive)
REMARK    1  A    between atoms: C_1  and  O_2
REMARK    2  A    between atoms: O_2  and  C_3
REMARK    3  A    between atoms: C_3  and  C_5
REMARK    4  A    between atoms: C_5  and  N_6
REMARK    5  A    between atoms: C_5  and  C_17
REMARK    6  A    between atoms: C_7  and  C_9
REMARK    7  A    between atoms: C_12  and  O_13
REMARK    8  A    between atoms: O_13  and  C_14
REMARK                            x       y       z     vdW  Elec       q    Type
REMARK                         _______ _______ _______ _____ _____    ______ ____
ROOT
ATOM      1  C   UNL     1       5.074   5.366  17.957  0.00  0.00    +0.000 C 
ENDROOT
BRANCH   1   2
ATOM      2  C   UNL     1       3.933   4.547  18.641  0.00  0.00    +0.000 C 
ATOM      3  C   UNL     1       3.431   5.270  19.923  0.00  0.00    +0.000 C 
ATOM      4  C   UNL     1       2.292   4.488  20.599  0.00  0.00    +0.000 C 
ATOM      5  C   UNL     1       1.111   4.362  19.628  0.00  0.00    +0.000 C 
ATOM      6  C   UNL     1       1.561   3.633  18.353  0.00  0.00    +0.000 C 
ATOM      7  C   UNL     1       2.059   2.229  18.727  0.00  0.00    +0.000 C 
ATOM      8  C   UNL     1       3.240   2.335  19.703  0.00  0.00    +0.000 C 
ATOM      9  C   UNL     1       2.795   3.084  20.970  0.00  0.00    +0.000 C 
ATOM     10  C   UNL     1       4.387   3.114  19.036  0.00  0.00    +0.000 C 
ATOM     11  C   UNL     1       2.707   4.415  17.686  0.00  0.00    +0.000 C 
ENDBRANCH   1   2
BRANCH   1  12
ATOM     12  N   UNL     1       5.446   4.791  16.655  0.00  0.00    +0.000 N 
ATOM     13  C   UNL     1       5.519   5.537  15.499  0.00  0.00    +0.000 C 
ATOM     14  O   UNL     1       5.251   6.729  15.439  0.00  0.00    +0.000 OA
ATOM     15  H   UNL     1       5.946   3.908  16.691  0.00  0.00    +0.000 HD
BRANCH  13  16
ATOM     16  C   UNL     1       5.982   4.805  14.282  0.00  0.00    +0.000 A 
ATOM     17  C   UNL     1       5.189   3.818  13.685  0.00  0.00    +0.000 A 
ATOM     18  C   UNL     1       5.661   3.123  12.570  0.00  0.00    +0.000 A 
ATOM     19  C   UNL     1       6.907   3.422  12.018  0.00  0.00    +0.000 A 
ATOM     20  C   UNL     1       7.689   4.428  12.589  0.00  0.00    +0.000 A 
ATOM     21  C   UNL     1       7.223   5.123  13.715  0.00  0.00    +0.000 A 
BRANCH  19  22
ATOM     22  O   UNL     1       7.268   2.633  10.961  0.00  0.00    +0.000 OA
ATOM     23  C   UNL     1       6.716   1.323  10.935  0.00  0.00    +0.000 C 
ENDBRANCH  19  22
ENDBRANCH  13  16
ENDBRANCH   1  12
BRANCH   1  24
ATOM     24  C   UNL     1       6.365   5.426  18.801  0.00  0.00    +0.000 C 
ATOM     25  O   UNL     1       6.405   5.233  20.014  0.00  0.00    +0.000 OA
BRANCH  24  27
ATOM     26  C   UNL     1       7.790   7.155  18.077  0.00  0.00    +0.000 C 
ATOM     27  O   UNL     1       7.436   5.771  18.029  0.00  0.00    +0.000 OA
ENDBRANCH  24  27
ENDBRANCH   1  24
TORSDOF 6
ENDMDL
MODEL 2
REMARK VINA RESULT:      -8.1      0.068      1.472
REMARK  Name = 
REMARK  8 active torsions:
REMARK  status: ('A' for Active; 'I' for Inactive)
REMARK    1  A    between atoms: C_1  and  O_2
REMARK    2  A    between atoms: O_2  and  C_3
REMARK    3  A    between atoms: C_3  and  C_5
REMARK    4  A    between atoms: C_5  and  N_6
REMARK    5  A    between atoms: C_5  and  C_17
REMARK    6  A    between atoms: C_7  and  C_9
REMARK    7  A    between atoms: C_12  and  O_13
REMARK    8  A    between atoms: O_13  and  C_14
REMARK                            x       y       z     vdW  Elec       q    Type
REMARK                         _______ _______ _______ _____ _____    ______ ____
ROOT
ATOM      1  C   UNL     1       5.016   5.375  17.924  0.00  0.00    +0.000 C 
ENDROOT
BRANCH   1   2
ATOM      2  C   UNL     1       3.880   4.560  18.620  0.00  0.00    +0.000 C 
ATOM      3  C   UNL     1       2.657   4.402  17.673  0.00  0.00    +0.000 C 
ATOM      4  C   UNL     1       1.536   3.583  18.335  0.00  0.00    +0.000 C 
ATOM      5  C   UNL     1       2.059   2.182  18.678  0.00  0.00    +0.000 C 
ATOM      6  C   UNL     1       3.258   2.294  19.631  0.00  0.00    +0.000 C 
ATOM      7  C   UNL     1       2.809   2.995  20.922  0.00  0.00    +0.000 C 
ATOM      8  C   UNL     1       2.278   4.399  20.598  0.00  0.00    +0.000 C 
ATOM      9  C   UNL     1       1.092   4.288  19.626  0.00  0.00    +0.000 C 
ATOM     10  C   UNL     1       3.393   5.228  19.937  0.00  0.00    +0.000 C 
ATOM     11  C   UNL     1       4.373   3.121  18.967  0.00  0.00    +0.000 C 
ENDBRANCH   1   2
BRANCH   1  12
ATOM     12  N   UNL     1       5.382   4.791  16.625  0.00  0.00    +0.000 N 
ATOM     13  C   UNL     1       5.512   5.539  15.476  0.00  0.00    +0.000 C 
ATOM     14  O   UNL     1       5.304   6.744  15.420  0.00  0.00    +0.000 OA
ATOM     15  H   UNL     1       5.838   3.885  16.664  0.00  0.00    +0.000 HD
BRANCH  13  16
ATOM     16  C   UNL     1       5.962   4.794  14.262  0.00  0.00    +0.000 A 
ATOM     17  C   UNL     1       5.149   3.821  13.669  0.00  0.00    +0.000 A 
ATOM     18  C   UNL     1       5.607   3.111  12.557  0.00  0.00    +0.000 A 
ATOM     19  C   UNL     1       6.859   3.383  12.004  0.00  0.00    +0.000 A 
ATOM     20  C   UNL     1       7.661   4.375  12.571  0.00  0.00    +0.000 A 
ATOM     21  C   UNL     1       7.209   5.084  13.694  0.00  0.00    +0.000 A 
BRANCH  19  22
ATOM     22  O   UNL     1       7.205   2.582  10.951  0.00  0.00    +0.000 OA
ATOM     23  C   UNL     1       6.661   1.268  10.953  0.00  0.00    +0.000 C 
ENDBRANCH  19  22
ENDBRANCH  13  16
ENDBRANCH   1  12
BRANCH   1  24
ATOM     24  C   UNL     1       6.310   5.445  18.761  0.00  0.00    +0.000 C 
ATOM     25  O   UNL     1       6.356   5.265  19.976  0.00  0.00    +0.000 OA
BRANCH  24  27
ATOM     26  C   UNL     1       7.833   7.128  18.136  0.00  0.00    +0.000 C 
ATOM     27  O   UNL     1       7.377   5.782  17.981  0.00  0.00    +0.000 OA
ENDBRANCH  24  27
ENDBRANCH   1  24
TORSDOF 6
ENDMDL
MODEL 3
REMARK VINA RESULT:      -8.0      0.465      1.617
REMARK  Name = 
REMARK  8 active torsions:
REMARK  status: ('A' for Active; 'I' for Inactive)
REMARK    1  A    between atoms: C_1  and  O_2
REMARK    2  A    between atoms: O_2  and  C_3
REMARK    3  A    between atoms: C_3  and  C_5
REMARK    4  A    between atoms: C_5  and  N_6
REMARK    5  A    between atoms: C_5  and  C_17
REMARK    6  A    between atoms: C_7  and  C_9
REMARK    7  A    between atoms: C_12  and  O_13
REMARK    8  A    between atoms: O_13  and  C_14
REMARK                            x       y       z     vdW  Elec       q    Type
REMARK                         _______ _______ _______ _____ _____    ______ ____
ROOT
ATOM      1  C   UNL     1       4.671   5.357  17.822  0.00  0.00    +0.000 C 
ENDROOT
BRANCH   1   2
ATOM      2  C   UNL     1       3.588   4.485  18.535  0.00  0.00    +0.000 C 
ATOM      3  C   UNL     1       4.054   3.005  18.639  0.00  0.00    +0.000 C 
ATOM      4  C   UNL     1       3.007   2.136  19.357  0.00  0.00    +0.000 C 
ATOM      5  C   UNL     1       2.789   2.669  20.779  0.00  0.00    +0.000 C 
ATOM      6  C   UNL     1       2.307   4.126  20.720  0.00  0.00    +0.000 C 
ATOM      7  C   UNL     1       0.979   4.185  19.949  0.00  0.00    +0.000 C 
ATOM      8  C   UNL     1       1.178   3.651  18.523  0.00  0.00    +0.000 C 
ATOM      9  C   UNL     1       1.682   2.200  18.583  0.00  0.00    +0.000 C 
ATOM     10  C   UNL     1       2.221   4.515  17.793  0.00  0.00    +0.000 C 
ATOM     11  C   UNL     1       3.353   4.989  19.992  0.00  0.00    +0.000 C 
ENDBRANCH   1   2
BRANCH   1  12
ATOM     12  N   UNL     1       5.083   4.764  16.540  0.00  0.00    +0.000 N 
ATOM     13  C   UNL     1       5.395   5.518  15.431  0.00  0.00    +0.000 C 
ATOM     14  O   UNL     1       5.327   6.739  15.396  0.00  0.00    +0.000 OA
ATOM     15  H   UNL     1       5.431   3.811  16.589  0.00  0.00    +0.000 HD
BRANCH  13  16
ATOM     16  C   UNL     1       5.864   4.753  14.236  0.00  0.00    +0.000 A 
ATOM     17  C   UNL     1       5.040   3.812  13.611  0.00  0.00    +0.000 A 
ATOM     18  C   UNL     1       5.514   3.083  12.518  0.00  0.00    +0.000 A 
ATOM     19  C   UNL     1       6.798   3.306  12.017  0.00  0.00    +0.000 A 
ATOM     20  C   UNL     1       7.614   4.267  12.616  0.00  0.00    +0.000 A 
ATOM     21  C   UNL     1       7.144   4.995  13.720  0.00  0.00    +0.000 A 
BRANCH  19  22
ATOM     22  O   UNL     1       7.155   2.490  10.978  0.00  0.00    +0.000 OA
ATOM     23  C   UNL     1       6.617   1.174  10.997  0.00  0.00    +0.000 C 
ENDBRANCH  19  22
ENDBRANCH  13  16
ENDBRANCH   1  12
BRANCH   1  24
ATOM     24  C   UNL     1       5.952   5.535  18.662  0.00  0.00    +0.000 C 
ATOM     25  O   UNL     1       6.417   4.671  19.403  0.00  0.00    +0.000 OA
BRANCH  24  27
ATOM     26  C   UNL     1       7.855   6.838  18.190  0.00  0.00    +0.000 C 
ATOM     27  O   UNL     1       6.463   6.791  18.510  0.00  0.00    +0.000 OA
ENDBRANCH  24  27
ENDBRANCH   1  24
TORSDOF 6
ENDMDL
MODEL 4
REMARK VINA RESULT:      -7.9      3.873      8.143
REMARK  Name = 
REMARK  8 active torsions:
REMARK  status: ('A' for Active; 'I' for Inactive)
REMARK    1  A    between atoms: C_1  and  O_2
REMARK    2  A    between atoms: O_2  and  C_3
REMARK    3  A    between atoms: C_3  and  C_5
REMARK    4  A    between atoms: C_5  and  N_6
REMARK    5  A    between atoms: C_5  and  C_17
REMARK    6  A    between atoms: C_7  and  C_9
REMARK    7  A    between atoms: C_12  and  O_13
REMARK    8  A    between atoms: O_13  and  C_14
REMARK                            x       y       z     vdW  Elec       q    Type
REMARK                         _______ _______ _______ _____ _____    ______ ____
ROOT
ATOM      1  C   UNL     1       2.969   5.609  17.623  0.00  0.00    +0.000 C 
ENDROOT
BRANCH   1   2
ATOM      2  C   UNL     1       4.527   5.614  17.500  0.00  0.00    +0.000 C 
ATOM      3  C   UNL     1       5.031   4.292  16.855  0.00  0.00    +0.000 C 
ATOM      4  C   UNL     1       6.562   4.288  16.708  0.00  0.00    +0.000 C 
ATOM      5  C   UNL     1       6.993   5.453  15.808  0.00  0.00    +0.000 C 
ATOM      6  C   UNL     1       6.530   6.783  16.422  0.00  0.00    +0.000 C 
ATOM      7  C   UNL     1       7.176   6.948  17.806  0.00  0.00    +0.000 C 
ATOM      8  C   UNL     1       6.759   5.787  18.721  0.00  0.00    +0.000 C 
ATOM      9  C   UNL     1       7.202   4.455  18.094  0.00  0.00    +0.000 C 
ATOM     10  C   UNL     1       5.228   5.783  18.877  0.00  0.00    +0.000 C 
ATOM     11  C   UNL     1       4.998   6.778  16.576  0.00  0.00    +0.000 C 
ENDBRANCH   1   2
BRANCH   1  12
ATOM     12  N   UNL     1       2.508   6.512  18.688  0.00  0.00    +0.000 N 
ATOM     13  C   UNL     1       2.096   7.804  18.450  0.00  0.00    +0.000 C 
ATOM     14  O   UNL     1       2.107   8.330  17.345  0.00  0.00    +0.000 OA
ATOM     15  H   UNL     1       2.207   6.061  19.547  0.00  0.00    +0.000 HD
BRANCH  13  16
ATOM     16  C   UNL     1       1.591   8.555  19.638  0.00  0.00    +0.000 A 
ATOM     17  C   UNL     1       1.664   8.008  20.924  0.00  0.00    +0.000 A 
ATOM     18  C   UNL     1       1.151   8.714  22.015  0.00  0.00    +0.000 A 
ATOM     19  C   UNL     1       0.592   9.982  21.843  0.00  0.00    +0.000 A 
ATOM     20  C   UNL     1       0.547  10.547  20.568  0.00  0.00    +0.000 A 
ATOM     21  C   UNL     1       1.053   9.838  19.469  0.00  0.00    +0.000 A 
BRANCH  19  22
ATOM     22  O   UNL     1       0.083  10.540  22.983  0.00  0.00    +0.000 OA
ATOM     23  C   UNL     1      -1.145  11.244  22.846  0.00  0.00    +0.000 C 
ENDBRANCH  19  22
ENDBRANCH  13  16
ENDBRANCH   1  12
BRANCH   1  24
ATOM     24  C   UNL     1       2.392   4.214  17.942  0.00  0.00    +0.000 C 
ATOM     25  O   UNL     1       1.877   3.473  17.108  0.00  0.00    +0.000 OA
BRANCH  24  27
ATOM     26  C   UNL     1       2.653   2.559  19.597  0.00  0.00    +0.000 C 
ATOM     27  O   UNL     1       2.486   3.942  19.276  0.00  0.00    +0.000 OA
ENDBRANCH  24  27
ENDBRANCH   1  24
TORSDOF 6
ENDMDL
MODEL 5
REMARK VINA RESULT:      -7.9      3.856      8.123
REMARK  Name = 
REMARK  8 active torsions:
REMARK  status: ('A' for Active; 'I' for Inactive)
REMARK    1  A    between atoms: C_1  and  O_2
REMARK    2  A    between atoms: O_2  and  C_3
REMARK    3  A    between atoms: C_3  and  C_5
REMARK    4  A    between atoms: C_5  and  N_6
REMARK    5  A    between atoms: C_5  and  C_17
REMARK    6  A    between atoms: C_7  and  C_9
REMARK    7  A    between atoms: C_12  and  O_13
REMARK    8  A    between atoms: O_13  and  C_14
REMARK                            x       y       z     vdW  Elec       q    Type
REMARK                         _______ _______ _______ _____ _____    ______ ____
ROOT
ATOM      1  C   UNL     1       3.050   5.564  17.735  0.00  0.00    +0.000 C 
ENDROOT
BRANCH   1   2
ATOM      2  C   UNL     1       4.604   5.613  17.582  0.00  0.00    +0.000 C 
ATOM      3  C   UNL     1       5.291   5.696  18.974  0.00  0.00    +0.000 C 
ATOM      4  C   UNL     1       6.823   5.725  18.843  0.00  0.00    +0.000 C 
ATOM      5  C   UNL     1       7.302   4.444  18.150  0.00  0.00    +0.000 C 
ATOM      6  C   UNL     1       6.661   4.334  16.759  0.00  0.00    +0.000 C 
ATOM      7  C   UNL     1       7.077   5.550  15.917  0.00  0.00    +0.000 C 
ATOM      8  C   UNL     1       6.610   6.844  16.598  0.00  0.00    +0.000 C 
ATOM      9  C   UNL     1       7.234   6.942  18.000  0.00  0.00    +0.000 C 
ATOM     10  C   UNL     1       5.077   6.827  16.732  0.00  0.00    +0.000 C 
ATOM     11  C   UNL     1       5.127   4.315  16.895  0.00  0.00    +0.000 C 
ENDBRANCH   1   2
BRANCH   1  12
ATOM     12  N   UNL     1       2.582   6.474  18.791  0.00  0.00    +0.000 N 
ATOM     13  C   UNL     1       2.069   7.725  18.530  0.00  0.00    +0.000 C 
ATOM     14  O   UNL     1       1.987   8.208  17.409  0.00  0.00    +0.000 OA
ATOM     15  H   UNL     1       2.357   6.037  19.680  0.00  0.00    +0.000 HD
BRANCH  13  16
ATOM     16  C   UNL     1       1.574   8.485  19.717  0.00  0.00    +0.000 A 
ATOM     17  C   UNL     1       1.628   7.935  21.003  0.00  0.00    +0.000 A 
ATOM     18  C   UNL     1       1.125   8.651  22.091  0.00  0.00    +0.000 A 
ATOM     19  C   UNL     1       0.593   9.930  21.918  0.00  0.00    +0.000 A 
ATOM     20  C   UNL     1       0.567  10.497  20.643  0.00  0.00    +0.000 A 
ATOM     21  C   UNL     1       1.063   9.778  19.546  0.00  0.00    +0.000 A 
BRANCH  19  22
ATOM     22  O   UNL     1       0.090  10.498  23.057  0.00  0.00    +0.000 OA
ATOM     23  C   UNL     1      -1.159  11.165  22.929  0.00  0.00    +0.000 C 
ENDBRANCH  19  22
ENDBRANCH  13  16
ENDBRANCH   1  12
BRANCH   1  24
ATOM     24  C   UNL     1       2.522   4.159  18.093  0.00  0.00    +0.000 C 
ATOM     25  O   UNL     1       1.970   3.405  17.293  0.00  0.00    +0.000 OA
BRANCH  24  27
ATOM     26  C   UNL     1       3.168   2.572  19.708  0.00  0.00    +0.000 C 
ATOM     27  O   UNL     1       2.705   3.893  19.418  0.00  0.00    +0.000 OA
ENDBRANCH  24  27
ENDBRANCH   1  24
TORSDOF 6
ENDMDL
MODEL 6
REMARK VINA RESULT:      -7.9      3.855      8.092
REMARK  Name = 
REMARK  8 active torsions:
REMARK  status: ('A' for Active; 'I' for Inactive)
REMARK    1  A    between atoms: C_1  and  O_2
REMARK    2  A    between atoms: O_2  and  C_3
REMARK    3  A    between atoms: C_3  and  C_5
REMARK    4  A    between atoms: C_5  and  N_6
REMARK    5  A    between atoms: C_5  and  C_17
REMARK    6  A    between atoms: C_7  and  C_9
REMARK    7  A    between atoms: C_12  and  O_13
REMARK    8  A    between atoms: O_13  and  C_14
REMARK                            x       y       z     vdW  Elec       q    Type
REMARK                         _______ _______ _______ _____ _____    ______ ____
ROOT
ATOM      1  C   UNL     1       3.057   5.563  17.628  0.00  0.00    +0.000 C 
ENDROOT
BRANCH   1   2
ATOM      2  C   UNL     1       4.615   5.577  17.519  0.00  0.00    +0.000 C 
ATOM      3  C   UNL     1       5.095   6.782  16.662  0.00  0.00    +0.000 C 
ATOM      4  C   UNL     1       6.630   6.823  16.560  0.00  0.00    +0.000 C 
ATOM      5  C   UNL     1       7.232   6.964  17.963  0.00  0.00    +0.000 C 
ATOM      6  C   UNL     1       6.797   5.779  18.838  0.00  0.00    +0.000 C 
ATOM      7  C   UNL     1       7.301   4.475  18.202  0.00  0.00    +0.000 C 
ATOM      8  C   UNL     1       6.711   4.317  16.793  0.00  0.00    +0.000 C 
ATOM      9  C   UNL     1       7.127   5.516  15.924  0.00  0.00    +0.000 C 
ATOM     10  C   UNL     1       5.175   4.273  16.883  0.00  0.00    +0.000 C 
ATOM     11  C   UNL     1       5.261   5.738  18.929  0.00  0.00    +0.000 C 
ENDBRANCH   1   2
BRANCH   1  12
ATOM     12  N   UNL     1       2.581   6.472  18.683  0.00  0.00    +0.000 N 
ATOM     13  C   UNL     1       2.159   7.758  18.430  0.00  0.00    +0.000 C 
ATOM     14  O   UNL     1       2.171   8.274  17.321  0.00  0.00    +0.000 OA
ATOM     15  H   UNL     1       2.279   6.026  19.544  0.00  0.00    +0.000 HD
BRANCH  13  16
ATOM     16  C   UNL     1       1.640   8.515  19.609  0.00  0.00    +0.000 A 
ATOM     17  C   UNL     1       1.671   7.962  20.894  0.00  0.00    +0.000 A 
ATOM     18  C   UNL     1       1.146   8.675  21.975  0.00  0.00    +0.000 A 
ATOM     19  C   UNL     1       0.616   9.954  21.794  0.00  0.00    +0.000 A 
ATOM     20  C   UNL     1       0.613  10.524  20.520  0.00  0.00    +0.000 A 
ATOM     21  C   UNL     1       1.131   9.808  19.431  0.00  0.00    +0.000 A 
BRANCH  19  22
ATOM     22  O   UNL     1       0.091  10.519  22.924  0.00  0.00    +0.000 OA
ATOM     23  C   UNL     1      -0.945  11.473  22.728  0.00  0.00    +0.000 C 
ENDBRANCH  19  22
ENDBRANCH  13  16
ENDBRANCH   1  12
BRANCH   1  24
ATOM     24  C   UNL     1       2.486   4.167  17.954  0.00  0.00    +0.000 C 
ATOM     25  O   UNL     1       2.037   3.392  17.112  0.00  0.00    +0.000 OA
BRANCH  24  27
ATOM     26  C   UNL     1       3.138   2.719  19.692  0.00  0.00    +0.000 C 
ATOM     27  O   UNL     1       2.500   3.936  19.298  0.00  0.00    +0.000 OA
ENDBRANCH  24  27
ENDBRANCH   1  24
TORSDOF 6
ENDMDL
MODEL 7
REMARK VINA RESULT:      -7.8      3.749      8.047
REMARK  Name = 
REMARK  8 active torsions:
REMARK  status: ('A' for Active; 'I' for Inactive)
REMARK    1  A    between atoms: C_1  and  O_2
REMARK    2  A    between atoms: O_2  and  C_3
REMARK    3  A    between atoms: C_3  and  C_5
REMARK    4  A    between atoms: C_5  and  N_6
REMARK    5  A    between atoms: C_5  and  C_17
REMARK    6  A    between atoms: C_7  and  C_9
REMARK    7  A    between atoms: C_12  and  O_13
REMARK    8  A    between atoms: O_13  and  C_14
REMARK                            x       y       z     vdW  Elec       q    Type
REMARK                         _______ _______ _______ _____ _____    ______ ____
ROOT
ATOM      1  C   UNL     1       3.570   5.072  18.641  0.00  0.00    +0.000 C 
ENDROOT
BRANCH   1   2
ATOM      2  C   UNL     1       5.037   5.329  18.167  0.00  0.00    +0.000 C 
ATOM      3  C   UNL     1       5.473   4.260  17.126  0.00  0.00    +0.000 C 
ATOM      4  C   UNL     1       6.909   4.509  16.633  0.00  0.00    +0.000 C 
ATOM      5  C   UNL     1       6.988   5.887  15.964  0.00  0.00    +0.000 C 
ATOM      6  C   UNL     1       6.582   6.977  16.967  0.00  0.00    +0.000 C 
ATOM      7  C   UNL     1       7.546   6.941  18.164  0.00  0.00    +0.000 C 
ATOM      8  C   UNL     1       7.484   5.566  18.845  0.00  0.00    +0.000 C 
ATOM      9  C   UNL     1       7.867   4.473  17.834  0.00  0.00    +0.000 C 
ATOM     10  C   UNL     1       6.052   5.306  19.345  0.00  0.00    +0.000 C 
ATOM     11  C   UNL     1       5.149   6.717  17.464  0.00  0.00    +0.000 C 
ENDBRANCH   1   2
BRANCH   1  12
ATOM     12  N   UNL     1       3.021   6.236  19.353  0.00  0.00    +0.000 N 
ATOM     13  C   UNL     1       2.181   7.151  18.759  0.00  0.00    +0.000 C 
ATOM     14  O   UNL     1       1.844   7.105  17.584  0.00  0.00    +0.000 OA
ATOM     15  H   UNL     1       3.023   6.172  20.367  0.00  0.00    +0.000 HD
BRANCH  13  16
ATOM     16  C   UNL     1       1.660   8.230  19.651  0.00  0.00    +0.000 A 
ATOM     17  C   UNL     1       1.306   9.484  19.139  0.00  0.00    +0.000 A 
ATOM     18  C   UNL     1       0.856  10.488  19.999  0.00  0.00    +0.000 A 
ATOM     19  C   UNL     1       0.723  10.248  21.368  0.00  0.00    +0.000 A 
ATOM     20  C   UNL     1       1.043   8.989  21.879  0.00  0.00    +0.000 A 
ATOM     21  C   UNL     1       1.504   7.980  21.021  0.00  0.00    +0.000 A 
BRANCH  19  22
ATOM     22  O   UNL     1       0.322  11.330  22.102  0.00  0.00    +0.000 OA
ATOM     23  C   UNL     1      -0.911  11.197  22.798  0.00  0.00    +0.000 C 
ENDBRANCH  19  22
ENDBRANCH  13  16
ENDBRANCH   1  12
BRANCH   1  24
ATOM     24  C   UNL     1       3.446   3.867  19.595  0.00  0.00    +0.000 C 
ATOM     25  O   UNL     1       3.717   2.709  19.283  0.00  0.00    +0.000 OA
BRANCH  24  27
ATOM     26  C   UNL     1       1.929   3.402  21.335  0.00  0.00    +0.000 C 
ATOM     27  O   UNL     1       2.948   4.253  20.805  0.00  0.00    +0.000 OA
ENDBRANCH  24  27
ENDBRANCH   1  24
TORSDOF 6
ENDMDL
MODEL 8
REMARK VINA RESULT:      -7.8      0.464      1.051
REMARK  Name = 
REMARK  8 active torsions:
REMARK  status: ('A' for Active; 'I' for Inactive)
REMARK    1  A    between atoms: C_1  and  O_2
REMARK    2  A    between atoms: O_2  and  C_3
REMARK    3  A    between atoms: C_3  and  C_5
REMARK    4  A    between atoms: C_5  and  N_6
REMARK    5  A    between atoms: C_5  and  C_17
REMARK    6  A    between atoms: C_7  and  C_9
REMARK    7  A    between atoms: C_12  and  O_13
REMARK    8  A    between atoms: O_13  and  C_14
REMARK                            x       y       z     vdW  Elec       q    Type
REMARK                         _______ _______ _______ _____ _____    ______ ____
ROOT
ATOM      1  C   UNL     1       4.630   5.405  18.031  0.00  0.00    +0.000 C 
ENDROOT
BRANCH   1   2
ATOM      2  C   UNL     1       3.574   4.501  18.744  0.00  0.00    +0.000 C 
ATOM      3  C   UNL     1       3.206   5.081  20.139  0.00  0.00    +0.000 C 
ATOM      4  C   UNL     1       2.151   4.214  20.847  0.00  0.00    +0.000 C 
ATOM      5  C   UNL     1       0.875   4.166  19.998  0.00  0.00    +0.000 C 
ATOM      6  C   UNL     1       1.191   3.579  18.615  0.00  0.00    +0.000 C 
ATOM      7  C   UNL     1       1.736   2.153  18.788  0.00  0.00    +0.000 C 
ATOM      8  C   UNL     1       3.014   2.180  19.640  0.00  0.00    +0.000 C 
ATOM      9  C   UNL     1       2.701   2.789  21.016  0.00  0.00    +0.000 C 
ATOM     10  C   UNL     1       4.078   3.043  18.939  0.00  0.00    +0.000 C 
ATOM     11  C   UNL     1       2.254   4.445  17.915  0.00  0.00    +0.000 C 
ENDBRANCH   1   2
BRANCH   1  12
ATOM     12  N   UNL     1       5.066   4.822  16.753  0.00  0.00    +0.000 N 
ATOM     13  C   UNL     1       5.314   5.578  15.629  0.00  0.00    +0.000 C 
ATOM     14  O   UNL     1       5.164   6.791  15.577  0.00  0.00    +0.000 OA
ATOM     15  H   UNL     1       5.478   3.895  16.811  0.00  0.00    +0.000 HD
BRANCH  13  16
ATOM     16  C   UNL     1       5.820   4.828  14.440  0.00  0.00    +0.000 A 
ATOM     17  C   UNL     1       7.132   4.996  13.983  0.00  0.00    +0.000 A 
ATOM     18  C   UNL     1       7.569   4.312  12.847  0.00  0.00    +0.000 A 
ATOM     19  C   UNL     1       6.720   3.433  12.174  0.00  0.00    +0.000 A 
ATOM     20  C   UNL     1       5.420   3.236  12.644  0.00  0.00    +0.000 A 
ATOM     21  C   UNL     1       4.974   3.928  13.779  0.00  0.00    +0.000 A 
BRANCH  19  22
ATOM     22  O   UNL     1       7.257   2.869  11.049  0.00  0.00    +0.000 OA
ATOM     23  C   UNL     1       7.064   1.468  10.893  0.00  0.00    +0.000 C 
ENDBRANCH  19  22
ENDBRANCH  13  16
ENDBRANCH   1  12
BRANCH   1  24
ATOM     24  C   UNL     1       5.902   5.629  18.875  0.00  0.00    +0.000 C 
ATOM     25  O   UNL     1       6.300   4.852  19.741  0.00  0.00    +0.000 OA
BRANCH  24  27
ATOM     26  C   UNL     1       7.869   6.735  18.203  0.00  0.00    +0.000 C 
ATOM     27  O   UNL     1       6.489   6.821  18.566  0.00  0.00    +0.000 OA
ENDBRANCH  24  27
ENDBRANCH   1  24
TORSDOF 6
ENDMDL
MODEL 9
REMARK VINA RESULT:      -7.7      3.763      8.057
REMARK  Name = 
REMARK  8 active torsions:
REMARK  status: ('A' for Active; 'I' for Inactive)
REMARK    1  A    between atoms: C_1  and  O_2
REMARK    2  A    between atoms: O_2  and  C_3
REMARK    3  A    between atoms: C_3  and  C_5
REMARK    4  A    between atoms: C_5  and  N_6
REMARK    5  A    between atoms: C_5  and  C_17
REMARK    6  A    between atoms: C_7  and  C_9
REMARK    7  A    between atoms: C_12  and  O_13
REMARK    8  A    between atoms: O_13  and  C_14
REMARK                            x       y       z     vdW  Elec       q    Type
REMARK                         _______ _______ _______ _____ _____    ______ ____
ROOT
ATOM      1  C   UNL     1       3.519   5.147  18.503  0.00  0.00    +0.000 C 
ENDROOT
BRANCH   1   2
ATOM      2  C   UNL     1       4.995   5.401  18.059  0.00  0.00    +0.000 C 
ATOM      3  C   UNL     1       5.956   5.329  19.279  0.00  0.00    +0.000 C 
ATOM      4  C   UNL     1       7.418   5.556  18.858  0.00  0.00    +0.000 C 
ATOM      5  C   UNL     1       7.836   4.473  17.855  0.00  0.00    +0.000 C 
ATOM      6  C   UNL     1       6.922   4.524  16.622  0.00  0.00    +0.000 C 
ATOM      7  C   UNL     1       7.052   5.904  15.958  0.00  0.00    +0.000 C 
ATOM      8  C   UNL     1       6.641   7.003  16.949  0.00  0.00    +0.000 C 
ATOM      9  C   UNL     1       7.541   6.936  18.193  0.00  0.00    +0.000 C 
ATOM     10  C   UNL     1       5.178   6.786  17.376  0.00  0.00    +0.000 C 
ATOM     11  C   UNL     1       5.460   4.305  17.051  0.00  0.00    +0.000 C 
ENDBRANCH   1   2
BRANCH   1  12
ATOM     12  N   UNL     1       2.981   6.284  19.266  0.00  0.00    +0.000 N 
ATOM     13  C   UNL     1       2.160   7.239  18.710  0.00  0.00    +0.000 C 
ATOM     14  O   UNL     1       1.832   7.254  17.531  0.00  0.00    +0.000 OA
ATOM     15  H   UNL     1       2.974   6.172  20.275  0.00  0.00    +0.000 HD
BRANCH  13  16
ATOM     16  C   UNL     1       1.647   8.282  19.648  0.00  0.00    +0.000 A 
ATOM     17  C   UNL     1       1.224   9.531  19.180  0.00  0.00    +0.000 A 
ATOM     18  C   UNL     1       0.783  10.503  20.082  0.00  0.00    +0.000 A 
ATOM     19  C   UNL     1       0.729  10.233  21.450  0.00  0.00    +0.000 A 
ATOM     20  C   UNL     1       1.119   8.978  21.920  0.00  0.00    +0.000 A 
ATOM     21  C   UNL     1       1.571   8.002  21.019  0.00  0.00    +0.000 A 
BRANCH  19  22
ATOM     22  O   UNL     1       0.328  11.287  22.224  0.00  0.00    +0.000 OA
ATOM     23  C   UNL     1      -0.987  11.210  22.761  0.00  0.00    +0.000 C 
ENDBRANCH  19  22
ENDBRANCH  13  16
ENDBRANCH   1  12
BRANCH   1  24
ATOM     24  C   UNL     1       3.362   3.899  19.395  0.00  0.00    +0.000 C 
ATOM     25  O   UNL     1       3.514   2.745  18.999  0.00  0.00    +0.000 OA
BRANCH  24  27
ATOM     26  C   UNL     1       2.076   3.340  21.286  0.00  0.00    +0.000 C 
ATOM     27  O   UNL     1       2.985   4.247  20.659  0.00  0.00    +0.000 OA
ENDBRANCH  24  27
ENDBRANCH   1  24
TORSDOF 6
ENDMDL
