MODEL 1
REMARK VINA RESULT:      -7.6      0.000      0.000
REMARK  Name = 
REMARK  6 active torsions:
REMARK  status: ('A' for Active; 'I' for Inactive)
REMARK    1  A    between atoms: C_1  and  C_2
REMARK    2  A    between atoms: C_4  and  C_5
REMARK    3  A    between atoms: C_7  and  C_8
REMARK    4  A    between atoms: C_8  and  C_9
REMARK    5  A    between atoms: C_8  and  N_20
REMARK    6  A    between atoms: C_10  and  O_11
REMARK                            x       y       z     vdW  Elec       q    Type
REMARK                         _______ _______ _______ _____ _____    ______ ____
ROOT
ATOM      1  C   UNL     1      -0.461  12.329  20.177  0.00  0.00    +0.000 C 
ENDROOT
BRANCH   1   2
ATOM      2  C   UNL     1       0.116  11.004  20.744  0.00  0.00    +0.000 A 
ATOM      3  C   UNL     1      -0.063  10.663  22.103  0.00  0.00    +0.000 A 
ATOM      4  C   UNL     1       0.280   9.413  22.594  0.00  0.00    +0.000 A 
ATOM      5  C   UNL     1       0.869   8.482  21.750  0.00  0.00    +0.000 A 
ATOM      6  C   UNL     1       1.182   8.810  20.430  0.00  0.00    +0.000 A 
ATOM      7  C   UNL     1       1.862   7.875  19.635  0.00  0.00    +0.000 A 
ATOM      8  C   UNL     1       2.247   8.177  18.333  0.00  0.00    +0.000 A 
ATOM      9  C   UNL     1       1.937   9.422  17.801  0.00  0.00    +0.000 A 
ATOM     10  C   UNL     1       1.235  10.357  18.568  0.00  0.00    +0.000 A 
ATOM     11  C   UNL     1       0.829  10.086  19.903  0.00  0.00    +0.000 A 
BRANCH   3  12
ATOM     12  O   UNL     1      -0.613  11.530  23.013  0.00  0.00    +0.000 OA
ATOM     13  H   UNL     1      -0.596  12.430  22.624  0.00  0.00    +0.000 HD
ENDBRANCH   3  12
ENDBRANCH   1   2
BRANCH   1  20
ATOM     14  C   UNL     1      -2.670  10.696  15.896  0.00  0.00    +0.000 C 
ATOM     15  C   UNL     1      -2.815  11.288  17.268  0.00  0.00    +0.000 A 
ATOM     16  C   UNL     1      -4.069  11.548  17.820  0.00  0.00    +0.000 A 
ATOM     17  C   UNL     1      -4.179  12.066  19.114  0.00  0.00    +0.000 A 
ATOM     18  C   UNL     1      -5.528  12.361  19.705  0.00  0.00    +0.000 C 
ATOM     19  C   UNL     1      -3.011  12.311  19.859  0.00  0.00    +0.000 A 
ATOM     20  C   UNL     1      -1.728  12.080  19.326  0.00  0.00    +0.000 A 
ATOM     21  C   UNL     1      -1.663  11.572  18.015  0.00  0.00    +0.000 A 
ENDBRANCH   1  20
BRANCH   1  22
ATOM     22  N   UNL     1       0.590  13.210  19.493  0.00  0.00    +0.000 NA
ATOM     23  C   UNL     1       0.002  14.542  19.182  0.00  0.00    +0.000 C 
ATOM     24  C   UNL     1       0.996  15.618  18.728  0.00  0.00    +0.000 C 
ATOM     25  C   UNL     1       2.135  15.776  19.719  0.00  0.00    +0.000 C 
ATOM     26  C   UNL     1       2.790  14.426  19.906  0.00  0.00    +0.000 C 
ATOM     27  C   UNL     1       1.767  13.399  20.393  0.00  0.00    +0.000 C 
ENDBRANCH   1  22
TORSDOF 4
ENDMDL
MODEL 2
REMARK VINA RESULT:      -7.5      0.933      5.091
REMARK  Name = 
REMARK  6 active torsions:
REMARK  status: ('A' for Active; 'I' for Inactive)
REMARK    1  A    between atoms: C_1  and  C_2
REMARK    2  A    between atoms: C_4  and  C_5
REMARK    3  A    between atoms: C_7  and  C_8
REMARK    4  A    between atoms: C_8  and  C_9
REMARK    5  A    between atoms: C_8  and  N_20
REMARK    6  A    between atoms: C_10  and  O_11
REMARK                            x       y       z     vdW  Elec       q    Type
REMARK                         _______ _______ _______ _____ _____    ______ ____
ROOT
ATOM      1  C   UNL     1      -0.293  11.973  19.193  0.00  0.00    +0.000 C 
ENDROOT
BRANCH   1   2
ATOM      2  C   UNL     1      -1.842  11.959  19.106  0.00  0.00    +0.000 A 
ATOM      3  C   UNL     1      -2.627  12.512  20.142  0.00  0.00    +0.000 A 
ATOM      4  C   UNL     1      -3.997  12.677  20.013  0.00  0.00    +0.000 A 
ATOM      5  C   UNL     1      -4.635  12.238  18.861  0.00  0.00    +0.000 A 
ATOM      6  C   UNL     1      -3.927  11.572  17.860  0.00  0.00    +0.000 A 
ATOM      7  C   UNL     1      -4.621  11.059  16.753  0.00  0.00    +0.000 A 
ATOM      8  C   UNL     1      -3.968  10.339  15.760  0.00  0.00    +0.000 A 
ATOM      9  C   UNL     1      -2.597  10.137  15.852  0.00  0.00    +0.000 A 
ATOM     10  C   UNL     1      -1.883  10.663  16.933  0.00  0.00    +0.000 A 
ATOM     11  C   UNL     1      -2.515  11.401  17.969  0.00  0.00    +0.000 A 
BRANCH   3  12
ATOM     12  O   UNL     1      -2.084  12.948  21.324  0.00  0.00    +0.000 OA
ATOM     13  H   UNL     1      -2.168  13.924  21.355  0.00  0.00    +0.000 HD
ENDBRANCH   3  12
ENDBRANCH   1   2
BRANCH   1  20
ATOM     14  C   UNL     1       0.118   9.353  23.534  0.00  0.00    +0.000 C 
ATOM     15  C   UNL     1       0.446   9.474  22.074  0.00  0.00    +0.000 A 
ATOM     16  C   UNL     1       1.157   8.479  21.403  0.00  0.00    +0.000 A 
ATOM     17  C   UNL     1       1.418   8.598  20.034  0.00  0.00    +0.000 A 
ATOM     18  C   UNL     1       2.197   7.536  19.312  0.00  0.00    +0.000 C 
ATOM     19  C   UNL     1       0.946   9.725  19.338  0.00  0.00    +0.000 A 
ATOM     20  C   UNL     1       0.242  10.758  19.988  0.00  0.00    +0.000 A 
ATOM     21  C   UNL     1       0.014  10.606  21.368  0.00  0.00    +0.000 A 
ENDBRANCH   1  20
BRANCH   1  22
ATOM     22  N   UNL     1       0.283  13.320  19.644  0.00  0.00    +0.000 NA
ATOM     23  C   UNL     1       1.769  13.238  19.693  0.00  0.00    +0.000 C 
ATOM     24  C   UNL     1       2.502  14.573  19.881  0.00  0.00    +0.000 C 
ATOM     25  C   UNL     1       2.075  15.592  18.841  0.00  0.00    +0.000 C 
ATOM     26  C   UNL     1       0.572  15.743  18.915  0.00  0.00    +0.000 C 
ATOM     27  C   UNL     1      -0.111  14.395  18.686  0.00  0.00    +0.000 C 
ENDBRANCH   1  22
TORSDOF 4
ENDMDL
MODEL 3
REMARK VINA RESULT:      -7.5      0.943      4.839
REMARK  Name = 
REMARK  6 active torsions:
REMARK  status: ('A' for Active; 'I' for Inactive)
REMARK    1  A    between atoms: C_1  and  C_2
REMARK    2  A    between atoms: C_4  and  C_5
REMARK    3  A    between atoms: C_7  and  C_8
REMARK    4  A    between atoms: C_8  and  C_9
REMARK    5  A    between atoms: C_8  and  N_20
REMARK    6  A    between atoms: C_10  and  O_11
REMARK                            x       y       z     vdW  Elec       q    Type
REMARK                         _______ _______ _______ _____ _____    ______ ____
ROOT
ATOM      1  C   UNL     1      -0.349  11.908  19.185  0.00  0.00    +0.000 C 
ENDROOT
BRANCH   1   2
ATOM      2  C   UNL     1      -1.897  11.923  19.082  0.00  0.00    +0.000 A 
ATOM      3  C   UNL     1      -2.683  12.472  20.119  0.00  0.00    +0.000 A 
ATOM      4  C   UNL     1      -4.049  12.662  19.979  0.00  0.00    +0.000 A 
ATOM      5  C   UNL     1      -4.682  12.254  18.813  0.00  0.00    +0.000 A 
ATOM      6  C   UNL     1      -3.975  11.593  17.808  0.00  0.00    +0.000 A 
ATOM      7  C   UNL     1      -4.666  11.110  16.687  0.00  0.00    +0.000 A 
ATOM      8  C   UNL     1      -4.015  10.395  15.688  0.00  0.00    +0.000 A 
ATOM      9  C   UNL     1      -2.649  10.167  15.791  0.00  0.00    +0.000 A 
ATOM     10  C   UNL     1      -1.937  10.664  16.887  0.00  0.00    +0.000 A 
ATOM     11  C   UNL     1      -2.568  11.395  17.929  0.00  0.00    +0.000 A 
BRANCH   3  12
ATOM     12  O   UNL     1      -2.145  12.879  21.314  0.00  0.00    +0.000 OA
ATOM     13  H   UNL     1      -2.879  13.185  21.888  0.00  0.00    +0.000 HD
ENDBRANCH   3  12
ENDBRANCH   1   2
BRANCH   1  20
ATOM     14  C   UNL     1       2.233   7.529  19.353  0.00  0.00    +0.000 C 
ATOM     15  C   UNL     1       1.407   8.557  20.069  0.00  0.00    +0.000 A 
ATOM     16  C   UNL     1       1.149   8.461  21.436  0.00  0.00    +0.000 A 
ATOM     17  C   UNL     1       0.406   9.452  22.087  0.00  0.00    +0.000 A 
ATOM     18  C   UNL     1       0.115   9.343  23.556  0.00  0.00    +0.000 C 
ATOM     19  C   UNL     1      -0.067  10.553  21.351  0.00  0.00    +0.000 A 
ATOM     20  C   UNL     1       0.157  10.672  19.965  0.00  0.00    +0.000 A 
ATOM     21  C   UNL     1       0.896   9.646  19.347  0.00  0.00    +0.000 A 
ENDBRANCH   1  20
BRANCH   1  22
ATOM     22  N   UNL     1       0.246  13.237  19.665  0.00  0.00    +0.000 NA
ATOM     23  C   UNL     1       1.730  13.137  19.705  0.00  0.00    +0.000 C 
ATOM     24  C   UNL     1       2.480  14.458  19.920  0.00  0.00    +0.000 C 
ATOM     25  C   UNL     1       2.061  15.507  18.907  0.00  0.00    +0.000 C 
ATOM     26  C   UNL     1       0.559  15.674  18.992  0.00  0.00    +0.000 C 
ATOM     27  C   UNL     1      -0.141  14.339  18.734  0.00  0.00    +0.000 C 
ENDBRANCH   1  22
TORSDOF 4
ENDMDL
MODEL 4
REMARK VINA RESULT:      -7.5      0.151      1.695
REMARK  Name = 
REMARK  6 active torsions:
REMARK  status: ('A' for Active; 'I' for Inactive)
REMARK    1  A    between atoms: C_1  and  C_2
REMARK    2  A    between atoms: C_4  and  C_5
REMARK    3  A    between atoms: C_7  and  C_8
REMARK    4  A    between atoms: C_8  and  C_9
REMARK    5  A    between atoms: C_8  and  N_20
REMARK    6  A    between atoms: C_10  and  O_11
REMARK                            x       y       z     vdW  Elec       q    Type
REMARK                         _______ _______ _______ _____ _____    ______ ____
ROOT
ATOM      1  C   UNL     1      -0.608  12.314  20.214  0.00  0.00    +0.000 C 
ENDROOT
BRANCH   1   2
ATOM      2  C   UNL     1       0.019  11.014  20.787  0.00  0.00    +0.000 A 
ATOM      3  C   UNL     1      -0.123  10.688  22.154  0.00  0.00    +0.000 A 
ATOM      4  C   UNL     1       0.267   9.456  22.655  0.00  0.00    +0.000 A 
ATOM      5  C   UNL     1       0.867   8.531  21.812  0.00  0.00    +0.000 A 
ATOM      6  C   UNL     1       1.144   8.849  20.482  0.00  0.00    +0.000 A 
ATOM      7  C   UNL     1       1.837   7.925  19.686  0.00  0.00    +0.000 A 
ATOM      8  C   UNL     1       2.187   8.220  18.373  0.00  0.00    +0.000 A 
ATOM      9  C   UNL     1       1.829   9.447  17.830  0.00  0.00    +0.000 A 
ATOM     10  C   UNL     1       1.115  10.371  18.599  0.00  0.00    +0.000 A 
ATOM     11  C   UNL     1       0.743  10.107  19.944  0.00  0.00    +0.000 A 
BRANCH   3  12
ATOM     12  O   UNL     1      -0.681  11.551  23.063  0.00  0.00    +0.000 OA
ATOM     13  H   UNL     1      -1.359  11.058  23.572  0.00  0.00    +0.000 HD
ENDBRANCH   3  12
ENDBRANCH   1   2
BRANCH   1  20
ATOM     14  C   UNL     1      -5.651  12.405  19.562  0.00  0.00    +0.000 C 
ATOM     15  C   UNL     1      -4.296  12.054  19.022  0.00  0.00    +0.000 A 
ATOM     16  C   UNL     1      -4.136  11.532  17.738  0.00  0.00    +0.000 A 
ATOM     17  C   UNL     1      -2.859  11.247  17.245  0.00  0.00    +0.000 A 
ATOM     18  C   UNL     1      -2.686  10.670  15.869  0.00  0.00    +0.000 C 
ATOM     19  C   UNL     1      -1.736  11.504  18.051  0.00  0.00    +0.000 A 
ATOM     20  C   UNL     1      -1.861  12.012  19.360  0.00  0.00    +0.000 A 
ATOM     21  C   UNL     1      -3.165  12.271  19.822  0.00  0.00    +0.000 A 
ENDBRANCH   1  20
BRANCH   1  22
ATOM     22  N   UNL     1       0.409  13.234  19.531  0.00  0.00    +0.000 NA
ATOM     23  C   UNL     1      -0.225  14.548  19.232  0.00  0.00    +0.000 C 
ATOM     24  C   UNL     1       0.730  15.660  18.780  0.00  0.00    +0.000 C 
ATOM     25  C   UNL     1       1.869  15.849  19.765  0.00  0.00    +0.000 C 
ATOM     26  C   UNL     1       2.570  14.519  19.939  0.00  0.00    +0.000 C 
ATOM     27  C   UNL     1       1.584  13.457  20.425  0.00  0.00    +0.000 C 
ENDBRANCH   1  22
TORSDOF 4
ENDMDL
MODEL 5
REMARK VINA RESULT:      -7.0      6.365     10.505
REMARK  Name = 
REMARK  6 active torsions:
REMARK  status: ('A' for Active; 'I' for Inactive)
REMARK    1  A    between atoms: C_1  and  C_2
REMARK    2  A    between atoms: C_4  and  C_5
REMARK    3  A    between atoms: C_7  and  C_8
REMARK    4  A    between atoms: C_8  and  C_9
REMARK    5  A    between atoms: C_8  and  N_20
REMARK    6  A    between atoms: C_10  and  O_11
REMARK                            x       y       z     vdW  Elec       q    Type
REMARK                         _______ _______ _______ _____ _____    ______ ____
ROOT
ATOM      1  C   UNL     1       5.837   4.479  16.565  0.00  0.00    +0.000 C 
ENDROOT
BRANCH   1   2
ATOM      2  C   UNL     1       4.411   4.382  17.169  0.00  0.00    +0.000 A 
ATOM      3  C   UNL     1       3.829   3.125  17.445  0.00  0.00    +0.000 A 
ATOM      4  C   UNL     1       2.639   3.008  18.146  0.00  0.00    +0.000 A 
ATOM      5  C   UNL     1       1.962   4.153  18.544  0.00  0.00    +0.000 A 
ATOM      6  C   UNL     1       2.428   5.420  18.189  0.00  0.00    +0.000 A 
ATOM      7  C   UNL     1       1.667   6.550  18.526  0.00  0.00    +0.000 A 
ATOM      8  C   UNL     1       2.061   7.827  18.144  0.00  0.00    +0.000 A 
ATOM      9  C   UNL     1       3.239   7.993  17.429  0.00  0.00    +0.000 A 
ATOM     10  C   UNL     1       4.025   6.882  17.106  0.00  0.00    +0.000 A 
ATOM     11  C   UNL     1       3.655   5.562  17.476  0.00  0.00    +0.000 A 
BRANCH   3  12
ATOM     12  O   UNL     1       4.415   1.944  17.067  0.00  0.00    +0.000 OA
ATOM     13  H   UNL     1       4.721   1.484  17.877  0.00  0.00    +0.000 HD
ENDBRANCH   3  12
ENDBRANCH   1   2
BRANCH   1  20
ATOM     14  C   UNL     1       8.032   8.973  17.491  0.00  0.00    +0.000 C 
ATOM     15  C   UNL     1       7.823   7.542  17.893  0.00  0.00    +0.000 A 
ATOM     16  C   UNL     1       8.379   7.026  19.063  0.00  0.00    +0.000 A 
ATOM     17  C   UNL     1       8.139   5.699  19.435  0.00  0.00    +0.000 A 
ATOM     18  C   UNL     1       8.749   5.137  20.687  0.00  0.00    +0.000 C 
ATOM     19  C   UNL     1       7.320   4.893  18.623  0.00  0.00    +0.000 A 
ATOM     20  C   UNL     1       6.759   5.376  17.424  0.00  0.00    +0.000 A 
ATOM     21  C   UNL     1       7.037   6.712  17.080  0.00  0.00    +0.000 A 
ENDBRANCH   1  20
BRANCH   1  22
ATOM     22  N   UNL     1       5.847   4.819  15.070  0.00  0.00    +0.000 NA
ATOM     23  C   UNL     1       7.251   4.884  14.581  0.00  0.00    +0.000 C 
ATOM     24  C   UNL     1       7.421   4.963  13.058  0.00  0.00    +0.000 C 
ATOM     25  C   UNL     1       6.680   3.840  12.356  0.00  0.00    +0.000 C 
ATOM     26  C   UNL     1       5.229   3.893  12.780  0.00  0.00    +0.000 C 
ATOM     27  C   UNL     1       5.113   3.773  14.299  0.00  0.00    +0.000 C 
ENDBRANCH   1  22
TORSDOF 4
ENDMDL
MODEL 6
REMARK VINA RESULT:      -7.0      1.019      5.091
REMARK  Name = 
REMARK  6 active torsions:
REMARK  status: ('A' for Active; 'I' for Inactive)
REMARK    1  A    between atoms: C_1  and  C_2
REMARK    2  A    between atoms: C_4  and  C_5
REMARK    3  A    between atoms: C_7  and  C_8
REMARK    4  A    between atoms: C_8  and  C_9
REMARK    5  A    between atoms: C_8  and  N_20
REMARK    6  A    between atoms: C_10  and  O_11
REMARK                            x       y       z     vdW  Elec       q    Type
REMARK                         _______ _______ _______ _____ _____    ______ ____
ROOT
ATOM      1  C   UNL     1       0.148  11.986  18.788  0.00  0.00    +0.000 C 
ENDROOT
BRANCH   1   2
ATOM      2  C   UNL     1      -1.352  12.067  19.181  0.00  0.00    +0.000 A 
ATOM      3  C   UNL     1      -1.738  12.531  20.458  0.00  0.00    +0.000 A 
ATOM      4  C   UNL     1      -3.064  12.784  20.774  0.00  0.00    +0.000 A 
ATOM      5  C   UNL     1      -4.054  12.523  19.837  0.00  0.00    +0.000 A 
ATOM      6  C   UNL     1      -3.739  11.947  18.605  0.00  0.00    +0.000 A 
ATOM      7  C   UNL     1      -4.776  11.611  17.721  0.00  0.00    +0.000 A 
ATOM      8  C   UNL     1      -4.517  10.982  16.508  0.00  0.00    +0.000 A 
ATOM      9  C   UNL     1      -3.205  10.697  16.154  0.00  0.00    +0.000 A 
ATOM     10  C   UNL     1      -2.156  11.049  17.009  0.00  0.00    +0.000 A 
ATOM     11  C   UNL     1      -2.381  11.688  18.257  0.00  0.00    +0.000 A 
BRANCH   3  12
ATOM     12  O   UNL     1      -0.829  12.790  21.453  0.00  0.00    +0.000 OA
ATOM     13  H   UNL     1      -1.320  12.876  22.298  0.00  0.00    +0.000 HD
ENDBRANCH   3  12
ENDBRANCH   1   2
BRANCH   1  20
ATOM     14  C   UNL     1       0.807   8.195  22.114  0.00  0.00    +0.000 C 
ATOM     15  C   UNL     1       1.086   8.771  20.757  0.00  0.00    +0.000 A 
ATOM     16  C   UNL     1       1.822   8.068  19.804  0.00  0.00    +0.000 A 
ATOM     17  C   UNL     1       2.038   8.612  18.534  0.00  0.00    +0.000 A 
ATOM     18  C   UNL     1       2.843   7.863  17.511  0.00  0.00    +0.000 C 
ATOM     19  C   UNL     1       1.493   9.871  18.222  0.00  0.00    +0.000 A 
ATOM     20  C   UNL     1       0.762  10.618  19.167  0.00  0.00    +0.000 A 
ATOM     21  C   UNL     1       0.581  10.040  20.437  0.00  0.00    +0.000 A 
ENDBRANCH   1  20
BRANCH   1  22
ATOM     22  N   UNL     1       0.969  13.193  19.258  0.00  0.00    +0.000 NA
ATOM     23  C   UNL     1       2.363  13.078  18.747  0.00  0.00    +0.000 C 
ATOM     24  C   UNL     1       3.237  14.328  18.917  0.00  0.00    +0.000 C 
ATOM     25  C   UNL     1       2.571  15.557  18.327  0.00  0.00    +0.000 C 
ATOM     26  C   UNL     1       1.210  15.712  18.970  0.00  0.00    +0.000 C 
ATOM     27  C   UNL     1       0.367  14.457  18.742  0.00  0.00    +0.000 C 
ENDBRANCH   1  22
TORSDOF 4
ENDMDL
MODEL 7
REMARK VINA RESULT:      -6.9      1.673      5.603
REMARK  Name = 
REMARK  6 active torsions:
REMARK  status: ('A' for Active; 'I' for Inactive)
REMARK    1  A    between atoms: C_1  and  C_2
REMARK    2  A    between atoms: C_4  and  C_5
REMARK    3  A    between atoms: C_7  and  C_8
REMARK    4  A    between atoms: C_8  and  C_9
REMARK    5  A    between atoms: C_8  and  N_20
REMARK    6  A    between atoms: C_10  and  O_11
REMARK                            x       y       z     vdW  Elec       q    Type
REMARK                         _______ _______ _______ _____ _____    ______ ____
ROOT
ATOM      1  C   UNL     1      -0.358  12.144  19.049  0.00  0.00    +0.000 C 
ENDROOT
BRANCH   1   2
ATOM      2  C   UNL     1      -1.905  12.127  18.924  0.00  0.00    +0.000 A 
ATOM      3  C   UNL     1      -2.526  11.716  17.724  0.00  0.00    +0.000 A 
ATOM      4  C   UNL     1      -3.896  11.518  17.640  0.00  0.00    +0.000 A 
ATOM      5  C   UNL     1      -4.696  11.783  18.743  0.00  0.00    +0.000 A 
ATOM      6  C   UNL     1      -4.149  12.310  19.914  0.00  0.00    +0.000 A 
ATOM      7  C   UNL     1      -5.001  12.655  20.974  0.00  0.00    +0.000 A 
ATOM      8  C   UNL     1      -4.510  13.237  22.137  0.00  0.00    +0.000 A 
ATOM      9  C   UNL     1      -3.146  13.466  22.262  0.00  0.00    +0.000 A 
ATOM     10  C   UNL     1      -2.277  13.105  21.228  0.00  0.00    +0.000 A 
ATOM     11  C   UNL     1      -2.742  12.512  20.023  0.00  0.00    +0.000 A 
BRANCH   3  12
ATOM     12  O   UNL     1      -1.816  11.456  16.579  0.00  0.00    +0.000 OA
ATOM     13  H   UNL     1      -2.426  11.547  15.816  0.00  0.00    +0.000 HD
ENDBRANCH   3  12
ENDBRANCH   1   2
BRANCH   1  20
ATOM     14  C   UNL     1      -0.032   9.444  23.347  0.00  0.00    +0.000 C 
ATOM     15  C   UNL     1       0.326   9.592  21.897  0.00  0.00    +0.000 A 
ATOM     16  C   UNL     1       1.053   8.612  21.222  0.00  0.00    +0.000 A 
ATOM     17  C   UNL     1       1.343   8.757  19.861  0.00  0.00    +0.000 A 
ATOM     18  C   UNL     1       2.139   7.710  19.136  0.00  0.00    +0.000 C 
ATOM     19  C   UNL     1       0.882   9.897  19.177  0.00  0.00    +0.000 A 
ATOM     20  C   UNL     1       0.163  10.916  19.832  0.00  0.00    +0.000 A 
ATOM     21  C   UNL     1      -0.094  10.737  21.203  0.00  0.00    +0.000 A 
ENDBRANCH   1  20
BRANCH   1  22
ATOM     22  N   UNL     1       0.201  13.484  19.541  0.00  0.00    +0.000 NA
ATOM     23  C   UNL     1       1.687  13.415  19.600  0.00  0.00    +0.000 C 
ATOM     24  C   UNL     1       2.406  14.751  19.829  0.00  0.00    +0.000 C 
ATOM     25  C   UNL     1       1.978  15.794  18.814  0.00  0.00    +0.000 C 
ATOM     26  C   UNL     1       0.472  15.929  18.879  0.00  0.00    +0.000 C 
ATOM     27  C   UNL     1      -0.196  14.580  18.608  0.00  0.00    +0.000 C 
ENDBRANCH   1  22
TORSDOF 4
ENDMDL
MODEL 8
REMARK VINA RESULT:      -6.9      1.722      4.451
REMARK  Name = 
REMARK  6 active torsions:
REMARK  status: ('A' for Active; 'I' for Inactive)
REMARK    1  A    between atoms: C_1  and  C_2
REMARK    2  A    between atoms: C_4  and  C_5
REMARK    3  A    between atoms: C_7  and  C_8
REMARK    4  A    between atoms: C_8  and  C_9
REMARK    5  A    between atoms: C_8  and  N_20
REMARK    6  A    between atoms: C_10  and  O_11
REMARK                            x       y       z     vdW  Elec       q    Type
REMARK                         _______ _______ _______ _____ _____    ______ ____
ROOT
ATOM      1  C   UNL     1      -0.106  11.216  18.344  0.00  0.00    +0.000 C 
ENDROOT
BRANCH   1   2
ATOM      2  C   UNL     1       0.370  10.233  19.448  0.00  0.00    +0.000 A 
ATOM      3  C   UNL     1      -0.073  10.378  20.781  0.00  0.00    +0.000 A 
ATOM      4  C   UNL     1       0.188   9.418  21.746  0.00  0.00    +0.000 A 
ATOM      5  C   UNL     1       0.954   8.308  21.420  0.00  0.00    +0.000 A 
ATOM      6  C   UNL     1       1.521   8.177  20.151  0.00  0.00    +0.000 A 
ATOM      7  C   UNL     1       2.367   7.089  19.887  0.00  0.00    +0.000 A 
ATOM      8  C   UNL     1       3.001   6.948  18.658  0.00  0.00    +0.000 A 
ATOM      9  C   UNL     1       2.780   7.892  17.663  0.00  0.00    +0.000 A 
ATOM     10  C   UNL     1       1.919   8.968  17.898  0.00  0.00    +0.000 A 
ATOM     11  C   UNL     1       1.257   9.149  19.141  0.00  0.00    +0.000 A 
BRANCH   3  12
ATOM     12  O   UNL     1      -0.813  11.456  21.198  0.00  0.00    +0.000 OA
ATOM     13  H   UNL     1      -0.649  11.584  22.156  0.00  0.00    +0.000 HD
ENDBRANCH   3  12
ENDBRANCH   1   2
BRANCH   1  20
ATOM     14  C   UNL     1       3.844  14.420  18.324  0.00  0.00    +0.000 C 
ATOM     15  C   UNL     1       2.376  14.198  18.540  0.00  0.00    +0.000 A 
ATOM     16  C   UNL     1       1.517  15.253  18.851  0.00  0.00    +0.000 A 
ATOM     17  C   UNL     1       0.147  15.026  19.012  0.00  0.00    +0.000 A 
ATOM     18  C   UNL     1      -0.777  16.157  19.362  0.00  0.00    +0.000 C 
ATOM     19  C   UNL     1      -0.360  13.724  18.846  0.00  0.00    +0.000 A 
ATOM     20  C   UNL     1       0.481  12.632  18.552  0.00  0.00    +0.000 A 
ATOM     21  C   UNL     1       1.854  12.902  18.412  0.00  0.00    +0.000 A 
ENDBRANCH   1  20
BRANCH   1  22
ATOM     22  N   UNL     1      -1.622  11.193  18.117  0.00  0.00    +0.000 NA
ATOM     23  C   UNL     1      -1.931  11.703  16.752  0.00  0.00    +0.000 C 
ATOM     24  C   UNL     1      -3.378  11.506  16.282  0.00  0.00    +0.000 C 
ATOM     25  C   UNL     1      -3.809  10.055  16.402  0.00  0.00    +0.000 C 
ATOM     26  C   UNL     1      -3.602   9.617  17.835  0.00  0.00    +0.000 C 
ATOM     27  C   UNL     1      -2.140   9.798  18.242  0.00  0.00    +0.000 C 
ENDBRANCH   1  22
TORSDOF 4
ENDMDL
MODEL 9
REMARK VINA RESULT:      -6.8      1.677      5.387
REMARK  Name = 
REMARK  6 active torsions:
REMARK  status: ('A' for Active; 'I' for Inactive)
REMARK    1  A    between atoms: C_1  and  C_2
REMARK    2  A    between atoms: C_4  and  C_5
REMARK    3  A    between atoms: C_7  and  C_8
REMARK    4  A    between atoms: C_8  and  C_9
REMARK    5  A    between atoms: C_8  and  N_20
REMARK    6  A    between atoms: C_10  and  O_11
REMARK                            x       y       z     vdW  Elec       q    Type
REMARK                         _______ _______ _______ _____ _____    ______ ____
ROOT
ATOM      1  C   UNL     1      -0.594  12.235  18.944  0.00  0.00    +0.000 C 
ENDROOT
BRANCH   1   2
ATOM      2  C   UNL     1      -2.137  12.147  18.802  0.00  0.00    +0.000 A 
ATOM      3  C   UNL     1      -2.726  11.694  17.601  0.00  0.00    +0.000 A 
ATOM      4  C   UNL     1      -4.085  11.434  17.505  0.00  0.00    +0.000 A 
ATOM      5  C   UNL     1      -4.908  11.677  18.596  0.00  0.00    +0.000 A 
ATOM      6  C   UNL     1      -4.398  12.241  19.766  0.00  0.00    +0.000 A 
ATOM      7  C   UNL     1      -5.276  12.560  20.813  0.00  0.00    +0.000 A 
ATOM      8  C   UNL     1      -4.825  13.177  21.974  0.00  0.00    +0.000 A 
ATOM      9  C   UNL     1      -3.474  13.469  22.111  0.00  0.00    +0.000 A 
ATOM     10  C   UNL     1      -2.578  13.134  21.090  0.00  0.00    +0.000 A 
ATOM     11  C   UNL     1      -3.003  12.507  19.888  0.00  0.00    +0.000 A 
BRANCH   3  12
ATOM     12  O   UNL     1      -1.993  11.453  16.467  0.00  0.00    +0.000 OA
ATOM     13  H   UNL     1      -1.108  11.130  16.740  0.00  0.00    +0.000 HD
ENDBRANCH   3  12
ENDBRANCH   1   2
BRANCH   1  20
ATOM     14  C   UNL     1       2.224   8.012  18.634  0.00  0.00    +0.000 C 
ATOM     15  C   UNL     1       1.356   8.915  19.460  0.00  0.00    +0.000 A 
ATOM     16  C   UNL     1       1.127   8.667  20.813  0.00  0.00    +0.000 A 
ATOM     17  C   UNL     1       0.343   9.543  21.571  0.00  0.00    +0.000 A 
ATOM     18  C   UNL     1       0.083   9.270  23.024  0.00  0.00    +0.000 C 
ATOM     19  C   UNL     1      -0.203  10.685  20.956  0.00  0.00    +0.000 A 
ATOM     20  C   UNL     1      -0.009  10.956  19.587  0.00  0.00    +0.000 A 
ATOM     21  C   UNL     1       0.774  10.041  18.860  0.00  0.00    +0.000 A 
ENDBRANCH   1  20
BRANCH   1  22
ATOM     22  N   UNL     1      -0.112  13.538  19.590  0.00  0.00    +0.000 NA
ATOM     23  C   UNL     1       1.339  13.434  19.905  0.00  0.00    +0.000 C 
ATOM     24  C   UNL     1       2.024  14.742  20.321  0.00  0.00    +0.000 C 
ATOM     25  C   UNL     1       1.796  15.840  19.298  0.00  0.00    +0.000 C 
ATOM     26  C   UNL     1       0.304  16.004  19.105  0.00  0.00    +0.000 C 
ATOM     27  C   UNL     1      -0.324  14.684  18.656  0.00  0.00    +0.000 C 
ENDBRANCH   1  22
TORSDOF 4
ENDMDL
