MODEL 1
REMARK VINA RESULT:      -8.7      0.000      0.000
REMARK  Name = 
REMARK  7 active torsions:
REMARK  status: ('A' for Active; 'I' for Inactive)
REMARK    1  A    between atoms: C_1  and  N_2
REMARK    2  A    between atoms: C_4  and  C_5
REMARK    3  A    between atoms: N_14  and  C_15
REMARK    4  A    between atoms: C_15  and  C_16
REMARK    5  A    between atoms: C_16  and  C_17
REMARK    6  A    between atoms: C_17  and  C_18
REMARK    7  A    between atoms: N_20  and  C_21
REMARK                            x       y       z     vdW  Elec       q    Type
REMARK                         _______ _______ _______ _____ _____    ______ ____
ROOT
ATOM      1  C   UNL     1       2.212   7.613  19.054  0.00  0.00    +0.000 A 
ATOM      2  C   UNL     1       1.523   8.709  18.463  0.00  0.00    +0.000 A 
ATOM      3  C   UNL     1       0.935   9.365  19.519  0.00  0.00    +0.000 A 
ATOM      4  N   UNL     1       1.274   8.650  20.623  0.00  0.00    +0.000 N 
ATOM      5  N   UNL     1       2.052   7.597  20.384  0.00  0.00    +0.000 NA
ATOM      6  C   UNL     1       0.892   8.982  21.966  0.00  0.00    +0.000 C 
ATOM      7  C   UNL     1      -0.029  10.179  22.089  0.00  0.00    +0.000 C 
ATOM      8  C   UNL     1      -0.378  10.930  20.828  0.00  0.00    +0.000 C 
ATOM      9  O   UNL     1      -1.114  11.907  20.856  0.00  0.00    +0.000 OA
ATOM     10  N   UNL     1       0.147  10.507  19.550  0.00  0.00    +0.000 N 
ENDROOT
BRANCH   1  14
ATOM     11  C   UNL     1       5.890   5.491  16.420  0.00  0.00    +0.000 C 
ATOM     12  N   UNL     1       4.654   5.670  17.153  0.00  0.00    +0.000 N 
ATOM     13  C   UNL     1       4.211   6.864  17.661  0.00  0.00    +0.000 A 
ATOM     14  C   UNL     1       3.026   6.631  18.327  0.00  0.00    +0.000 A 
ATOM     15  C   UNL     1       2.729   5.235  18.199  0.00  0.00    +0.000 A 
ATOM     16  C   UNL     1       1.685   4.390  18.643  0.00  0.00    +0.000 A 
ATOM     17  C   UNL     1       1.703   3.026  18.337  0.00  0.00    +0.000 A 
ATOM     18  C   UNL     1       2.743   2.484  17.593  0.00  0.00    +0.000 A 
ATOM     19  C   UNL     1       3.792   3.289  17.140  0.00  0.00    +0.000 A 
ATOM     20  C   UNL     1       3.766   4.660  17.454  0.00  0.00    +0.000 A 
ENDBRANCH   1  14
BRANCH  10  21
ATOM     21  C   UNL     1      -0.324  11.203  18.327  0.00  0.00    +0.000 C 
BRANCH  21  22
ATOM     22  C   UNL     1      -1.562  10.541  17.710  0.00  0.00    +0.000 C 
BRANCH  22  23
ATOM     23  C   UNL     1      -2.654  11.529  17.289  0.00  0.00    +0.000 C 
BRANCH  23  24
ATOM     24  C   UNL     1      -3.768  11.536  18.314  0.00  0.00    +0.000 C 
ATOM     25  O   UNL     1      -4.652  10.686  18.263  0.00  0.00    +0.000 OA
ATOM     26  N   UNL     1      -3.703  12.584  19.208  0.00  0.00    +0.000 N 
ATOM     27  H   UNL     1      -3.017  13.313  19.044  0.00  0.00    +0.000 HD
BRANCH  26  28
ATOM     28  C   UNL     1      -4.661  12.841  20.213  0.00  0.00    +0.000 A 
ATOM     29  C   UNL     1      -4.366  12.757  21.579  0.00  0.00    +0.000 A 
ATOM     30  C   UNL     1      -5.368  12.923  22.538  0.00  0.00    +0.000 A 
ATOM     31  C   UNL     1      -6.667  13.189  22.135  0.00  0.00    +0.000 A 
ATOM     32 CL   UNL     1      -7.912  13.329  23.312  0.00  0.00    +0.000 Cl
ATOM     33  C   UNL     1      -6.969  13.326  20.781  0.00  0.00    +0.000 A 
ATOM     34  C   UNL     1      -5.962  13.165  19.821  0.00  0.00    +0.000 A 
ENDBRANCH  26  28
ENDBRANCH  23  24
ENDBRANCH  22  23
ENDBRANCH  21  22
ENDBRANCH  10  21
TORSDOF 6
ENDMDL
MODEL 2
REMARK VINA RESULT:      -8.4      5.223     10.187
REMARK  Name = 
REMARK  7 active torsions:
REMARK  status: ('A' for Active; 'I' for Inactive)
REMARK    1  A    between atoms: C_1  and  N_2
REMARK    2  A    between atoms: C_4  and  C_5
REMARK    3  A    between atoms: N_14  and  C_15
REMARK    4  A    between atoms: C_15  and  C_16
REMARK    5  A    between atoms: C_16  and  C_17
REMARK    6  A    between atoms: C_17  and  C_18
REMARK    7  A    between atoms: N_20  and  C_21
REMARK                            x       y       z     vdW  Elec       q    Type
REMARK                         _______ _______ _______ _____ _____    ______ ____
ROOT
ATOM      1  C   UNL     1       1.863   7.391  20.087  0.00  0.00    +0.000 A 
ATOM      2  C   UNL     1       3.009   6.990  19.344  0.00  0.00    +0.000 A 
ATOM      3  C   UNL     1       3.174   5.657  19.644  0.00  0.00    +0.000 A 
ATOM      4  N   UNL     1       2.178   5.358  20.519  0.00  0.00    +0.000 N 
ATOM      5  N   UNL     1       1.363   6.373  20.799  0.00  0.00    +0.000 NA
ATOM      6  C   UNL     1       1.950   4.062  21.090  0.00  0.00    +0.000 C 
ATOM      7  C   UNL     1       2.978   3.012  20.721  0.00  0.00    +0.000 C 
ATOM      8  C   UNL     1       4.065   3.403  19.752  0.00  0.00    +0.000 C 
ATOM      9  O   UNL     1       4.926   2.605  19.409  0.00  0.00    +0.000 OA
ATOM     10  N   UNL     1       4.119   4.741  19.207  0.00  0.00    +0.000 N 
ENDROOT
BRANCH   1  14
ATOM     11  C   UNL     1       0.312  11.893  18.573  0.00  0.00    +0.000 C 
ATOM     12  N   UNL     1       0.572  10.742  19.412  0.00  0.00    +0.000 N 
ATOM     13  C   UNL     1       1.264   9.626  19.018  0.00  0.00    +0.000 A 
ATOM     14  C   UNL     1       1.267   8.732  20.069  0.00  0.00    +0.000 A 
ATOM     15  C   UNL     1       0.561   9.345  21.155  0.00  0.00    +0.000 A 
ATOM     16  C   UNL     1       0.227   8.958  22.475  0.00  0.00    +0.000 A 
ATOM     17  C   UNL     1      -0.500   9.822  23.300  0.00  0.00    +0.000 A 
ATOM     18  C   UNL     1      -0.900  11.068  22.836  0.00  0.00    +0.000 A 
ATOM     19  C   UNL     1      -0.590  11.482  21.538  0.00  0.00    +0.000 A 
ATOM     20  C   UNL     1       0.140  10.606  20.714  0.00  0.00    +0.000 A 
ENDBRANCH   1  14
BRANCH  10  21
ATOM     21  C   UNL     1       5.277   5.111  18.356  0.00  0.00    +0.000 C 
BRANCH  21  22
ATOM     22  C   UNL     1       6.479   5.603  19.173  0.00  0.00    +0.000 C 
BRANCH  22  23
ATOM     23  C   UNL     1       7.728   5.887  18.335  0.00  0.00    +0.000 C 
BRANCH  23  24
ATOM     24  C   UNL     1       7.810   7.364  18.012  0.00  0.00    +0.000 C 
ATOM     25  O   UNL     1       7.278   7.798  16.995  0.00  0.00    +0.000 OA
ATOM     26  N   UNL     1       8.562   8.094  18.908  0.00  0.00    +0.000 N 
ATOM     27  H   UNL     1       9.086   7.592  19.616  0.00  0.00    +0.000 HD
BRANCH  26  28
ATOM     28  C   UNL     1       8.837   9.474  18.786  0.00  0.00    +0.000 A 
ATOM     29  C   UNL     1       9.647  10.167  19.693  0.00  0.00    +0.000 A 
ATOM     30  C   UNL     1       9.813  11.550  19.590  0.00  0.00    +0.000 A 
ATOM     31  C   UNL     1       9.181  12.244  18.570  0.00  0.00    +0.000 A 
ATOM     32 CL   UNL     1       9.333  13.954  18.481  0.00  0.00    +0.000 Cl
ATOM     33  C   UNL     1       8.413  11.562  17.628  0.00  0.00    +0.000 A 
ATOM     34  C   UNL     1       8.252  10.175  17.729  0.00  0.00    +0.000 A 
ENDBRANCH  26  28
ENDBRANCH  23  24
ENDBRANCH  22  23
ENDBRANCH  21  22
ENDBRANCH  10  21
TORSDOF 6
ENDMDL
MODEL 3
REMARK VINA RESULT:      -8.4      5.694     11.112
REMARK  Name = 
REMARK  7 active torsions:
REMARK  status: ('A' for Active; 'I' for Inactive)
REMARK    1  A    between atoms: C_1  and  N_2
REMARK    2  A    between atoms: C_4  and  C_5
REMARK    3  A    between atoms: N_14  and  C_15
REMARK    4  A    between atoms: C_15  and  C_16
REMARK    5  A    between atoms: C_16  and  C_17
REMARK    6  A    between atoms: C_17  and  C_18
REMARK    7  A    between atoms: N_20  and  C_21
REMARK                            x       y       z     vdW  Elec       q    Type
REMARK                         _______ _______ _______ _____ _____    ______ ____
ROOT
ATOM      1  C   UNL     1       1.804   7.495  20.073  0.00  0.00    +0.000 A 
ATOM      2  C   UNL     1       2.826   7.008  19.211  0.00  0.00    +0.000 A 
ATOM      3  C   UNL     1       2.978   5.685  19.559  0.00  0.00    +0.000 A 
ATOM      4  N   UNL     1       2.095   5.474  20.570  0.00  0.00    +0.000 N 
ATOM      5  N   UNL     1       1.363   6.537  20.897  0.00  0.00    +0.000 NA
ATOM      6  C   UNL     1       1.894   4.219  21.235  0.00  0.00    +0.000 C 
ATOM      7  C   UNL     1       2.824   3.107  20.794  0.00  0.00    +0.000 C 
ATOM      8  C   UNL     1       3.788   3.401  19.673  0.00  0.00    +0.000 C 
ATOM      9  O   UNL     1       4.565   2.549  19.265  0.00  0.00    +0.000 OA
ATOM     10  N   UNL     1       3.822   4.708  19.054  0.00  0.00    +0.000 N 
ENDROOT
BRANCH   1  14
ATOM     11  C   UNL     1       0.493  12.084  18.592  0.00  0.00    +0.000 C 
ATOM     12  N   UNL     1       0.674  10.908  19.417  0.00  0.00    +0.000 N 
ATOM     13  C   UNL     1       1.337   9.773  19.027  0.00  0.00    +0.000 A 
ATOM     14  C   UNL     1       1.263   8.860  20.059  0.00  0.00    +0.000 A 
ATOM     15  C   UNL     1       0.538   9.479  21.128  0.00  0.00    +0.000 A 
ATOM     16  C   UNL     1       0.136   9.082  22.426  0.00  0.00    +0.000 A 
ATOM     17  C   UNL     1      -0.588   9.958  23.240  0.00  0.00    +0.000 A 
ATOM     18  C   UNL     1      -0.920  11.228  22.786  0.00  0.00    +0.000 A 
ATOM     19  C   UNL     1      -0.542  11.654  21.510  0.00  0.00    +0.000 A 
ATOM     20  C   UNL     1       0.185  10.764  20.698  0.00  0.00    +0.000 A 
ENDBRANCH   1  14
BRANCH  10  21
ATOM     21  C   UNL     1       4.871   4.983  18.042  0.00  0.00    +0.000 C 
BRANCH  21  22
ATOM     22  C   UNL     1       5.962   5.927  18.563  0.00  0.00    +0.000 C 
BRANCH  22  23
ATOM     23  C   UNL     1       6.907   6.449  17.476  0.00  0.00    +0.000 C 
BRANCH  23  24
ATOM     24  C   UNL     1       7.095   5.395  16.406  0.00  0.00    +0.000 C 
ATOM     25  O   UNL     1       7.890   4.476  16.585  0.00  0.00    +0.000 OA
ATOM     26  N   UNL     1       6.362   5.620  15.260  0.00  0.00    +0.000 N 
ATOM     27  H   UNL     1       5.868   6.501  15.172  0.00  0.00    +0.000 HD
BRANCH  26  28
ATOM     28  C   UNL     1       6.418   4.814  14.101  0.00  0.00    +0.000 A 
ATOM     29  C   UNL     1       5.471   3.822  13.823  0.00  0.00    +0.000 A 
ATOM     30  C   UNL     1       5.619   2.983  12.717  0.00  0.00    +0.000 A 
ATOM     31  C   UNL     1       6.708   3.143  11.874  0.00  0.00    +0.000 A 
ATOM     32 CL   UNL     1       6.925   2.070  10.549  0.00  0.00    +0.000 Cl
ATOM     33  C   UNL     1       7.633   4.160  12.107  0.00  0.00    +0.000 A 
ATOM     34  C   UNL     1       7.480   5.003  13.214  0.00  0.00    +0.000 A 
ENDBRANCH  26  28
ENDBRANCH  23  24
ENDBRANCH  22  23
ENDBRANCH  21  22
ENDBRANCH  10  21
TORSDOF 6
ENDMDL
MODEL 4
REMARK VINA RESULT:      -8.3      5.286     10.179
REMARK  Name = 
REMARK  7 active torsions:
REMARK  status: ('A' for Active; 'I' for Inactive)
REMARK    1  A    between atoms: C_1  and  N_2
REMARK    2  A    between atoms: C_4  and  C_5
REMARK    3  A    between atoms: N_14  and  C_15
REMARK    4  A    between atoms: C_15  and  C_16
REMARK    5  A    between atoms: C_16  and  C_17
REMARK    6  A    between atoms: C_17  and  C_18
REMARK    7  A    between atoms: N_20  and  C_21
REMARK                            x       y       z     vdW  Elec       q    Type
REMARK                         _______ _______ _______ _____ _____    ______ ____
ROOT
ATOM      1  C   UNL     1       1.641   7.964  19.909  0.00  0.00    +0.000 A 
ATOM      2  C   UNL     1       2.575   7.537  18.924  0.00  0.00    +0.000 A 
ATOM      3  C   UNL     1       2.822   6.217  19.224  0.00  0.00    +0.000 A 
ATOM      4  N   UNL     1       2.072   5.950  20.325  0.00  0.00    +0.000 N 
ATOM      5  N   UNL     1       1.339   6.974  20.757  0.00  0.00    +0.000 NA
ATOM      6  C   UNL     1       2.003   4.676  20.982  0.00  0.00    +0.000 C 
ATOM      7  C   UNL     1       2.921   3.614  20.412  0.00  0.00    +0.000 C 
ATOM      8  C   UNL     1       3.735   3.969  19.193  0.00  0.00    +0.000 C 
ATOM      9  O   UNL     1       4.494   3.159  18.681  0.00  0.00    +0.000 OA
ATOM     10  N   UNL     1       3.642   5.285  18.603  0.00  0.00    +0.000 N 
ENDROOT
BRANCH   1  14
ATOM     11  C   UNL     1       0.126  12.579  18.735  0.00  0.00    +0.000 C 
ATOM     12  N   UNL     1       0.365  11.362  19.482  0.00  0.00    +0.000 N 
ATOM     13  C   UNL     1       1.068  10.282  19.014  0.00  0.00    +0.000 A 
ATOM     14  C   UNL     1       1.045   9.304  19.987  0.00  0.00    +0.000 A 
ATOM     15  C   UNL     1       0.311   9.825  21.102  0.00  0.00    +0.000 A 
ATOM     16  C   UNL     1      -0.056   9.331  22.376  0.00  0.00    +0.000 A 
ATOM     17  C   UNL     1      -0.804  10.124  23.252  0.00  0.00    +0.000 A 
ATOM     18  C   UNL     1      -1.193  11.405  22.883  0.00  0.00    +0.000 A 
ATOM     19  C   UNL     1      -0.850  11.925  21.632  0.00  0.00    +0.000 A 
ATOM     20  C   UNL     1      -0.099  11.119  20.757  0.00  0.00    +0.000 A 
ENDBRANCH   1  14
BRANCH  10  21
ATOM     21  C   UNL     1       4.554   5.624  17.483  0.00  0.00    +0.000 C 
BRANCH  21  22
ATOM     22  C   UNL     1       5.992   5.884  17.949  0.00  0.00    +0.000 C 
BRANCH  22  23
ATOM     23  C   UNL     1       6.786   6.817  17.029  0.00  0.00    +0.000 C 
BRANCH  23  24
ATOM     24  C   UNL     1       7.722   7.677  17.850  0.00  0.00    +0.000 C 
ATOM     25  O   UNL     1       8.359   7.179  18.775  0.00  0.00    +0.000 OA
ATOM     26  N   UNL     1       7.720   9.010  17.494  0.00  0.00    +0.000 N 
ATOM     27  H   UNL     1       7.029   9.325  16.822  0.00  0.00    +0.000 HD
BRANCH  26  28
ATOM     28  C   UNL     1       8.460  10.017  18.151  0.00  0.00    +0.000 A 
ATOM     29  C   UNL     1       9.160   9.786  19.341  0.00  0.00    +0.000 A 
ATOM     30  C   UNL     1       9.796  10.834  20.010  0.00  0.00    +0.000 A 
ATOM     31  C   UNL     1       9.749  12.115  19.482  0.00  0.00    +0.000 A 
ATOM     32 CL   UNL     1      10.478  13.416  20.336  0.00  0.00    +0.000 Cl
ATOM     33  C   UNL     1       9.101  12.353  18.271  0.00  0.00    +0.000 A 
ATOM     34  C   UNL     1       8.467  11.300  17.600  0.00  0.00    +0.000 A 
ENDBRANCH  26  28
ENDBRANCH  23  24
ENDBRANCH  22  23
ENDBRANCH  21  22
ENDBRANCH  10  21
TORSDOF 6
ENDMDL
MODEL 5
REMARK VINA RESULT:      -8.1      5.566     11.094
REMARK  Name = 
REMARK  7 active torsions:
REMARK  status: ('A' for Active; 'I' for Inactive)
REMARK    1  A    between atoms: C_1  and  N_2
REMARK    2  A    between atoms: C_4  and  C_5
REMARK    3  A    between atoms: N_14  and  C_15
REMARK    4  A    between atoms: C_15  and  C_16
REMARK    5  A    between atoms: C_16  and  C_17
REMARK    6  A    between atoms: C_17  and  C_18
REMARK    7  A    between atoms: N_20  and  C_21
REMARK                            x       y       z     vdW  Elec       q    Type
REMARK                         _______ _______ _______ _____ _____    ______ ____
ROOT
ATOM      1  C   UNL     1       1.654   7.473  20.153  0.00  0.00    +0.000 A 
ATOM      2  C   UNL     1       2.796   7.076  19.403  0.00  0.00    +0.000 A 
ATOM      3  C   UNL     1       2.987   5.753  19.728  0.00  0.00    +0.000 A 
ATOM      4  N   UNL     1       2.008   5.456  20.622  0.00  0.00    +0.000 N 
ATOM      5  N   UNL     1       1.179   6.462  20.892  0.00  0.00    +0.000 NA
ATOM      6  C   UNL     1       1.808   4.168  21.223  0.00  0.00    +0.000 C 
ATOM      7  C   UNL     1       2.848   3.127  20.862  0.00  0.00    +0.000 C 
ATOM      8  C   UNL     1       3.916   3.516  19.870  0.00  0.00    +0.000 C 
ATOM      9  O   UNL     1       4.785   2.724  19.532  0.00  0.00    +0.000 OA
ATOM     10  N   UNL     1       3.941   4.843  19.297  0.00  0.00    +0.000 N 
ENDROOT
BRANCH   1  14
ATOM     11  C   UNL     1      -0.066  11.882  18.549  0.00  0.00    +0.000 C 
ATOM     12  N   UNL     1       0.266  10.773  19.418  0.00  0.00    +0.000 N 
ATOM     13  C   UNL     1       0.950   9.651  19.029  0.00  0.00    +0.000 A 
ATOM     14  C   UNL     1       1.036   8.805  20.115  0.00  0.00    +0.000 A 
ATOM     15  C   UNL     1       0.391   9.455  21.217  0.00  0.00    +0.000 A 
ATOM     16  C   UNL     1       0.149   9.123  22.571  0.00  0.00    +0.000 A 
ATOM     17  C   UNL     1      -0.537  10.012  23.404  0.00  0.00    +0.000 A 
ATOM     18  C   UNL     1      -0.987  11.231  22.914  0.00  0.00    +0.000 A 
ATOM     19  C   UNL     1      -0.768  11.591  21.581  0.00  0.00    +0.000 A 
ATOM     20  C   UNL     1      -0.078  10.689  20.750  0.00  0.00    +0.000 A 
ENDBRANCH   1  14
BRANCH  10  21
ATOM     21  C   UNL     1       5.082   5.214  18.423  0.00  0.00    +0.000 C 
BRANCH  21  22
ATOM     22  C   UNL     1       6.306   5.686  19.218  0.00  0.00    +0.000 C 
BRANCH  22  23
ATOM     23  C   UNL     1       7.512   6.051  18.347  0.00  0.00    +0.000 C 
BRANCH  23  24
ATOM     24  C   UNL     1       7.587   5.123  17.153  0.00  0.00    +0.000 C 
ATOM     25  O   UNL     1       8.213   4.069  17.236  0.00  0.00    +0.000 OA
ATOM     26  N   UNL     1       6.964   5.608  16.023  0.00  0.00    +0.000 N 
ATOM     27  H   UNL     1       6.624   6.563  16.036  0.00  0.00    +0.000 HD
BRANCH  26  28
ATOM     28  C   UNL     1       6.953   4.955  14.770  0.00  0.00    +0.000 A 
ATOM     29  C   UNL     1       7.813   5.311  13.725  0.00  0.00    +0.000 A 
ATOM     30  C   UNL     1       7.702   4.706  12.472  0.00  0.00    +0.000 A 
ATOM     31  C   UNL     1       6.740   3.730  12.263  0.00  0.00    +0.000 A 
ATOM     32 CL   UNL     1       6.560   3.030  10.703  0.00  0.00    +0.000 Cl
ATOM     33  C   UNL     1       5.909   3.327  13.307  0.00  0.00    +0.000 A 
ATOM     34  C   UNL     1       6.026   3.931  14.565  0.00  0.00    +0.000 A 
ENDBRANCH  26  28
ENDBRANCH  23  24
ENDBRANCH  22  23
ENDBRANCH  21  22
ENDBRANCH  10  21
TORSDOF 6
ENDMDL
MODEL 6
REMARK VINA RESULT:      -8.0      0.963      1.867
REMARK  Name = 
REMARK  7 active torsions:
REMARK  status: ('A' for Active; 'I' for Inactive)
REMARK    1  A    between atoms: C_1  and  N_2
REMARK    2  A    between atoms: C_4  and  C_5
REMARK    3  A    between atoms: N_14  and  C_15
REMARK    4  A    between atoms: C_15  and  C_16
REMARK    5  A    between atoms: C_16  and  C_17
REMARK    6  A    between atoms: C_17  and  C_18
REMARK    7  A    between atoms: N_20  and  C_21
REMARK                            x       y       z     vdW  Elec       q    Type
REMARK                         _______ _______ _______ _____ _____    ______ ____
ROOT
ATOM      1  C   UNL     1       2.095   7.263  19.766  0.00  0.00    +0.000 A 
ATOM      2  C   UNL     1       1.548   8.302  18.963  0.00  0.00    +0.000 A 
ATOM      3  C   UNL     1       0.983   9.179  19.861  0.00  0.00    +0.000 A 
ATOM      4  N   UNL     1       1.200   8.632  21.085  0.00  0.00    +0.000 N 
ATOM      5  N   UNL     1       1.877   7.486  21.068  0.00  0.00    +0.000 NA
ATOM      6  C   UNL     1       0.794   9.219  22.330  0.00  0.00    +0.000 C 
ATOM      7  C   UNL     1      -0.005  10.500  22.200  0.00  0.00    +0.000 C 
ATOM      8  C   UNL     1      -0.220  11.057  20.815  0.00  0.00    +0.000 C 
ATOM      9  O   UNL     1      -0.854  12.088  20.639  0.00  0.00    +0.000 OA
ATOM     10  N   UNL     1       0.315  10.377  19.657  0.00  0.00    +0.000 N 
ENDROOT
BRANCH   1  14
ATOM     11  C   UNL     1       3.785   2.606  19.111  0.00  0.00    +0.000 C 
ATOM     12  N   UNL     1       3.603   4.034  18.956  0.00  0.00    +0.000 N 
ATOM     13  C   UNL     1       2.782   4.807  19.735  0.00  0.00    +0.000 A 
ATOM     14  C   UNL     1       2.837   6.101  19.260  0.00  0.00    +0.000 A 
ATOM     15  C   UNL     1       3.748   6.113  18.154  0.00  0.00    +0.000 A 
ATOM     16  C   UNL     1       4.228   7.104  17.264  0.00  0.00    +0.000 A 
ATOM     17  C   UNL     1       5.140   6.767  16.259  0.00  0.00    +0.000 A 
ATOM     18  C   UNL     1       5.588   5.460  16.123  0.00  0.00    +0.000 A 
ATOM     19  C   UNL     1       5.134   4.455  16.983  0.00  0.00    +0.000 A 
ATOM     20  C   UNL     1       4.215   4.803  17.990  0.00  0.00    +0.000 A 
ENDBRANCH   1  14
BRANCH  10  21
ATOM     21  C   UNL     1      -0.029  10.898  18.311  0.00  0.00    +0.000 C 
BRANCH  21  22
ATOM     22  C   UNL     1      -1.322  10.288  17.754  0.00  0.00    +0.000 C 
BRANCH  22  23
ATOM     23  C   UNL     1      -2.327  11.322  17.237  0.00  0.00    +0.000 C 
BRANCH  23  24
ATOM     24  C   UNL     1      -3.549  11.345  18.129  0.00  0.00    +0.000 C 
ATOM     25  O   UNL     1      -4.510  10.625  17.870  0.00  0.00    +0.000 OA
ATOM     26  N   UNL     1      -3.479  12.261  19.158  0.00  0.00    +0.000 N 
ATOM     27  H   UNL     1      -2.701  12.911  19.167  0.00  0.00    +0.000 HD
BRANCH  26  28
ATOM     28  C   UNL     1      -4.518  12.512  20.081  0.00  0.00    +0.000 A 
ATOM     29  C   UNL     1      -4.277  12.936  21.393  0.00  0.00    +0.000 A 
ATOM     30  C   UNL     1      -5.329  13.078  22.301  0.00  0.00    +0.000 A 
ATOM     31  C   UNL     1      -6.628  12.811  21.896  0.00  0.00    +0.000 A 
ATOM     32 CL   UNL     1      -7.914  12.923  23.030  0.00  0.00    +0.000 Cl
ATOM     33  C   UNL     1      -6.890  12.437  20.579  0.00  0.00    +0.000 A 
ATOM     34  C   UNL     1      -5.835  12.301  19.668  0.00  0.00    +0.000 A 
ENDBRANCH  26  28
ENDBRANCH  23  24
ENDBRANCH  22  23
ENDBRANCH  21  22
ENDBRANCH  10  21
TORSDOF 6
ENDMDL
MODEL 7
REMARK VINA RESULT:      -8.0      5.253     10.114
REMARK  Name = 
REMARK  7 active torsions:
REMARK  status: ('A' for Active; 'I' for Inactive)
REMARK    1  A    between atoms: C_1  and  N_2
REMARK    2  A    between atoms: C_4  and  C_5
REMARK    3  A    between atoms: N_14  and  C_15
REMARK    4  A    between atoms: C_15  and  C_16
REMARK    5  A    between atoms: C_16  and  C_17
REMARK    6  A    between atoms: C_17  and  C_18
REMARK    7  A    between atoms: N_20  and  C_21
REMARK                            x       y       z     vdW  Elec       q    Type
REMARK                         _______ _______ _______ _____ _____    ______ ____
ROOT
ATOM      1  C   UNL     1       1.492   8.259  19.806  0.00  0.00    +0.000 A 
ATOM      2  C   UNL     1       2.337   7.876  18.727  0.00  0.00    +0.000 A 
ATOM      3  C   UNL     1       2.702   6.580  19.010  0.00  0.00    +0.000 A 
ATOM      4  N   UNL     1       2.099   6.284  20.191  0.00  0.00    +0.000 N 
ATOM      5  N   UNL     1       1.353   7.266  20.693  0.00  0.00    +0.000 NA
ATOM      6  C   UNL     1       2.188   5.020  20.865  0.00  0.00    +0.000 C 
ATOM      7  C   UNL     1       3.105   4.010  20.206  0.00  0.00    +0.000 C 
ATOM      8  C   UNL     1       3.753   4.396  18.900  0.00  0.00    +0.000 C 
ATOM      9  O   UNL     1       4.503   3.627  18.313  0.00  0.00    +0.000 OA
ATOM     10  N   UNL     1       3.508   5.693  18.311  0.00  0.00    +0.000 N 
ENDROOT
BRANCH   1  14
ATOM     11  C   UNL     1       0.161  12.789  21.442  0.00  0.00    +0.000 C 
ATOM     12  N   UNL     1       0.214  11.576  20.653  0.00  0.00    +0.000 N 
ATOM     13  C   UNL     1       1.012  10.496  20.930  0.00  0.00    +0.000 A 
ATOM     14  C   UNL     1       0.821   9.558  19.937  0.00  0.00    +0.000 A 
ATOM     15  C   UNL     1      -0.152  10.088  19.028  0.00  0.00    +0.000 A 
ATOM     16  C   UNL     1      -0.764   9.627  17.838  0.00  0.00    +0.000 A 
ATOM     17  C   UNL     1      -1.703  10.423  17.174  0.00  0.00    +0.000 A 
ATOM     18  C   UNL     1      -2.047  11.672  17.674  0.00  0.00    +0.000 A 
ATOM     19  C   UNL     1      -1.461  12.160  18.845  0.00  0.00    +0.000 A 
ATOM     20  C   UNL     1      -0.517  11.353  19.505  0.00  0.00    +0.000 A 
ENDBRANCH   1  14
BRANCH  10  21
ATOM     21  C   UNL     1       4.265   6.070  17.092  0.00  0.00    +0.000 C 
BRANCH  21  22
ATOM     22  C   UNL     1       5.316   7.155  17.360  0.00  0.00    +0.000 C 
BRANCH  22  23
ATOM     23  C   UNL     1       6.758   6.700  17.116  0.00  0.00    +0.000 C 
BRANCH  23  24
ATOM     24  C   UNL     1       7.715   7.579  17.892  0.00  0.00    +0.000 C 
ATOM     25  O   UNL     1       8.382   7.100  18.805  0.00  0.00    +0.000 OA
ATOM     26  N   UNL     1       7.694   8.905  17.514  0.00  0.00    +0.000 N 
ATOM     27  H   UNL     1       6.981   9.205  16.858  0.00  0.00    +0.000 HD
BRANCH  26  28
ATOM     28  C   UNL     1       8.449   9.927  18.130  0.00  0.00    +0.000 A 
ATOM     29  C   UNL     1       9.187   9.720  19.301  0.00  0.00    +0.000 A 
ATOM     30  C   UNL     1       9.839  10.783  19.931  0.00  0.00    +0.000 A 
ATOM     31  C   UNL     1       9.768  12.054  19.384  0.00  0.00    +0.000 A 
ATOM     32 CL   UNL     1      10.517  13.373  20.193  0.00  0.00    +0.000 Cl
ATOM     33  C   UNL     1       9.081  12.268  18.190  0.00  0.00    +0.000 A 
ATOM     34  C   UNL     1       8.432  11.200  17.557  0.00  0.00    +0.000 A 
ENDBRANCH  26  28
ENDBRANCH  23  24
ENDBRANCH  22  23
ENDBRANCH  21  22
ENDBRANCH  10  21
TORSDOF 6
ENDMDL
MODEL 8
REMARK VINA RESULT:      -7.9      5.287      7.095
REMARK  Name = 
REMARK  7 active torsions:
REMARK  status: ('A' for Active; 'I' for Inactive)
REMARK    1  A    between atoms: C_1  and  N_2
REMARK    2  A    between atoms: C_4  and  C_5
REMARK    3  A    between atoms: N_14  and  C_15
REMARK    4  A    between atoms: C_15  and  C_16
REMARK    5  A    between atoms: C_16  and  C_17
REMARK    6  A    between atoms: C_17  and  C_18
REMARK    7  A    between atoms: N_20  and  C_21
REMARK                            x       y       z     vdW  Elec       q    Type
REMARK                         _______ _______ _______ _____ _____    ______ ____
ROOT
ATOM      1  C   UNL     1       2.238   7.619  19.054  0.00  0.00    +0.000 A 
ATOM      2  C   UNL     1       1.941   8.930  18.586  0.00  0.00    +0.000 A 
ATOM      3  C   UNL     1       1.310   9.546  19.642  0.00  0.00    +0.000 A 
ATOM      4  N   UNL     1       1.254   8.609  20.625  0.00  0.00    +0.000 N 
ATOM      5  N   UNL     1       1.813   7.443  20.312  0.00  0.00    +0.000 NA
ATOM      6  C   UNL     1       0.691   8.820  21.928  0.00  0.00    +0.000 C 
ATOM      7  C   UNL     1       0.050  10.177  22.134  0.00  0.00    +0.000 C 
ATOM      8  C   UNL     1       0.137  11.174  21.006  0.00  0.00    +0.000 C 
ATOM      9  O   UNL     1      -0.357  12.289  21.105  0.00  0.00    +0.000 OA
ATOM     10  N   UNL     1       0.803  10.831  19.769  0.00  0.00    +0.000 N 
ENDROOT
BRANCH   1  14
ATOM     11  C   UNL     1       5.579   5.280  16.168  0.00  0.00    +0.000 C 
ATOM     12  N   UNL     1       4.423   5.528  17.003  0.00  0.00    +0.000 N 
ATOM     13  C   UNL     1       4.072   6.753  17.510  0.00  0.00    +0.000 A 
ATOM     14  C   UNL     1       2.946   6.586  18.289  0.00  0.00    +0.000 A 
ATOM     15  C   UNL     1       2.588   5.199  18.234  0.00  0.00    +0.000 A 
ATOM     16  C   UNL     1       1.559   4.408  18.799  0.00  0.00    +0.000 A 
ATOM     17  C   UNL     1       1.500   3.036  18.538  0.00  0.00    +0.000 A 
ATOM     18  C   UNL     1       2.447   2.433  17.720  0.00  0.00    +0.000 A 
ATOM     19  C   UNL     1       3.479   3.182  17.147  0.00  0.00    +0.000 A 
ATOM     20  C   UNL     1       3.531   4.562  17.417  0.00  0.00    +0.000 A 
ENDBRANCH   1  14
BRANCH  10  21
ATOM     21  C   UNL     1       0.753  11.800  18.647  0.00  0.00    +0.000 C 
BRANCH  21  22
ATOM     22  C   UNL     1       2.058  12.591  18.490  0.00  0.00    +0.000 C 
BRANCH  22  23
ATOM     23  C   UNL     1       1.932  14.077  18.840  0.00  0.00    +0.000 C 
BRANCH  23  24
ATOM     24  C   UNL     1       3.115  14.841  18.286  0.00  0.00    +0.000 C 
ATOM     25  O   UNL     1       3.019  15.419  17.206  0.00  0.00    +0.000 OA
ATOM     26  N   UNL     1       4.253  14.757  19.060  0.00  0.00    +0.000 N 
ATOM     27  H   UNL     1       4.251  14.114  19.845  0.00  0.00    +0.000 HD
BRANCH  26  28
ATOM     28  C   UNL     1       5.498  15.330  18.721  0.00  0.00    +0.000 A 
ATOM     29  C   UNL     1       6.453  14.660  17.948  0.00  0.00    +0.000 A 
ATOM     30  C   UNL     1       7.710  15.224  17.719  0.00  0.00    +0.000 A 
ATOM     31  C   UNL     1       8.011  16.469  18.250  0.00  0.00    +0.000 A 
ATOM     32 CL   UNL     1       9.579  17.136  18.023  0.00  0.00    +0.000 Cl
ATOM     33  C   UNL     1       7.054  17.172  18.979  0.00  0.00    +0.000 A 
ATOM     34  C   UNL     1       5.792  16.607  19.203  0.00  0.00    +0.000 A 
ENDBRANCH  26  28
ENDBRANCH  23  24
ENDBRANCH  22  23
ENDBRANCH  21  22
ENDBRANCH  10  21
TORSDOF 6
ENDMDL
MODEL 9
REMARK VINA RESULT:      -7.9      1.075      1.424
REMARK  Name = 
REMARK  7 active torsions:
REMARK  status: ('A' for Active; 'I' for Inactive)
REMARK    1  A    between atoms: C_1  and  N_2
REMARK    2  A    between atoms: C_4  and  C_5
REMARK    3  A    between atoms: N_14  and  C_15
REMARK    4  A    between atoms: C_15  and  C_16
REMARK    5  A    between atoms: C_16  and  C_17
REMARK    6  A    between atoms: C_17  and  C_18
REMARK    7  A    between atoms: N_20  and  C_21
REMARK                            x       y       z     vdW  Elec       q    Type
REMARK                         _______ _______ _______ _____ _____    ______ ____
ROOT
ATOM      1  C   UNL     1       1.955   7.371  19.604  0.00  0.00    +0.000 A 
ATOM      2  C   UNL     1       1.777   8.712  19.163  0.00  0.00    +0.000 A 
ATOM      3  C   UNL     1       1.174   9.353  20.221  0.00  0.00    +0.000 A 
ATOM      4  N   UNL     1       1.019   8.401  21.178  0.00  0.00    +0.000 N 
ATOM      5  N   UNL     1       1.489   7.200  20.847  0.00  0.00    +0.000 NA
ATOM      6  C   UNL     1       0.444   8.626  22.474  0.00  0.00    +0.000 C 
ATOM      7  C   UNL     1      -0.089  10.026  22.700  0.00  0.00    +0.000 C 
ATOM      8  C   UNL     1       0.105  11.039  21.600  0.00  0.00    +0.000 C 
ATOM      9  O   UNL     1      -0.298  12.188  21.718  0.00  0.00    +0.000 OA
ATOM     10  N   UNL     1       0.771  10.672  20.370  0.00  0.00    +0.000 N 
ENDROOT
BRANCH   1  14
ATOM     11  C   UNL     1       5.053   4.886  16.571  0.00  0.00    +0.000 C 
ATOM     12  N   UNL     1       3.963   5.179  17.478  0.00  0.00    +0.000 N 
ATOM     13  C   UNL     1       3.663   6.426  17.964  0.00  0.00    +0.000 A 
ATOM     14  C   UNL     1       2.595   6.301  18.828  0.00  0.00    +0.000 A 
ATOM     15  C   UNL     1       2.220   4.919  18.850  0.00  0.00    +0.000 A 
ATOM     16  C   UNL     1       1.227   4.162  19.517  0.00  0.00    +0.000 A 
ATOM     17  C   UNL     1       1.134   2.782  19.311  0.00  0.00    +0.000 A 
ATOM     18  C   UNL     1       2.013   2.138  18.450  0.00  0.00    +0.000 A 
ATOM     19  C   UNL     1       3.008   2.853  17.777  0.00  0.00    +0.000 A 
ATOM     20  C   UNL     1       3.094   4.240  17.991  0.00  0.00    +0.000 A 
ENDBRANCH   1  14
BRANCH  10  21
ATOM     21  C   UNL     1       0.826  11.668  19.272  0.00  0.00    +0.000 C 
BRANCH  21  22
ATOM     22  C   UNL     1      -0.306  11.488  18.252  0.00  0.00    +0.000 C 
BRANCH  22  23
ATOM     23  C   UNL     1      -1.336  12.621  18.257  0.00  0.00    +0.000 C 
BRANCH  23  24
ATOM     24  C   UNL     1      -2.482  12.274  19.182  0.00  0.00    +0.000 C 
ATOM     25  O   UNL     1      -3.092  11.218  19.032  0.00  0.00    +0.000 OA
ATOM     26  N   UNL     1      -2.776  13.254  20.107  0.00  0.00    +0.000 N 
ATOM     27  H   UNL     1      -2.306  14.149  20.022  0.00  0.00    +0.000 HD
BRANCH  26  28
ATOM     28  C   UNL     1      -3.841  13.190  21.033  0.00  0.00    +0.000 A 
ATOM     29  C   UNL     1      -5.121  13.677  20.748  0.00  0.00    +0.000 A 
ATOM     30  C   UNL     1      -6.117  13.683  21.727  0.00  0.00    +0.000 A 
ATOM     31  C   UNL     1      -5.841  13.186  22.991  0.00  0.00    +0.000 A 
ATOM     32 CL   UNL     1      -7.046  13.252  24.215  0.00  0.00    +0.000 Cl
ATOM     33  C   UNL     1      -4.587  12.650  23.276  0.00  0.00    +0.000 A 
ATOM     34  C   UNL     1      -3.591  12.640  22.292  0.00  0.00    +0.000 A 
ENDBRANCH  26  28
ENDBRANCH  23  24
ENDBRANCH  22  23
ENDBRANCH  21  22
ENDBRANCH  10  21
TORSDOF 6
ENDMDL
