MODEL 1
REMARK VINA RESULT:      -7.2      0.000      0.000
REMARK  Name = 
REMARK  4 active torsions:
REMARK  status: ('A' for Active; 'I' for Inactive)
REMARK    1  A    between atoms: C_1  and  C_2
REMARK    2  A    between atoms: C_4  and  C_5
REMARK    3  A    between atoms: N_10  and  C_11
REMARK    4  A    between atoms: C_14  and  N_15
REMARK                            x       y       z     vdW  Elec       q    Type
REMARK                         _______ _______ _______ _____ _____    ______ ____
ROOT
ATOM      1  C   UNL     1       0.205  10.118  20.139  0.00  0.00    +0.000 C 
ATOM      2  O   UNL     1       0.214  10.439  21.327  0.00  0.00    +0.000 OA
ATOM      3  N   UNL     1       1.009   9.078  19.660  0.00  0.00    +0.000 N 
ATOM      4  C   UNL     1       1.752   8.267  20.629  0.00  0.00    +0.000 C 
ATOM      5  C   UNL     1       1.944   6.824  20.129  0.00  0.00    +0.000 C 
ATOM      6  N   UNL     1       2.505   6.800  18.767  0.00  0.00    +0.000 N 
ATOM      7  C   UNL     1       1.771   7.611  17.777  0.00  0.00    +0.000 C 
ATOM      8  C   UNL     1       1.578   9.047  18.301  0.00  0.00    +0.000 C 
ENDROOT
BRANCH   1  12
ATOM      9  C   UNL     1      -3.428  11.466  16.839  0.00  0.00    +0.000 C 
ATOM     10  C   UNL     1      -2.288  11.296  17.754  0.00  0.00    +0.000 A 
ATOM     11  C   UNL     1      -1.814  10.269  18.530  0.00  0.00    +0.000 A 
ATOM     12  C   UNL     1      -0.679  10.813  19.192  0.00  0.00    +0.000 A 
ATOM     13  N   UNL     1      -0.455  12.070  18.771  0.00  0.00    +0.000 NA
ATOM     14  O   UNL     1      -1.477  12.375  17.900  0.00  0.00    +0.000 OA
ENDBRANCH   1  12
BRANCH   6  15
ATOM     15  C   UNL     1       3.762   6.302  18.491  0.00  0.00    +0.000 A 
ATOM     16  C   UNL     1       4.439   6.665  17.313  0.00  0.00    +0.000 A 
ATOM     17  C   UNL     1       5.695   6.134  16.987  0.00  0.00    +0.000 A 
ATOM     18  C   UNL     1       6.301   5.226  17.856  0.00  0.00    +0.000 A 
ATOM     19  C   UNL     1       5.662   4.855  19.041  0.00  0.00    +0.000 A 
ATOM     20  C   UNL     1       4.406   5.393  19.343  0.00  0.00    +0.000 A 
BRANCH  18  21
ATOM     21  N   UNL     1       7.610   4.653  17.523  0.00  0.00    +0.000 N 
ATOM     22  O   UNL     1       8.359   4.344  18.460  0.00  0.00    +0.000 OA
ATOM     23  O   UNL     1       7.889   4.512  16.324  0.00  0.00    +0.000 OA
ENDBRANCH  18  21
ENDBRANCH   6  15
TORSDOF 3
ENDMDL
MODEL 2
REMARK VINA RESULT:      -6.9      0.220      1.185
REMARK  Name = 
REMARK  4 active torsions:
REMARK  status: ('A' for Active; 'I' for Inactive)
REMARK    1  A    between atoms: C_1  and  C_2
REMARK    2  A    between atoms: C_4  and  C_5
REMARK    3  A    between atoms: N_10  and  C_11
REMARK    4  A    between atoms: C_14  and  N_15
REMARK                            x       y       z     vdW  Elec       q    Type
REMARK                         _______ _______ _______ _____ _____    ______ ____
ROOT
ATOM      1  C   UNL     1       0.298  10.102  20.145  0.00  0.00    +0.000 C 
ATOM      2  O   UNL     1       0.359  10.419  21.332  0.00  0.00    +0.000 OA
ATOM      3  N   UNL     1       1.059   9.045  19.633  0.00  0.00    +0.000 N 
ATOM      4  C   UNL     1       1.821   8.215  20.571  0.00  0.00    +0.000 C 
ATOM      5  C   UNL     1       1.962   6.771  20.061  0.00  0.00    +0.000 C 
ATOM      6  N   UNL     1       2.469   6.738  18.678  0.00  0.00    +0.000 N 
ATOM      7  C   UNL     1       1.715   7.567  17.719  0.00  0.00    +0.000 C 
ATOM      8  C   UNL     1       1.574   9.006  18.253  0.00  0.00    +0.000 C 
ENDROOT
BRANCH   1  12
ATOM      9  C   UNL     1      -3.357  11.502  16.890  0.00  0.00    +0.000 C 
ATOM     10  C   UNL     1      -2.220  11.323  17.808  0.00  0.00    +0.000 A 
ATOM     11  C   UNL     1      -1.707  10.268  18.520  0.00  0.00    +0.000 A 
ATOM     12  C   UNL     1      -0.607  10.817  19.234  0.00  0.00    +0.000 A 
ATOM     13  N   UNL     1      -0.438  12.110  18.903  0.00  0.00    +0.000 NA
ATOM     14  O   UNL     1      -1.463  12.426  18.040  0.00  0.00    +0.000 OA
ENDBRANCH   1  12
BRANCH   6  15
ATOM     15  C   UNL     1       3.703   6.213  18.353  0.00  0.00    +0.000 A 
ATOM     16  C   UNL     1       4.155   5.017  18.936  0.00  0.00    +0.000 A 
ATOM     17  C   UNL     1       5.424   4.491  18.660  0.00  0.00    +0.000 A 
ATOM     18  C   UNL     1       6.266   5.163  17.773  0.00  0.00    +0.000 A 
ATOM     19  C   UNL     1       5.843   6.346  17.165  0.00  0.00    +0.000 A 
ATOM     20  C   UNL     1       4.574   6.857  17.460  0.00  0.00    +0.000 A 
BRANCH  18  21
ATOM     21  N   UNL     1       7.602   4.631  17.481  0.00  0.00    +0.000 N 
ATOM     22  O   UNL     1       7.879   4.384  16.299  0.00  0.00    +0.000 OA
ATOM     23  O   UNL     1       8.375   4.460  18.435  0.00  0.00    +0.000 OA
ENDBRANCH  18  21
ENDBRANCH   6  15
TORSDOF 3
ENDMDL
MODEL 3
REMARK VINA RESULT:      -6.8      2.057      8.601
REMARK  Name = 
REMARK  4 active torsions:
REMARK  status: ('A' for Active; 'I' for Inactive)
REMARK    1  A    between atoms: C_1  and  C_2
REMARK    2  A    between atoms: C_4  and  C_5
REMARK    3  A    between atoms: N_10  and  C_11
REMARK    4  A    between atoms: C_14  and  N_15
REMARK                            x       y       z     vdW  Elec       q    Type
REMARK                         _______ _______ _______ _____ _____    ______ ____
ROOT
ATOM      1  C   UNL     1       3.422   5.805  19.122  0.00  0.00    +0.000 C 
ATOM      2  O   UNL     1       3.271   5.011  20.049  0.00  0.00    +0.000 OA
ATOM      3  N   UNL     1       2.652   6.970  19.027  0.00  0.00    +0.000 N 
ATOM      4  C   UNL     1       1.764   7.312  20.143  0.00  0.00    +0.000 C 
ATOM      5  C   UNL     1       1.591   8.834  20.280  0.00  0.00    +0.000 C 
ATOM      6  N   UNL     1       1.210   9.448  18.996  0.00  0.00    +0.000 N 
ATOM      7  C   UNL     1       2.092   9.116  17.862  0.00  0.00    +0.000 C 
ATOM      8  C   UNL     1       2.263   7.588  17.748  0.00  0.00    +0.000 C 
ENDROOT
BRANCH   1  12
ATOM      9  C   UNL     1       6.178   4.109  15.192  0.00  0.00    +0.000 C 
ATOM     10  C   UNL     1       5.570   4.740  16.375  0.00  0.00    +0.000 A 
ATOM     11  C   UNL     1       4.388   4.587  17.055  0.00  0.00    +0.000 A 
ATOM     12  C   UNL     1       4.443   5.556  18.094  0.00  0.00    +0.000 A 
ATOM     13  N   UNL     1       5.626   6.196  18.070  0.00  0.00    +0.000 NA
ATOM     14  O   UNL     1       6.310   5.705  16.980  0.00  0.00    +0.000 OA
ENDBRANCH   1  12
BRANCH   6  15
ATOM     15  C   UNL     1      -0.017  10.047  18.795  0.00  0.00    +0.000 A 
ATOM     16  C   UNL     1      -0.518  10.991  19.710  0.00  0.00    +0.000 A 
ATOM     17  C   UNL     1      -1.782  11.575  19.554  0.00  0.00    +0.000 A 
ATOM     18  C   UNL     1      -2.568  11.223  18.457  0.00  0.00    +0.000 A 
ATOM     19  C   UNL     1      -2.096  10.300  17.522  0.00  0.00    +0.000 A 
ATOM     20  C   UNL     1      -0.833   9.724  17.701  0.00  0.00    +0.000 A 
BRANCH  18  21
ATOM     21  N   UNL     1      -3.898  11.818  18.285  0.00  0.00    +0.000 N 
ATOM     22  O   UNL     1      -4.467  12.261  19.293  0.00  0.00    +0.000 OA
ATOM     23  O   UNL     1      -4.375  11.844  17.141  0.00  0.00    +0.000 OA
ENDBRANCH  18  21
ENDBRANCH   6  15
TORSDOF 3
ENDMDL
MODEL 4
REMARK VINA RESULT:      -6.8      3.084      4.124
REMARK  Name = 
REMARK  4 active torsions:
REMARK  status: ('A' for Active; 'I' for Inactive)
REMARK    1  A    between atoms: C_1  and  C_2
REMARK    2  A    between atoms: C_4  and  C_5
REMARK    3  A    between atoms: N_10  and  C_11
REMARK    4  A    between atoms: C_14  and  N_15
REMARK                            x       y       z     vdW  Elec       q    Type
REMARK                         _______ _______ _______ _____ _____    ______ ____
ROOT
ATOM      1  C   UNL     1      -0.444  11.383  19.746  0.00  0.00    +0.000 C 
ATOM      2  O   UNL     1      -0.792  11.921  18.695  0.00  0.00    +0.000 OA
ATOM      3  N   UNL     1       0.299  10.197  19.745  0.00  0.00    +0.000 N 
ATOM      4  C   UNL     1       0.795   9.685  18.464  0.00  0.00    +0.000 C 
ATOM      5  C   UNL     1       2.116   8.916  18.637  0.00  0.00    +0.000 C 
ATOM      6  N   UNL     1       2.007   7.894  19.693  0.00  0.00    +0.000 N 
ATOM      7  C   UNL     1       1.509   8.390  20.989  0.00  0.00    +0.000 C 
ATOM      8  C   UNL     1       0.193   9.168  20.794  0.00  0.00    +0.000 C 
ENDROOT
BRANCH   1  12
ATOM      9  C   UNL     1      -2.747  13.429  23.798  0.00  0.00    +0.000 C 
ATOM     10  C   UNL     1      -1.876  12.885  22.743  0.00  0.00    +0.000 A 
ATOM     11  C   UNL     1      -2.083  12.345  21.499  0.00  0.00    +0.000 A 
ATOM     12  C   UNL     1      -0.785  11.994  21.039  0.00  0.00    +0.000 A 
ATOM     13  N   UNL     1       0.144  12.374  21.934  0.00  0.00    +0.000 NA
ATOM     14  O   UNL     1      -0.544  12.899  23.006  0.00  0.00    +0.000 OA
ENDBRANCH   1  12
BRANCH   6  15
ATOM     15  C   UNL     1       2.084   6.542  19.428  0.00  0.00    +0.000 A 
ATOM     16  C   UNL     1       1.835   5.594  20.435  0.00  0.00    +0.000 A 
ATOM     17  C   UNL     1       1.956   4.217  20.203  0.00  0.00    +0.000 A 
ATOM     18  C   UNL     1       2.325   3.766  18.936  0.00  0.00    +0.000 A 
ATOM     19  C   UNL     1       2.567   4.680  17.908  0.00  0.00    +0.000 A 
ATOM     20  C   UNL     1       2.446   6.051  18.164  0.00  0.00    +0.000 A 
BRANCH  18  21
ATOM     21  N   UNL     1       2.467   2.328  18.680  0.00  0.00    +0.000 N 
ATOM     22  O   UNL     1       3.312   1.970  17.848  0.00  0.00    +0.000 OA
ATOM     23  O   UNL     1       1.733   1.555  19.312  0.00  0.00    +0.000 OA
ENDBRANCH  18  21
ENDBRANCH   6  15
TORSDOF 3
ENDMDL
MODEL 5
REMARK VINA RESULT:      -6.8      3.176      4.096
REMARK  Name = 
REMARK  4 active torsions:
REMARK  status: ('A' for Active; 'I' for Inactive)
REMARK    1  A    between atoms: C_1  and  C_2
REMARK    2  A    between atoms: C_4  and  C_5
REMARK    3  A    between atoms: N_10  and  C_11
REMARK    4  A    between atoms: C_14  and  N_15
REMARK                            x       y       z     vdW  Elec       q    Type
REMARK                         _______ _______ _______ _____ _____    ______ ____
ROOT
ATOM      1  C   UNL     1      -0.602  11.358  19.855  0.00  0.00    +0.000 C 
ATOM      2  O   UNL     1      -0.989  11.879  18.810  0.00  0.00    +0.000 OA
ATOM      3  N   UNL     1       0.172  10.192  19.845  0.00  0.00    +0.000 N 
ATOM      4  C   UNL     1       0.648   9.683  18.555  0.00  0.00    +0.000 C 
ATOM      5  C   UNL     1       1.993   8.949  18.700  0.00  0.00    +0.000 C 
ATOM      6  N   UNL     1       1.936   7.933  19.766  0.00  0.00    +0.000 N 
ATOM      7  C   UNL     1       1.459   8.426  21.071  0.00  0.00    +0.000 C 
ATOM      8  C   UNL     1       0.118   9.169  20.903  0.00  0.00    +0.000 C 
ENDROOT
BRANCH   1  12
ATOM      9  C   UNL     1      -2.845  13.454  23.916  0.00  0.00    +0.000 C 
ATOM     10  C   UNL     1      -1.991  12.887  22.860  0.00  0.00    +0.000 A 
ATOM     11  C   UNL     1      -2.212  12.366  21.610  0.00  0.00    +0.000 A 
ATOM     12  C   UNL     1      -0.926  11.971  21.152  0.00  0.00    +0.000 A 
ATOM     13  N   UNL     1       0.012  12.307  22.055  0.00  0.00    +0.000 NA
ATOM     14  O   UNL     1      -0.660  12.849  23.128  0.00  0.00    +0.000 OA
ENDBRANCH   1  12
BRANCH   6  15
ATOM     15  C   UNL     1       2.042   6.581  19.509  0.00  0.00    +0.000 A 
ATOM     16  C   UNL     1       2.398   6.116  18.230  0.00  0.00    +0.000 A 
ATOM     17  C   UNL     1       2.463   4.748  17.932  0.00  0.00    +0.000 A 
ATOM     18  C   UNL     1       2.178   3.815  18.929  0.00  0.00    +0.000 A 
ATOM     19  C   UNL     1       1.835   4.243  20.213  0.00  0.00    +0.000 A 
ATOM     20  C   UNL     1       1.770   5.614  20.488  0.00  0.00    +0.000 A 
BRANCH  18  21
ATOM     21  N   UNL     1       2.232   2.380  18.630  0.00  0.00    +0.000 N 
ATOM     22  O   UNL     1       1.177   1.734  18.705  0.00  0.00    +0.000 OA
ATOM     23  O   UNL     1       3.330   1.897  18.317  0.00  0.00    +0.000 OA
ENDBRANCH  18  21
ENDBRANCH   6  15
TORSDOF 3
ENDMDL
MODEL 6
REMARK VINA RESULT:      -6.7      2.069      8.643
REMARK  Name = 
REMARK  4 active torsions:
REMARK  status: ('A' for Active; 'I' for Inactive)
REMARK    1  A    between atoms: C_1  and  C_2
REMARK    2  A    between atoms: C_4  and  C_5
REMARK    3  A    between atoms: N_10  and  C_11
REMARK    4  A    between atoms: C_14  and  N_15
REMARK                            x       y       z     vdW  Elec       q    Type
REMARK                         _______ _______ _______ _____ _____    ______ ____
ROOT
ATOM      1  C   UNL     1       3.224   5.267  19.809  0.00  0.00    +0.000 C 
ATOM      2  O   UNL     1       2.945   4.539  20.761  0.00  0.00    +0.000 OA
ATOM      3  N   UNL     1       2.558   6.481  19.601  0.00  0.00    +0.000 N 
ATOM      4  C   UNL     1       1.624   6.949  20.629  0.00  0.00    +0.000 C 
ATOM      5  C   UNL     1       1.562   8.485  20.679  0.00  0.00    +0.000 C 
ATOM      6  N   UNL     1       1.322   9.056  19.342  0.00  0.00    +0.000 N 
ATOM      7  C   UNL     1       2.253   8.596  18.294  0.00  0.00    +0.000 C 
ATOM      8  C   UNL     1       2.309   7.056  18.268  0.00  0.00    +0.000 C 
ENDROOT
BRANCH   1  12
ATOM      9  C   UNL     1       7.601   4.629  17.290  0.00  0.00    +0.000 C 
ATOM     10  C   UNL     1       6.237   4.684  17.841  0.00  0.00    +0.000 A 
ATOM     11  C   UNL     1       5.655   5.287  18.928  0.00  0.00    +0.000 A 
ATOM     12  C   UNL     1       4.292   4.887  18.873  0.00  0.00    +0.000 A 
ATOM     13  N   UNL     1       4.068   4.148  17.772  0.00  0.00    +0.000 NA
ATOM     14  O   UNL     1       5.289   4.000  17.151  0.00  0.00    +0.000 OA
ENDBRANCH   1  12
BRANCH   6  15
ATOM     15  C   UNL     1       0.164   9.734  19.022  0.00  0.00    +0.000 A 
ATOM     16  C   UNL     1      -0.456  10.583  19.955  0.00  0.00    +0.000 A 
ATOM     17  C   UNL     1      -1.659  11.243  19.671  0.00  0.00    +0.000 A 
ATOM     18  C   UNL     1      -2.259  11.066  18.424  0.00  0.00    +0.000 A 
ATOM     19  C   UNL     1      -1.663  10.241  17.468  0.00  0.00    +0.000 A 
ATOM     20  C   UNL     1      -0.464   9.587  17.776  0.00  0.00    +0.000 A 
BRANCH  18  21
ATOM     21  N   UNL     1      -3.524  11.742  18.115  0.00  0.00    +0.000 N 
ATOM     22  O   UNL     1      -3.925  11.710  16.943  0.00  0.00    +0.000 OA
ATOM     23  O   UNL     1      -4.119  12.306  19.045  0.00  0.00    +0.000 OA
ENDBRANCH  18  21
ENDBRANCH   6  15
TORSDOF 3
ENDMDL
MODEL 7
REMARK VINA RESULT:      -6.7      1.402      1.666
REMARK  Name = 
REMARK  4 active torsions:
REMARK  status: ('A' for Active; 'I' for Inactive)
REMARK    1  A    between atoms: C_1  and  C_2
REMARK    2  A    between atoms: C_4  and  C_5
REMARK    3  A    between atoms: N_10  and  C_11
REMARK    4  A    between atoms: C_14  and  N_15
REMARK                            x       y       z     vdW  Elec       q    Type
REMARK                         _______ _______ _______ _____ _____    ______ ____
ROOT
ATOM      1  C   UNL     1       0.603   9.871  20.855  0.00  0.00    +0.000 C 
ATOM      2  O   UNL     1       0.483   9.708  22.069  0.00  0.00    +0.000 OA
ATOM      3  N   UNL     1       1.328   8.969  20.067  0.00  0.00    +0.000 N 
ATOM      4  C   UNL     1       1.816   7.735  20.689  0.00  0.00    +0.000 C 
ATOM      5  C   UNL     1       1.892   6.582  19.674  0.00  0.00    +0.000 C 
ATOM      6  N   UNL     1       2.633   6.982  18.464  0.00  0.00    +0.000 N 
ATOM      7  C   UNL     1       2.156   8.222  17.824  0.00  0.00    +0.000 C 
ATOM      8  C   UNL     1       2.076   9.361  18.860  0.00  0.00    +0.000 C 
ENDROOT
BRANCH   1  12
ATOM      9  C   UNL     1      -0.751  14.454  19.104  0.00  0.00    +0.000 C 
ATOM     10  C   UNL     1      -0.558  13.050  19.499  0.00  0.00    +0.000 A 
ATOM     11  C   UNL     1       0.358  12.377  20.268  0.00  0.00    +0.000 A 
ATOM     12  C   UNL     1      -0.042  11.015  20.195  0.00  0.00    +0.000 A 
ATOM     13  N   UNL     1      -1.175  10.902  19.480  0.00  0.00    +0.000 NA
ATOM     14  O   UNL     1      -1.474  12.167  19.024  0.00  0.00    +0.000 OA
ENDBRANCH   1  12
BRANCH   6  15
ATOM     15  C   UNL     1       3.843   6.417  18.115  0.00  0.00    +0.000 A 
ATOM     16  C   UNL     1       4.509   6.809  16.941  0.00  0.00    +0.000 A 
ATOM     17  C   UNL     1       5.714   6.215  16.539  0.00  0.00    +0.000 A 
ATOM     18  C   UNL     1       6.279   5.212  17.328  0.00  0.00    +0.000 A 
ATOM     19  C   UNL     1       5.651   4.809  18.508  0.00  0.00    +0.000 A 
ATOM     20  C   UNL     1       4.446   5.412  18.886  0.00  0.00    +0.000 A 
BRANCH  18  21
ATOM     21  N   UNL     1       7.534   4.574  16.916  0.00  0.00    +0.000 N 
ATOM     22  O   UNL     1       7.783   4.520  15.704  0.00  0.00    +0.000 OA
ATOM     23  O   UNL     1       8.271   4.126  17.805  0.00  0.00    +0.000 OA
ENDBRANCH  18  21
ENDBRANCH   6  15
TORSDOF 3
ENDMDL
MODEL 8
REMARK VINA RESULT:      -6.7      2.046      8.477
REMARK  Name = 
REMARK  4 active torsions:
REMARK  status: ('A' for Active; 'I' for Inactive)
REMARK    1  A    between atoms: C_1  and  C_2
REMARK    2  A    between atoms: C_4  and  C_5
REMARK    3  A    between atoms: N_10  and  C_11
REMARK    4  A    between atoms: C_14  and  N_15
REMARK                            x       y       z     vdW  Elec       q    Type
REMARK                         _______ _______ _______ _____ _____    ______ ____
ROOT
ATOM      1  C   UNL     1       4.213   4.270  16.951  0.00  0.00    +0.000 C 
ATOM      2  O   UNL     1       3.729   3.149  17.095  0.00  0.00    +0.000 OA
ATOM      3  N   UNL     1       3.663   5.389  17.586  0.00  0.00    +0.000 N 
ATOM      4  C   UNL     1       2.585   5.179  18.558  0.00  0.00    +0.000 C 
ATOM      5  C   UNL     1       2.599   6.254  19.658  0.00  0.00    +0.000 C 
ATOM      6  N   UNL     1       2.636   7.610  19.082  0.00  0.00    +0.000 N 
ATOM      7  C   UNL     1       3.713   7.840  18.101  0.00  0.00    +0.000 C 
ATOM      8  C   UNL     1       3.690   6.747  17.015  0.00  0.00    +0.000 C 
ENDROOT
BRANCH   1  12
ATOM      9  C   UNL     1       7.562   4.887  13.167  0.00  0.00    +0.000 C 
ATOM     10  C   UNL     1       6.787   4.706  14.405  0.00  0.00    +0.000 A 
ATOM     11  C   UNL     1       5.456   4.544  14.700  0.00  0.00    +0.000 A 
ATOM     12  C   UNL     1       5.410   4.458  16.118  0.00  0.00    +0.000 A 
ATOM     13  N   UNL     1       6.655   4.495  16.626  0.00  0.00    +0.000 NA
ATOM     14  O   UNL     1       7.504   4.680  15.557  0.00  0.00    +0.000 OA
ENDBRANCH   1  12
BRANCH   6  15
ATOM     15  C   UNL     1       1.593   8.503  19.220  0.00  0.00    +0.000 A 
ATOM     16  C   UNL     1       1.092   9.205  18.109  0.00  0.00    +0.000 A 
ATOM     17  C   UNL     1       0.068  10.153  18.232  0.00  0.00    +0.000 A 
ATOM     18  C   UNL     1      -0.484  10.406  19.489  0.00  0.00    +0.000 A 
ATOM     19  C   UNL     1      -0.020   9.717  20.611  0.00  0.00    +0.000 A 
ATOM     20  C   UNL     1       1.008   8.778  20.465  0.00  0.00    +0.000 A 
BRANCH  18  21
ATOM     21  N   UNL     1      -1.550  11.404  19.636  0.00  0.00    +0.000 N 
ATOM     22  O   UNL     1      -1.720  11.905  20.755  0.00  0.00    +0.000 OA
ATOM     23  O   UNL     1      -2.216  11.687  18.630  0.00  0.00    +0.000 OA
ENDBRANCH  18  21
ENDBRANCH   6  15
TORSDOF 3
ENDMDL
MODEL 9
REMARK VINA RESULT:      -6.7      2.022      8.559
REMARK  Name = 
REMARK  4 active torsions:
REMARK  status: ('A' for Active; 'I' for Inactive)
REMARK    1  A    between atoms: C_1  and  C_2
REMARK    2  A    between atoms: C_4  and  C_5
REMARK    3  A    between atoms: N_10  and  C_11
REMARK    4  A    between atoms: C_14  and  N_15
REMARK                            x       y       z     vdW  Elec       q    Type
REMARK                         _______ _______ _______ _____ _____    ______ ____
ROOT
ATOM      1  C   UNL     1       3.509   5.687  19.096  0.00  0.00    +0.000 C 
ATOM      2  O   UNL     1       3.405   4.901  20.036  0.00  0.00    +0.000 OA
ATOM      3  N   UNL     1       2.729   6.847  19.027  0.00  0.00    +0.000 N 
ATOM      4  C   UNL     1       1.890   7.194  20.178  0.00  0.00    +0.000 C 
ATOM      5  C   UNL     1       1.714   8.716  20.311  0.00  0.00    +0.000 C 
ATOM      6  N   UNL     1       1.271   9.317  19.040  0.00  0.00    +0.000 N 
ATOM      7  C   UNL     1       2.103   8.979  17.869  0.00  0.00    +0.000 C 
ATOM      8  C   UNL     1       2.278   7.451  17.761  0.00  0.00    +0.000 C 
ENDROOT
BRANCH   1  12
ATOM      9  C   UNL     1       6.094   3.970  15.061  0.00  0.00    +0.000 C 
ATOM     10  C   UNL     1       5.537   4.609  16.264  0.00  0.00    +0.000 A 
ATOM     11  C   UNL     1       4.388   4.455  16.999  0.00  0.00    +0.000 A 
ATOM     12  C   UNL     1       4.484   5.435  18.025  0.00  0.00    +0.000 A 
ATOM     13  N   UNL     1       5.660   6.082  17.941  0.00  0.00    +0.000 NA
ATOM     14  O   UNL     1       6.297   5.585  16.825  0.00  0.00    +0.000 OA
ENDBRANCH   1  12
BRANCH   6  15
ATOM     15  C   UNL     1       0.033   9.907  18.890  0.00  0.00    +0.000 A 
ATOM     16  C   UNL     1      -0.769   9.626  17.770  0.00  0.00    +0.000 A 
ATOM     17  C   UNL     1      -2.008  10.251  17.571  0.00  0.00    +0.000 A 
ATOM     18  C   UNL     1      -2.469  11.172  18.512  0.00  0.00    +0.000 A 
ATOM     19  C   UNL     1      -1.704  11.464  19.643  0.00  0.00    +0.000 A 
ATOM     20  C   UNL     1      -0.467  10.832  19.818  0.00  0.00    +0.000 A 
BRANCH  18  21
ATOM     21  N   UNL     1      -3.759  11.842  18.312  0.00  0.00    +0.000 N 
ATOM     22  O   UNL     1      -4.269  12.414  19.285  0.00  0.00    +0.000 OA
ATOM     23  O   UNL     1      -4.262  11.797  17.180  0.00  0.00    +0.000 OA
ENDBRANCH  18  21
ENDBRANCH   6  15
TORSDOF 3
ENDMDL
