MODEL 1
REMARK VINA RESULT:      -7.9      0.000      0.000
REMARK  Name = 
REMARK  9 active torsions:
REMARK  status: ('A' for Active; 'I' for Inactive)
REMARK    1  A    between atoms: C_1  and  C_2
REMARK    2  A    between atoms: C_2  and  C_3
REMARK    3  A    between atoms: C_3  and  O_4
REMARK    4  A    between atoms: O_4  and  C_5
REMARK    5  A    between atoms: C_5  and  C_7
REMARK    6  A    between atoms: C_10  and  N_11
REMARK    7  A    between atoms: C_15  and  N_16
REMARK    8  A    between atoms: C_17  and  C_19
REMARK    9  A    between atoms: C_24  and  C_25
REMARK                            x       y       z     vdW  Elec       q    Type
REMARK                         _______ _______ _______ _____ _____    ______ ____
ROOT
ATOM      1  C   UNL     1       3.139   4.386  17.607  0.00  0.00    +0.000 A 
ATOM      2  C   UNL     1       3.993   3.611  16.786  0.00  0.00    +0.000 A 
ATOM      3  C   UNL     1       5.338   3.942  16.619  0.00  0.00    +0.000 A 
ATOM      4  C   UNL     1       5.850   5.051  17.286  0.00  0.00    +0.000 A 
ATOM      5  C   UNL     1       5.020   5.829  18.102  0.00  0.00    +0.000 A 
ATOM      6  C   UNL     1       3.649   5.541  18.253  0.00  0.00    +0.000 A 
ENDROOT
BRANCH   6   7
ATOM      7  N   UNL     1       2.819   6.390  19.058  0.00  0.00    +0.000 N 
ATOM      8  C   UNL     1       2.422   7.676  18.708  0.00  0.00    +0.000 C 
ATOM      9  O   UNL     1       2.648   8.206  17.621  0.00  0.00    +0.000 OA
ATOM     10  H   UNL     1       2.379   5.952  19.871  0.00  0.00    +0.000 HD
BRANCH   8  11
ATOM     11  C   UNL     1       1.588   8.476  19.652  0.00  0.00    +0.000 A 
ATOM     12  C   UNL     1       1.626   8.027  20.991  0.00  0.00    +0.000 A 
ATOM     13  C   UNL     1       0.817   8.589  21.973  0.00  0.00    +0.000 A 
ATOM     14  C   UNL     1      -0.042   9.624  21.635  0.00  0.00    +0.000 A 
ATOM     15  C   UNL     1      -0.104  10.075  20.314  0.00  0.00    +0.000 A 
ATOM     16  C   UNL     1       0.688   9.497  19.298  0.00  0.00    +0.000 A 
ATOM     17  C   UNL     1       0.449   9.940  17.883  0.00  0.00    +0.000 C 
ENDBRANCH   8  11
ENDBRANCH   6   7
BRANCH   4  18
ATOM     18  N   UNL     1       7.269   5.403  17.144  0.00  0.00    +0.000 N 
ATOM     19  O   UNL     1       8.100   4.567  17.522  0.00  0.00    +0.000 OA
ATOM     20  O   UNL     1       7.559   6.505  16.659  0.00  0.00    +0.000 OA
ENDBRANCH   4  18
BRANCH   1  21
ATOM     21  C   UNL     1       1.734   3.919  17.826  0.00  0.00    +0.000 C 
ATOM     22  O   UNL     1       0.778   4.345  17.198  0.00  0.00    +0.000 OA
BRANCH  21  23
ATOM     23  O   UNL     1       1.683   3.064  18.883  0.00  0.00    +0.000 OA
BRANCH  23  24
ATOM     24  C   UNL     1       0.839   3.422  19.990  0.00  0.00    +0.000 C 
BRANCH  24  26
ATOM     25  C   UNL     1       2.883   2.734  21.259  0.00  0.00    +0.000 C 
ATOM     26  C   UNL     1       1.652   3.629  21.261  0.00  0.00    +0.000 C 
ENDBRANCH  24  26
ENDBRANCH  23  24
ENDBRANCH  21  23
ENDBRANCH   1  21
TORSDOF 7
ENDMDL
MODEL 2
REMARK VINA RESULT:      -7.9      0.817      1.663
REMARK  Name = 
REMARK  9 active torsions:
REMARK  status: ('A' for Active; 'I' for Inactive)
REMARK    1  A    between atoms: C_1  and  C_2
REMARK    2  A    between atoms: C_2  and  C_3
REMARK    3  A    between atoms: C_3  and  O_4
REMARK    4  A    between atoms: O_4  and  C_5
REMARK    5  A    between atoms: C_5  and  C_7
REMARK    6  A    between atoms: C_10  and  N_11
REMARK    7  A    between atoms: C_15  and  N_16
REMARK    8  A    between atoms: C_17  and  C_19
REMARK    9  A    between atoms: C_24  and  C_25
REMARK                            x       y       z     vdW  Elec       q    Type
REMARK                         _______ _______ _______ _____ _____    ______ ____
ROOT
ATOM      1  C   UNL     1       3.226   4.646  17.429  0.00  0.00    +0.000 A 
ATOM      2  C   UNL     1       4.258   3.892  16.820  0.00  0.00    +0.000 A 
ATOM      3  C   UNL     1       5.549   4.404  16.685  0.00  0.00    +0.000 A 
ATOM      4  C   UNL     1       5.827   5.678  17.172  0.00  0.00    +0.000 A 
ATOM      5  C   UNL     1       4.819   6.437  17.776  0.00  0.00    +0.000 A 
ATOM      6  C   UNL     1       3.497   5.960  17.887  0.00  0.00    +0.000 A 
ENDROOT
BRANCH   6   7
ATOM      7  N   UNL     1       2.480   6.787  18.468  0.00  0.00    +0.000 N 
ATOM      8  C   UNL     1       2.230   8.109  18.113  0.00  0.00    +0.000 C 
ATOM      9  O   UNL     1       2.784   8.700  17.188  0.00  0.00    +0.000 OA
ATOM     10  H   UNL     1       1.807   6.314  19.076  0.00  0.00    +0.000 HD
BRANCH   8  11
ATOM     11  C   UNL     1       1.165   8.877  18.822  0.00  0.00    +0.000 A 
ATOM     12  C   UNL     1       0.505   9.836  18.022  0.00  0.00    +0.000 A 
ATOM     13  C   UNL     1      -0.431  10.714  18.558  0.00  0.00    +0.000 A 
ATOM     14  C   UNL     1      -0.735  10.642  19.910  0.00  0.00    +0.000 A 
ATOM     15  C   UNL     1      -0.083   9.709  20.721  0.00  0.00    +0.000 A 
ATOM     16  C   UNL     1       0.891   8.829  20.200  0.00  0.00    +0.000 A 
ATOM     17  C   UNL     1       1.646   7.965  21.168  0.00  0.00    +0.000 C 
ENDBRANCH   8  11
ENDBRANCH   6   7
BRANCH   4  18
ATOM     18  N   UNL     1       7.186   6.226  17.062  0.00  0.00    +0.000 N 
ATOM     19  O   UNL     1       7.693   6.259  15.933  0.00  0.00    +0.000 OA
ATOM     20  O   UNL     1       7.747   6.623  18.091  0.00  0.00    +0.000 OA
ENDBRANCH   4  18
BRANCH   1  21
ATOM     21  C   UNL     1       1.892   4.001  17.637  0.00  0.00    +0.000 C 
ATOM     22  O   UNL     1       0.862   4.407  17.123  0.00  0.00    +0.000 OA
BRANCH  21  23
ATOM     23  O   UNL     1       1.991   3.000  18.552  0.00  0.00    +0.000 OA
BRANCH  23  24
ATOM     24  C   UNL     1       0.915   2.847  19.493  0.00  0.00    +0.000 C 
BRANCH  24  26
ATOM     25  C   UNL     1       2.326   3.698  21.375  0.00  0.00    +0.000 C 
ATOM     26  C   UNL     1       1.016   3.866  20.620  0.00  0.00    +0.000 C 
ENDBRANCH  24  26
ENDBRANCH  23  24
ENDBRANCH  21  23
ENDBRANCH   1  21
TORSDOF 7
ENDMDL
MODEL 3
REMARK VINA RESULT:      -7.8      3.140      5.787
REMARK  Name = 
REMARK  9 active torsions:
REMARK  status: ('A' for Active; 'I' for Inactive)
REMARK    1  A    between atoms: C_1  and  C_2
REMARK    2  A    between atoms: C_2  and  C_3
REMARK    3  A    between atoms: C_3  and  O_4
REMARK    4  A    between atoms: O_4  and  C_5
REMARK    5  A    between atoms: C_5  and  C_7
REMARK    6  A    between atoms: C_10  and  N_11
REMARK    7  A    between atoms: C_15  and  N_16
REMARK    8  A    between atoms: C_17  and  C_19
REMARK    9  A    between atoms: C_24  and  C_25
REMARK                            x       y       z     vdW  Elec       q    Type
REMARK                         _______ _______ _______ _____ _____    ______ ____
ROOT
ATOM      1  C   UNL     1       6.812   4.786  16.211  0.00  0.00    +0.000 A 
ATOM      2  C   UNL     1       7.618   5.029  15.072  0.00  0.00    +0.000 A 
ATOM      3  C   UNL     1       7.263   4.546  13.813  0.00  0.00    +0.000 A 
ATOM      4  C   UNL     1       6.083   3.820  13.675  0.00  0.00    +0.000 A 
ATOM      5  C   UNL     1       5.274   3.569  14.789  0.00  0.00    +0.000 A 
ATOM      6  C   UNL     1       5.632   4.011  16.079  0.00  0.00    +0.000 A 
ENDROOT
BRANCH   6   7
ATOM      7  N   UNL     1       4.803   3.692  17.205  0.00  0.00    +0.000 N 
ATOM      8  C   UNL     1       3.824   4.526  17.733  0.00  0.00    +0.000 C 
ATOM      9  O   UNL     1       3.478   5.598  17.238  0.00  0.00    +0.000 OA
ATOM     10  H   UNL     1       4.846   2.726  17.537  0.00  0.00    +0.000 HD
BRANCH   8  11
ATOM     11  C   UNL     1       3.053   4.094  18.936  0.00  0.00    +0.000 A 
ATOM     12  C   UNL     1       2.779   2.709  18.988  0.00  0.00    +0.000 A 
ATOM     13  C   UNL     1       1.972   2.162  19.981  0.00  0.00    +0.000 A 
ATOM     14  C   UNL     1       1.432   2.992  20.952  0.00  0.00    +0.000 A 
ATOM     15  C   UNL     1       1.681   4.367  20.911  0.00  0.00    +0.000 A 
ATOM     16  C   UNL     1       2.473   4.944  19.894  0.00  0.00    +0.000 A 
ATOM     17  C   UNL     1       2.565   6.442  19.841  0.00  0.00    +0.000 C 
ENDBRANCH   8  11
ENDBRANCH   6   7
BRANCH   4  18
ATOM     18  N   UNL     1       5.677   3.322  12.353  0.00  0.00    +0.000 N 
ATOM     19  O   UNL     1       4.535   3.607  11.968  0.00  0.00    +0.000 OA
ATOM     20  O   UNL     1       6.487   2.653  11.699  0.00  0.00    +0.000 OA
ENDBRANCH   4  18
BRANCH   1  21
ATOM     21  C   UNL     1       7.195   5.419  17.511  0.00  0.00    +0.000 C 
ATOM     22  O   UNL     1       7.366   4.788  18.542  0.00  0.00    +0.000 OA
BRANCH  21  23
ATOM     23  O   UNL     1       7.202   6.774  17.390  0.00  0.00    +0.000 OA
BRANCH  23  24
ATOM     24  C   UNL     1       8.060   7.518  18.272  0.00  0.00    +0.000 C 
BRANCH  24  26
ATOM     25  C   UNL     1       9.052   9.755  18.795  0.00  0.00    +0.000 C 
ATOM     26  C   UNL     1       8.057   9.001  17.924  0.00  0.00    +0.000 C 
ENDBRANCH  24  26
ENDBRANCH  23  24
ENDBRANCH  21  23
ENDBRANCH   1  21
TORSDOF 7
ENDMDL
MODEL 4
REMARK VINA RESULT:      -7.8      0.894      1.669
REMARK  Name = 
REMARK  9 active torsions:
REMARK  status: ('A' for Active; 'I' for Inactive)
REMARK    1  A    between atoms: C_1  and  C_2
REMARK    2  A    between atoms: C_2  and  C_3
REMARK    3  A    between atoms: C_3  and  O_4
REMARK    4  A    between atoms: O_4  and  C_5
REMARK    5  A    between atoms: C_5  and  C_7
REMARK    6  A    between atoms: C_10  and  N_11
REMARK    7  A    between atoms: C_15  and  N_16
REMARK    8  A    between atoms: C_17  and  C_19
REMARK    9  A    between atoms: C_24  and  C_25
REMARK                            x       y       z     vdW  Elec       q    Type
REMARK                         _______ _______ _______ _____ _____    ______ ____
ROOT
ATOM      1  C   UNL     1       3.003   4.790  17.706  0.00  0.00    +0.000 A 
ATOM      2  C   UNL     1       3.823   3.904  16.966  0.00  0.00    +0.000 A 
ATOM      3  C   UNL     1       5.120   4.258  16.589  0.00  0.00    +0.000 A 
ATOM      4  C   UNL     1       5.617   5.503  16.961  0.00  0.00    +0.000 A 
ATOM      5  C   UNL     1       4.821   6.392  17.692  0.00  0.00    +0.000 A 
ATOM      6  C   UNL     1       3.494   6.076  18.049  0.00  0.00    +0.000 A 
ENDROOT
BRANCH   6   7
ATOM      7  N   UNL     1       2.691   7.032  18.755  0.00  0.00    +0.000 N 
ATOM      8  C   UNL     1       2.267   8.252  18.238  0.00  0.00    +0.000 C 
ATOM      9  O   UNL     1       2.443   8.616  17.076  0.00  0.00    +0.000 OA
ATOM     10  H   UNL     1       2.290   6.717  19.641  0.00  0.00    +0.000 HD
BRANCH   8  11
ATOM     11  C   UNL     1       1.467   9.179  19.089  0.00  0.00    +0.000 A 
ATOM     12  C   UNL     1       1.269  10.461  18.531  0.00  0.00    +0.000 A 
ATOM     13  C   UNL     1       0.644  11.480  19.246  0.00  0.00    +0.000 A 
ATOM     14  C   UNL     1       0.193  11.229  20.533  0.00  0.00    +0.000 A 
ATOM     15  C   UNL     1       0.390   9.969  21.107  0.00  0.00    +0.000 A 
ATOM     16  C   UNL     1       1.048   8.933  20.409  0.00  0.00    +0.000 A 
ATOM     17  C   UNL     1       1.348   7.665  21.154  0.00  0.00    +0.000 C 
ENDBRANCH   8  11
ENDBRANCH   6   7
BRANCH   4  18
ATOM     18  N   UNL     1       6.988   5.886  16.596  0.00  0.00    +0.000 N 
ATOM     19  O   UNL     1       7.328   7.054  16.822  0.00  0.00    +0.000 OA
ATOM     20  O   UNL     1       7.724   5.030  16.088  0.00  0.00    +0.000 OA
ENDBRANCH   4  18
BRANCH   1  21
ATOM     21  C   UNL     1       1.663   4.312  18.168  0.00  0.00    +0.000 C 
ATOM     22  O   UNL     1       0.830   3.822  17.423  0.00  0.00    +0.000 OA
BRANCH  21  23
ATOM     23  O   UNL     1       1.484   4.613  19.483  0.00  0.00    +0.000 OA
BRANCH  23  24
ATOM     24  C   UNL     1       1.009   3.568  20.348  0.00  0.00    +0.000 C 
BRANCH  24  26
ATOM     25  C   UNL     1       3.235   2.601  20.960  0.00  0.00    +0.000 C 
ATOM     26  C   UNL     1       1.989   3.301  21.483  0.00  0.00    +0.000 C 
ENDBRANCH  24  26
ENDBRANCH  23  24
ENDBRANCH  21  23
ENDBRANCH   1  21
TORSDOF 7
ENDMDL
MODEL 5
REMARK VINA RESULT:      -7.6      0.961      1.187
REMARK  Name = 
REMARK  9 active torsions:
REMARK  status: ('A' for Active; 'I' for Inactive)
REMARK    1  A    between atoms: C_1  and  C_2
REMARK    2  A    between atoms: C_2  and  C_3
REMARK    3  A    between atoms: C_3  and  O_4
REMARK    4  A    between atoms: O_4  and  C_5
REMARK    5  A    between atoms: C_5  and  C_7
REMARK    6  A    between atoms: C_10  and  N_11
REMARK    7  A    between atoms: C_15  and  N_16
REMARK    8  A    between atoms: C_17  and  C_19
REMARK    9  A    between atoms: C_24  and  C_25
REMARK                            x       y       z     vdW  Elec       q    Type
REMARK                         _______ _______ _______ _____ _____    ______ ____
ROOT
ATOM      1  C   UNL     1       2.997   4.605  17.559  0.00  0.00    +0.000 A 
ATOM      2  C   UNL     1       3.835   3.584  17.048  0.00  0.00    +0.000 A 
ATOM      3  C   UNL     1       5.191   3.808  16.810  0.00  0.00    +0.000 A 
ATOM      4  C   UNL     1       5.731   5.060  17.093  0.00  0.00    +0.000 A 
ATOM      5  C   UNL     1       4.918   6.081  17.597  0.00  0.00    +0.000 A 
ATOM      6  C   UNL     1       3.537   5.893  17.808  0.00  0.00    +0.000 A 
ENDROOT
BRANCH   6   7
ATOM      7  N   UNL     1       2.726   6.978  18.279  0.00  0.00    +0.000 N 
ATOM      8  C   UNL     1       2.408   7.213  19.612  0.00  0.00    +0.000 C 
ATOM      9  O   UNL     1       2.866   6.578  20.561  0.00  0.00    +0.000 OA
ATOM     10  H   UNL     1       2.496   7.700  17.592  0.00  0.00    +0.000 HD
BRANCH   8  11
ATOM     11  C   UNL     1       1.520   8.356  19.971  0.00  0.00    +0.000 A 
ATOM     12  C   UNL     1       0.810   8.189  21.182  0.00  0.00    +0.000 A 
ATOM     13  C   UNL     1      -0.146   9.109  21.601  0.00  0.00    +0.000 A 
ATOM     14  C   UNL     1      -0.403  10.226  20.819  0.00  0.00    +0.000 A 
ATOM     15  C   UNL     1       0.280  10.403  19.612  0.00  0.00    +0.000 A 
ATOM     16  C   UNL     1       1.232   9.466  19.156  0.00  0.00    +0.000 A 
ATOM     17  C   UNL     1       1.806   9.658  17.782  0.00  0.00    +0.000 C 
ENDBRANCH   8  11
ENDBRANCH   6   7
BRANCH   4  18
ATOM     18  N   UNL     1       7.162   5.310  16.872  0.00  0.00    +0.000 N 
ATOM     19  O   UNL     1       7.467   6.330  16.241  0.00  0.00    +0.000 OA
ATOM     20  O   UNL     1       7.980   4.498  17.325  0.00  0.00    +0.000 OA
ENDBRANCH   4  18
BRANCH   1  21
ATOM     21  C   UNL     1       1.577   4.271  17.890  0.00  0.00    +0.000 C 
ATOM     22  O   UNL     1       0.667   4.319  17.077  0.00  0.00    +0.000 OA
BRANCH  21  23
ATOM     23  O   UNL     1       1.449   4.031  19.223  0.00  0.00    +0.000 OA
BRANCH  23  24
ATOM     24  C   UNL     1       1.130   2.690  19.631  0.00  0.00    +0.000 C 
BRANCH  24  26
ATOM     25  C   UNL     1       2.252   3.572  21.687  0.00  0.00    +0.000 C 
ATOM     26  C   UNL     1       1.311   2.511  21.133  0.00  0.00    +0.000 C 
ENDBRANCH  24  26
ENDBRANCH  23  24
ENDBRANCH  21  23
ENDBRANCH   1  21
TORSDOF 7
ENDMDL
MODEL 6
REMARK VINA RESULT:      -7.6      3.227      5.891
REMARK  Name = 
REMARK  9 active torsions:
REMARK  status: ('A' for Active; 'I' for Inactive)
REMARK    1  A    between atoms: C_1  and  C_2
REMARK    2  A    between atoms: C_2  and  C_3
REMARK    3  A    between atoms: C_3  and  O_4
REMARK    4  A    between atoms: O_4  and  C_5
REMARK    5  A    between atoms: C_5  and  C_7
REMARK    6  A    between atoms: C_10  and  N_11
REMARK    7  A    between atoms: C_15  and  N_16
REMARK    8  A    between atoms: C_17  and  C_19
REMARK    9  A    between atoms: C_24  and  C_25
REMARK                            x       y       z     vdW  Elec       q    Type
REMARK                         _______ _______ _______ _____ _____    ______ ____
ROOT
ATOM      1  C   UNL     1       6.538   5.426  16.159  0.00  0.00    +0.000 A 
ATOM      2  C   UNL     1       7.564   5.301  15.191  0.00  0.00    +0.000 A 
ATOM      3  C   UNL     1       7.344   4.647  13.979  0.00  0.00    +0.000 A 
ATOM      4  C   UNL     1       6.084   4.119  13.713  0.00  0.00    +0.000 A 
ATOM      5  C   UNL     1       5.058   4.233  14.658  0.00  0.00    +0.000 A 
ATOM      6  C   UNL     1       5.266   4.852  15.907  0.00  0.00    +0.000 A 
ENDROOT
BRANCH   6   7
ATOM      7  N   UNL     1       4.205   4.906  16.870  0.00  0.00    +0.000 N 
ATOM      8  C   UNL     1       3.975   3.952  17.856  0.00  0.00    +0.000 C 
ATOM      9  O   UNL     1       4.714   2.996  18.088  0.00  0.00    +0.000 OA
ATOM     10  H   UNL     1       3.681   5.783  16.915  0.00  0.00    +0.000 HD
BRANCH   8  11
ATOM     11  C   UNL     1       2.810   4.103  18.775  0.00  0.00    +0.000 A 
ATOM     12  C   UNL     1       2.825   5.284  19.550  0.00  0.00    +0.000 A 
ATOM     13  C   UNL     1       1.874   5.521  20.538  0.00  0.00    +0.000 A 
ATOM     14  C   UNL     1       0.878   4.582  20.763  0.00  0.00    +0.000 A 
ATOM     15  C   UNL     1       0.854   3.401  20.015  0.00  0.00    +0.000 A 
ATOM     16  C   UNL     1       1.827   3.130  19.029  0.00  0.00    +0.000 A 
ATOM     17  C   UNL     1       1.811   1.775  18.381  0.00  0.00    +0.000 C 
ENDBRANCH   8  11
ENDBRANCH   6   7
BRANCH   4  18
ATOM     18  N   UNL     1       5.823   3.448  12.432  0.00  0.00    +0.000 N 
ATOM     19  O   UNL     1       4.655   3.446  12.022  0.00  0.00    +0.000 OA
ATOM     20  O   UNL     1       6.773   2.926  11.835  0.00  0.00    +0.000 OA
ENDBRANCH   4  18
BRANCH   1  21
ATOM     21  C   UNL     1       6.808   6.228  17.393  0.00  0.00    +0.000 C 
ATOM     22  O   UNL     1       6.462   5.880  18.510  0.00  0.00    +0.000 OA
BRANCH  21  23
ATOM     23  O   UNL     1       7.374   7.420  17.064  0.00  0.00    +0.000 OA
BRANCH  23  24
ATOM     24  C   UNL     1       8.224   8.047  18.039  0.00  0.00    +0.000 C 
BRANCH  24  26
ATOM     25  C   UNL     1       9.133  10.208  18.916  0.00  0.00    +0.000 C 
ATOM     26  C   UNL     1       8.232   9.561  17.874  0.00  0.00    +0.000 C 
ENDBRANCH  24  26
ENDBRANCH  23  24
ENDBRANCH  21  23
ENDBRANCH   1  21
TORSDOF 7
ENDMDL
MODEL 7
REMARK VINA RESULT:      -7.5      3.275      5.889
REMARK  Name = 
REMARK  9 active torsions:
REMARK  status: ('A' for Active; 'I' for Inactive)
REMARK    1  A    between atoms: C_1  and  C_2
REMARK    2  A    between atoms: C_2  and  C_3
REMARK    3  A    between atoms: C_3  and  O_4
REMARK    4  A    between atoms: O_4  and  C_5
REMARK    5  A    between atoms: C_5  and  C_7
REMARK    6  A    between atoms: C_10  and  N_11
REMARK    7  A    between atoms: C_15  and  N_16
REMARK    8  A    between atoms: C_17  and  C_19
REMARK    9  A    between atoms: C_24  and  C_25
REMARK                            x       y       z     vdW  Elec       q    Type
REMARK                         _______ _______ _______ _____ _____    ______ ____
ROOT
ATOM      1  C   UNL     1       6.898   4.637  15.411  0.00  0.00    +0.000 A 
ATOM      2  C   UNL     1       7.519   4.772  14.146  0.00  0.00    +0.000 A 
ATOM      3  C   UNL     1       6.933   4.257  12.989  0.00  0.00    +0.000 A 
ATOM      4  C   UNL     1       5.705   3.608  13.084  0.00  0.00    +0.000 A 
ATOM      5  C   UNL     1       5.077   3.465  14.326  0.00  0.00    +0.000 A 
ATOM      6  C   UNL     1       5.668   3.939  15.515  0.00  0.00    +0.000 A 
ENDROOT
BRANCH   6   7
ATOM      7  N   UNL     1       5.018   3.730  16.776  0.00  0.00    +0.000 N 
ATOM      8  C   UNL     1       4.278   4.690  17.459  0.00  0.00    +0.000 C 
ATOM      9  O   UNL     1       4.006   5.805  17.018  0.00  0.00    +0.000 OA
ATOM     10  H   UNL     1       4.982   2.764  17.110  0.00  0.00    +0.000 HD
BRANCH   8  11
ATOM     11  C   UNL     1       3.682   4.359  18.786  0.00  0.00    +0.000 A 
ATOM     12  C   UNL     1       3.816   3.005  19.166  0.00  0.00    +0.000 A 
ATOM     13  C   UNL     1       3.215   2.508  20.318  0.00  0.00    +0.000 A 
ATOM     14  C   UNL     1       2.476   3.363  21.123  0.00  0.00    +0.000 A 
ATOM     15  C   UNL     1       2.322   4.703  20.758  0.00  0.00    +0.000 A 
ATOM     16  C   UNL     1       2.900   5.219  19.577  0.00  0.00    +0.000 A 
ATOM     17  C   UNL     1       2.560   6.628  19.186  0.00  0.00    +0.000 C 
ENDBRANCH   8  11
ENDBRANCH   6   7
BRANCH   4  18
ATOM     18  N   UNL     1       5.058   3.080  11.875  0.00  0.00    +0.000 N 
ATOM     19  O   UNL     1       5.466   1.993  11.445  0.00  0.00    +0.000 OA
ATOM     20  O   UNL     1       4.148   3.739  11.356  0.00  0.00    +0.000 OA
ENDBRANCH   4  18
BRANCH   1  21
ATOM     21  C   UNL     1       7.527   5.301  16.595  0.00  0.00    +0.000 C 
ATOM     22  O   UNL     1       7.848   4.704  17.610  0.00  0.00    +0.000 OA
BRANCH  21  23
ATOM     23  O   UNL     1       7.570   6.648  16.410  0.00  0.00    +0.000 OA
BRANCH  23  24
ATOM     24  C   UNL     1       7.089   7.484  17.476  0.00  0.00    +0.000 C 
BRANCH  24  26
ATOM     25  C   UNL     1       8.400   9.522  18.098  0.00  0.00    +0.000 C 
ATOM     26  C   UNL     1       8.237   8.025  18.316  0.00  0.00    +0.000 C 
ENDBRANCH  24  26
ENDBRANCH  23  24
ENDBRANCH  21  23
ENDBRANCH   1  21
TORSDOF 7
ENDMDL
MODEL 8
REMARK VINA RESULT:      -7.5      3.514      5.906
REMARK  Name = 
REMARK  9 active torsions:
REMARK  status: ('A' for Active; 'I' for Inactive)
REMARK    1  A    between atoms: C_1  and  C_2
REMARK    2  A    between atoms: C_2  and  C_3
REMARK    3  A    between atoms: C_3  and  O_4
REMARK    4  A    between atoms: O_4  and  C_5
REMARK    5  A    between atoms: C_5  and  C_7
REMARK    6  A    between atoms: C_10  and  N_11
REMARK    7  A    between atoms: C_15  and  N_16
REMARK    8  A    between atoms: C_17  and  C_19
REMARK    9  A    between atoms: C_24  and  C_25
REMARK                            x       y       z     vdW  Elec       q    Type
REMARK                         _______ _______ _______ _____ _____    ______ ____
ROOT
ATOM      1  C   UNL     1       6.805   5.142  16.436  0.00  0.00    +0.000 A 
ATOM      2  C   UNL     1       7.702   5.132  15.341  0.00  0.00    +0.000 A 
ATOM      3  C   UNL     1       7.338   4.592  14.107  0.00  0.00    +0.000 A 
ATOM      4  C   UNL     1       6.059   4.064  13.951  0.00  0.00    +0.000 A 
ATOM      5  C   UNL     1       5.159   4.064  15.022  0.00  0.00    +0.000 A 
ATOM      6  C   UNL     1       5.517   4.566  16.290  0.00  0.00    +0.000 A 
ENDROOT
BRANCH   6   7
ATOM      7  N   UNL     1       4.585   4.504  17.378  0.00  0.00    +0.000 N 
ATOM      8  C   UNL     1       4.067   3.330  17.916  0.00  0.00    +0.000 C 
ATOM      9  O   UNL     1       4.422   2.198  17.592  0.00  0.00    +0.000 OA
ATOM     10  H   UNL     1       4.413   5.381  17.875  0.00  0.00    +0.000 HD
BRANCH   8  11
ATOM     11  C   UNL     1       3.070   3.401  19.024  0.00  0.00    +0.000 A 
ATOM     12  C   UNL     1       3.469   2.747  20.211  0.00  0.00    +0.000 A 
ATOM     13  C   UNL     1       2.610   2.619  21.299  0.00  0.00    +0.000 A 
ATOM     14  C   UNL     1       1.333   3.158  21.223  0.00  0.00    +0.000 A 
ATOM     15  C   UNL     1       0.916   3.798  20.053  0.00  0.00    +0.000 A 
ATOM     16  C   UNL     1       1.763   3.911  18.929  0.00  0.00    +0.000 A 
ATOM     17  C   UNL     1       1.184   4.480  17.666  0.00  0.00    +0.000 C 
ENDBRANCH   8  11
ENDBRANCH   6   7
BRANCH   4  18
ATOM     18  N   UNL     1       5.646   3.513  12.653  0.00  0.00    +0.000 N 
ATOM     19  O   UNL     1       6.520   2.966  11.967  0.00  0.00    +0.000 OA
ATOM     20  O   UNL     1       4.460   3.621  12.315  0.00  0.00    +0.000 OA
ENDBRANCH   4  18
BRANCH   1  21
ATOM     21  C   UNL     1       7.219   5.828  17.700  0.00  0.00    +0.000 C 
ATOM     22  O   UNL     1       6.886   5.450  18.811  0.00  0.00    +0.000 OA
BRANCH  21  23
ATOM     23  O   UNL     1       7.903   6.968  17.412  0.00  0.00    +0.000 OA
BRANCH  23  24
ATOM     24  C   UNL     1       7.243   8.221  17.658  0.00  0.00    +0.000 C 
BRANCH  24  26
ATOM     25  C   UNL     1       8.935   9.518  18.969  0.00  0.00    +0.000 C 
ATOM     26  C   UNL     1       8.230   9.381  17.628  0.00  0.00    +0.000 C 
ENDBRANCH  24  26
ENDBRANCH  23  24
ENDBRANCH  21  23
ENDBRANCH   1  21
TORSDOF 7
ENDMDL
MODEL 9
REMARK VINA RESULT:      -7.5      3.323      5.903
REMARK  Name = 
REMARK  9 active torsions:
REMARK  status: ('A' for Active; 'I' for Inactive)
REMARK    1  A    between atoms: C_1  and  C_2
REMARK    2  A    between atoms: C_2  and  C_3
REMARK    3  A    between atoms: C_3  and  O_4
REMARK    4  A    between atoms: O_4  and  C_5
REMARK    5  A    between atoms: C_5  and  C_7
REMARK    6  A    between atoms: C_10  and  N_11
REMARK    7  A    between atoms: C_15  and  N_16
REMARK    8  A    between atoms: C_17  and  C_19
REMARK    9  A    between atoms: C_24  and  C_25
REMARK                            x       y       z     vdW  Elec       q    Type
REMARK                         _______ _______ _______ _____ _____    ______ ____
ROOT
ATOM      1  C   UNL     1       6.707   4.723  16.611  0.00  0.00    +0.000 A 
ATOM      2  C   UNL     1       7.556   5.088  15.540  0.00  0.00    +0.000 A 
ATOM      3  C   UNL     1       7.279   4.702  14.228  0.00  0.00    +0.000 A 
ATOM      4  C   UNL     1       6.135   3.952  13.971  0.00  0.00    +0.000 A 
ATOM      5  C   UNL     1       5.283   3.582  15.018  0.00  0.00    +0.000 A 
ATOM      6  C   UNL     1       5.563   3.924  16.356  0.00  0.00    +0.000 A 
ENDROOT
BRANCH   6   7
ATOM      7  N   UNL     1       4.694   3.484  17.408  0.00  0.00    +0.000 N 
ATOM      8  C   UNL     1       3.673   4.245  17.968  0.00  0.00    +0.000 C 
ATOM      9  O   UNL     1       3.324   5.352  17.559  0.00  0.00    +0.000 OA
ATOM     10  H   UNL     1       4.745   2.491  17.651  0.00  0.00    +0.000 HD
BRANCH   8  11
ATOM     11  C   UNL     1       2.861   3.686  19.088  0.00  0.00    +0.000 A 
ATOM     12  C   UNL     1       1.592   4.286  19.246  0.00  0.00    +0.000 A 
ATOM     13  C   UNL     1       0.759   3.962  20.313  0.00  0.00    +0.000 A 
ATOM     14  C   UNL     1       1.177   3.018  21.239  0.00  0.00    +0.000 A 
ATOM     15  C   UNL     1       2.435   2.422  21.106  0.00  0.00    +0.000 A 
ATOM     16  C   UNL     1       3.305   2.760  20.048  0.00  0.00    +0.000 A 
ATOM     17  C   UNL     1       4.692   2.184  20.067  0.00  0.00    +0.000 C 
ENDBRANCH   8  11
ENDBRANCH   6   7
BRANCH   4  18
ATOM     18  N   UNL     1       5.811   3.556  12.593  0.00  0.00    +0.000 N 
ATOM     19  O   UNL     1       4.614   3.532  12.279  0.00  0.00    +0.000 OA
ATOM     20  O   UNL     1       6.740   3.271  11.826  0.00  0.00    +0.000 OA
ENDBRANCH   4  18
BRANCH   1  21
ATOM     21  C   UNL     1       7.003   5.256  17.978  0.00  0.00    +0.000 C 
ATOM     22  O   UNL     1       6.883   4.596  18.998  0.00  0.00    +0.000 OA
BRANCH  21  23
ATOM     23  O   UNL     1       7.302   6.581  17.911  0.00  0.00    +0.000 OA
BRANCH  23  24
ATOM     24  C   UNL     1       8.288   7.090  18.825  0.00  0.00    +0.000 C 
BRANCH  24  26
ATOM     25  C   UNL     1       7.637   9.115  17.507  0.00  0.00    +0.000 C 
ATOM     26  C   UNL     1       8.601   8.553  18.543  0.00  0.00    +0.000 C 
ENDBRANCH  24  26
ENDBRANCH  23  24
ENDBRANCH  21  23
ENDBRANCH   1  21
TORSDOF 7
ENDMDL
