MODEL 1
REMARK VINA RESULT:      -6.3      0.000      0.000
REMARK  Name = 
REMARK  17 active torsions:
REMARK  status: ('A' for Active; 'I' for Inactive)
REMARK    1  A    between atoms: C_1  and  C_2
REMARK    2  A    between atoms: C_2  and  C_3
REMARK    3  A    between atoms: C_3  and  C_4
REMARK    4  A    between atoms: C_4  and  C_5
REMARK    5  A    between atoms: C_5  and  C_6
REMARK    6  A    between atoms: C_6  and  C_7
REMARK    7  A    between atoms: C_7  and  C_8
REMARK    8  A    between atoms: C_8  and  C_9
REMARK    9  A    between atoms: C_9  and  C_10
REMARK   10  A    between atoms: C_10  and  C_11
REMARK   11  A    between atoms: C_11  and  C_12
REMARK   12  A    between atoms: C_12  and  C_13
REMARK   13  A    between atoms: C_13  and  C_14
REMARK   14  A    between atoms: C_14  and  C_15
REMARK   15  A    between atoms: C_15  and  C_16
REMARK   16  A    between atoms: C_20  and  N_21
REMARK   17  A    between atoms: C_22  and  O_23
REMARK                            x       y       z     vdW  Elec       q    Type
REMARK                         _______ _______ _______ _____ _____    ______ ____
ROOT
ATOM      1  C   UNL     1       7.599   7.792  17.622  0.00  0.00    +0.000 C 
ENDROOT
BRANCH   1   2
ATOM      2  C   UNL     1       8.471   8.808  18.350  0.00  0.00    +0.000 C 
BRANCH   2   3
ATOM      3  C   UNL     1       8.246  10.215  17.798  0.00  0.00    +0.000 C 
BRANCH   3   4
ATOM      4  C   UNL     1       9.183  11.200  18.445  0.00  0.00    +0.000 A 
ATOM      5  C   UNL     1       9.978  10.801  19.530  0.00  0.00    +0.000 A 
ATOM      6  C   UNL     1      10.776  11.731  20.198  0.00  0.00    +0.000 A 
ATOM      7  C   UNL     1      10.796  13.067  19.787  0.00  0.00    +0.000 A 
ATOM      8  C   UNL     1      10.062  13.479  18.674  0.00  0.00    +0.000 A 
ATOM      9  C   UNL     1       9.222  12.547  18.048  0.00  0.00    +0.000 A 
BRANCH   8  10
ATOM     10  N   UNL     1      10.010  14.845  18.320  0.00  0.00    +0.000 N 
ATOM     11  H   UNL     1      10.640  15.067  17.555  0.00  0.00    +0.000 HD
ATOM     12  H   UNL     1       9.066  15.143  18.087  0.00  0.00    +0.000 HD
ENDBRANCH   8  10
BRANCH   9  13
ATOM     13  O   UNL     1       8.379  12.978  17.048  0.00  0.00    +0.000 OA
ATOM     14  H   UNL     1       8.750  13.831  16.760  0.00  0.00    +0.000 HD
ENDBRANCH   9  13
ENDBRANCH   3   4
ENDBRANCH   2   3
ENDBRANCH   1   2
BRANCH   1  15
ATOM     15  C   UNL     1       7.802   6.397  18.201  0.00  0.00    +0.000 C 
BRANCH  15  16
ATOM     16  C   UNL     1       6.471   5.796  18.636  0.00  0.00    +0.000 C 
BRANCH  16  17
ATOM     17  C   UNL     1       5.564   5.579  17.431  0.00  0.00    +0.000 C 
BRANCH  17  18
ATOM     18  C   UNL     1       4.102   5.720  17.832  0.00  0.00    +0.000 C 
BRANCH  18  19
ATOM     19  C   UNL     1       3.919   5.395  19.308  0.00  0.00    +0.000 C 
BRANCH  19  20
ATOM     20  C   UNL     1       2.503   5.730  19.755  0.00  0.00    +0.000 C 
BRANCH  20  21
ATOM     21  C   UNL     1       2.099   4.869  20.945  0.00  0.00    +0.000 C 
BRANCH  21  22
ATOM     22  C   UNL     1       0.967   3.924  20.561  0.00  0.00    +0.000 C 
BRANCH  22  23
ATOM     23  C   UNL     1       1.520   2.596  20.055  0.00  0.00    +0.000 C 
BRANCH  23  24
ATOM     24  C   UNL     1       1.140   2.377  18.595  0.00  0.00    +0.000 C 
BRANCH  24  26
ATOM     25  C   UNL     1       3.568   1.757  18.466  0.00  0.00    +0.000 C 
ATOM     26  C   UNL     1       2.381   2.324  17.709  0.00  0.00    +0.000 C 
ENDBRANCH  24  26
ENDBRANCH  23  24
ENDBRANCH  22  23
ENDBRANCH  21  22
ENDBRANCH  20  21
ENDBRANCH  19  20
ENDBRANCH  18  19
ENDBRANCH  17  18
ENDBRANCH  16  17
ENDBRANCH  15  16
ENDBRANCH   1  15
TORSDOF 16
ENDMDL
MODEL 2
REMARK VINA RESULT:      -6.3      5.406      8.924
REMARK  Name = 
REMARK  17 active torsions:
REMARK  status: ('A' for Active; 'I' for Inactive)
REMARK    1  A    between atoms: C_1  and  C_2
REMARK    2  A    between atoms: C_2  and  C_3
REMARK    3  A    between atoms: C_3  and  C_4
REMARK    4  A    between atoms: C_4  and  C_5
REMARK    5  A    between atoms: C_5  and  C_6
REMARK    6  A    between atoms: C_6  and  C_7
REMARK    7  A    between atoms: C_7  and  C_8
REMARK    8  A    between atoms: C_8  and  C_9
REMARK    9  A    between atoms: C_9  and  C_10
REMARK   10  A    between atoms: C_10  and  C_11
REMARK   11  A    between atoms: C_11  and  C_12
REMARK   12  A    between atoms: C_12  and  C_13
REMARK   13  A    between atoms: C_13  and  C_14
REMARK   14  A    between atoms: C_14  and  C_15
REMARK   15  A    between atoms: C_15  and  C_16
REMARK   16  A    between atoms: C_20  and  N_21
REMARK   17  A    between atoms: C_22  and  O_23
REMARK                            x       y       z     vdW  Elec       q    Type
REMARK                         _______ _______ _______ _____ _____    ______ ____
ROOT
ATOM      1  C   UNL     1       2.944   5.171  17.454  0.00  0.00    +0.000 C 
ENDROOT
BRANCH   1   2
ATOM      2  C   UNL     1       1.505   4.676  17.547  0.00  0.00    +0.000 C 
BRANCH   2   3
ATOM      3  C   UNL     1       1.461   3.169  17.796  0.00  0.00    +0.000 C 
BRANCH   3   4
ATOM      4  C   UNL     1       2.038   2.831  19.144  0.00  0.00    +0.000 A 
ATOM      5  C   UNL     1       1.318   3.132  20.309  0.00  0.00    +0.000 A 
ATOM      6  C   UNL     1       1.886   2.914  21.565  0.00  0.00    +0.000 A 
ATOM      7  C   UNL     1       3.175   2.386  21.673  0.00  0.00    +0.000 A 
ATOM      8  C   UNL     1       3.891   2.022  20.533  0.00  0.00    +0.000 A 
ATOM      9  C   UNL     1       3.331   2.299  19.277  0.00  0.00    +0.000 A 
BRANCH   8  10
ATOM     10  N   UNL     1       5.228   1.579  20.640  0.00  0.00    +0.000 N 
ATOM     11  H   UNL     1       5.866   2.148  20.092  0.00  0.00    +0.000 HD
ATOM     12  H   UNL     1       5.541   1.543  21.607  0.00  0.00    +0.000 HD
ENDBRANCH   8  10
BRANCH   9  13
ATOM     13  O   UNL     1       4.091   2.087  18.148  0.00  0.00    +0.000 OA
ATOM     14  H   UNL     1       3.822   2.791  17.530  0.00  0.00    +0.000 HD
ENDBRANCH   9  13
ENDBRANCH   3   4
ENDBRANCH   2   3
ENDBRANCH   1   2
BRANCH   1  15
ATOM     15  C   UNL     1       3.173   6.339  18.405  0.00  0.00    +0.000 C 
BRANCH  15  16
ATOM     16  C   UNL     1       3.923   7.466  17.703  0.00  0.00    +0.000 C 
BRANCH  16  17
ATOM     17  C   UNL     1       4.867   6.903  16.649  0.00  0.00    +0.000 C 
BRANCH  17  18
ATOM     18  C   UNL     1       6.297   6.884  17.170  0.00  0.00    +0.000 C 
BRANCH  18  19
ATOM     19  C   UNL     1       6.527   5.669  18.057  0.00  0.00    +0.000 C 
BRANCH  19  20
ATOM     20  C   UNL     1       7.398   4.646  17.343  0.00  0.00    +0.000 C 
BRANCH  20  21
ATOM     21  C   UNL     1       7.173   4.707  15.838  0.00  0.00    +0.000 C 
BRANCH  21  22
ATOM     22  C   UNL     1       6.052   3.760  15.426  0.00  0.00    +0.000 C 
BRANCH  22  23
ATOM     23  C   UNL     1       5.449   4.184  14.092  0.00  0.00    +0.000 C 
BRANCH  23  24
ATOM     24  C   UNL     1       6.351   3.765  12.936  0.00  0.00    +0.000 C 
BRANCH  24  26
ATOM     25  C   UNL     1       4.351   3.344  11.480  0.00  0.00    +0.000 C 
ATOM     26  C   UNL     1       5.644   2.765  12.025  0.00  0.00    +0.000 C 
ENDBRANCH  24  26
ENDBRANCH  23  24
ENDBRANCH  22  23
ENDBRANCH  21  22
ENDBRANCH  20  21
ENDBRANCH  19  20
ENDBRANCH  18  19
ENDBRANCH  17  18
ENDBRANCH  16  17
ENDBRANCH  15  16
ENDBRANCH   1  15
TORSDOF 16
ENDMDL
MODEL 3
REMARK VINA RESULT:      -6.2      4.731      7.413
REMARK  Name = 
REMARK  17 active torsions:
REMARK  status: ('A' for Active; 'I' for Inactive)
REMARK    1  A    between atoms: C_1  and  C_2
REMARK    2  A    between atoms: C_2  and  C_3
REMARK    3  A    between atoms: C_3  and  C_4
REMARK    4  A    between atoms: C_4  and  C_5
REMARK    5  A    between atoms: C_5  and  C_6
REMARK    6  A    between atoms: C_6  and  C_7
REMARK    7  A    between atoms: C_7  and  C_8
REMARK    8  A    between atoms: C_8  and  C_9
REMARK    9  A    between atoms: C_9  and  C_10
REMARK   10  A    between atoms: C_10  and  C_11
REMARK   11  A    between atoms: C_11  and  C_12
REMARK   12  A    between atoms: C_12  and  C_13
REMARK   13  A    between atoms: C_13  and  C_14
REMARK   14  A    between atoms: C_14  and  C_15
REMARK   15  A    between atoms: C_15  and  C_16
REMARK   16  A    between atoms: C_20  and  N_21
REMARK   17  A    between atoms: C_22  and  O_23
REMARK                            x       y       z     vdW  Elec       q    Type
REMARK                         _______ _______ _______ _____ _____    ______ ____
ROOT
ATOM      1  C   UNL     1       2.738   1.691  19.166  0.00  0.00    +0.000 C 
ENDROOT
BRANCH   1   2
ATOM      2  C   UNL     1       3.319   2.600  18.089  0.00  0.00    +0.000 C 
BRANCH   2   3
ATOM      3  C   UNL     1       4.464   3.444  18.648  0.00  0.00    +0.000 C 
BRANCH   3   4
ATOM      4  C   UNL     1       5.075   4.298  17.570  0.00  0.00    +0.000 A 
ATOM      5  C   UNL     1       4.867   3.977  16.220  0.00  0.00    +0.000 A 
ATOM      6  C   UNL     1       5.509   4.703  15.216  0.00  0.00    +0.000 A 
ATOM      7  C   UNL     1       6.359   5.762  15.546  0.00  0.00    +0.000 A 
ATOM      8  C   UNL     1       6.538   6.141  16.876  0.00  0.00    +0.000 A 
ATOM      9  C   UNL     1       5.932   5.368  17.878  0.00  0.00    +0.000 A 
BRANCH   8  10
ATOM     10  N   UNL     1       7.470   7.148  17.212  0.00  0.00    +0.000 N 
ATOM     11  H   UNL     1       7.021   7.972  17.599  0.00  0.00    +0.000 HD
ATOM     12  H   UNL     1       8.182   6.810  17.855  0.00  0.00    +0.000 HD
ENDBRANCH   8  10
BRANCH   9  13
ATOM     13  O   UNL     1       6.225   5.638  19.195  0.00  0.00    +0.000 OA
ATOM     14  H   UNL     1       7.191   5.763  19.216  0.00  0.00    +0.000 HD
ENDBRANCH   9  13
ENDBRANCH   3   4
ENDBRANCH   2   3
ENDBRANCH   1   2
BRANCH   1  15
ATOM     15  C   UNL     1       1.399   2.228  19.658  0.00  0.00    +0.000 C 
BRANCH  15  16
ATOM     16  C   UNL     1       1.460   2.541  21.148  0.00  0.00    +0.000 C 
BRANCH  16  17
ATOM     17  C   UNL     1       1.907   3.980  21.374  0.00  0.00    +0.000 C 
BRANCH  17  18
ATOM     18  C   UNL     1       1.339   4.890  20.295  0.00  0.00    +0.000 C 
BRANCH  18  19
ATOM     19  C   UNL     1       1.775   6.331  20.526  0.00  0.00    +0.000 C 
BRANCH  19  20
ATOM     20  C   UNL     1       2.932   6.691  19.606  0.00  0.00    +0.000 C 
BRANCH  20  21
ATOM     21  C   UNL     1       2.468   6.745  18.156  0.00  0.00    +0.000 C 
BRANCH  21  22
ATOM     22  C   UNL     1       2.614   8.157  17.601  0.00  0.00    +0.000 C 
BRANCH  22  23
ATOM     23  C   UNL     1       1.300   8.921  17.714  0.00  0.00    +0.000 C 
BRANCH  23  24
ATOM     24  C   UNL     1       1.415  10.041  18.743  0.00  0.00    +0.000 C 
BRANCH  24  26
ATOM     25  C   UNL     1      -0.577  10.968  19.955  0.00  0.00    +0.000 C 
ATOM     26  C   UNL     1       0.430   9.834  19.890  0.00  0.00    +0.000 C 
ENDBRANCH  24  26
ENDBRANCH  23  24
ENDBRANCH  22  23
ENDBRANCH  21  22
ENDBRANCH  20  21
ENDBRANCH  19  20
ENDBRANCH  18  19
ENDBRANCH  17  18
ENDBRANCH  16  17
ENDBRANCH  15  16
ENDBRANCH   1  15
TORSDOF 16
ENDMDL
MODEL 4
REMARK VINA RESULT:      -6.1      5.889      9.123
REMARK  Name = 
REMARK  17 active torsions:
REMARK  status: ('A' for Active; 'I' for Inactive)
REMARK    1  A    between atoms: C_1  and  C_2
REMARK    2  A    between atoms: C_2  and  C_3
REMARK    3  A    between atoms: C_3  and  C_4
REMARK    4  A    between atoms: C_4  and  C_5
REMARK    5  A    between atoms: C_5  and  C_6
REMARK    6  A    between atoms: C_6  and  C_7
REMARK    7  A    between atoms: C_7  and  C_8
REMARK    8  A    between atoms: C_8  and  C_9
REMARK    9  A    between atoms: C_9  and  C_10
REMARK   10  A    between atoms: C_10  and  C_11
REMARK   11  A    between atoms: C_11  and  C_12
REMARK   12  A    between atoms: C_12  and  C_13
REMARK   13  A    between atoms: C_13  and  C_14
REMARK   14  A    between atoms: C_14  and  C_15
REMARK   15  A    between atoms: C_15  and  C_16
REMARK   16  A    between atoms: C_20  and  N_21
REMARK   17  A    between atoms: C_22  and  O_23
REMARK                            x       y       z     vdW  Elec       q    Type
REMARK                         _______ _______ _______ _____ _____    ______ ____
ROOT
ATOM      1  C   UNL     1       4.974   5.249  18.922  0.00  0.00    +0.000 C 
ENDROOT
BRANCH   1   2
ATOM      2  C   UNL     1       4.152   6.527  19.045  0.00  0.00    +0.000 C 
BRANCH   2   3
ATOM      3  C   UNL     1       2.688   6.270  18.690  0.00  0.00    +0.000 C 
BRANCH   3   4
ATOM      4  C   UNL     1       2.185   5.021  19.360  0.00  0.00    +0.000 A 
ATOM      5  C   UNL     1       2.215   4.915  20.759  0.00  0.00    +0.000 A 
ATOM      6  C   UNL     1       1.845   3.724  21.385  0.00  0.00    +0.000 A 
ATOM      7  C   UNL     1       1.432   2.627  20.623  0.00  0.00    +0.000 A 
ATOM      8  C   UNL     1       1.335   2.723  19.235  0.00  0.00    +0.000 A 
ATOM      9  C   UNL     1       1.765   3.906  18.616  0.00  0.00    +0.000 A 
BRANCH   8  10
ATOM     10  N   UNL     1       1.010   1.586  18.462  0.00  0.00    +0.000 N 
ATOM     11  H   UNL     1       0.008   1.478  18.342  0.00  0.00    +0.000 HD
ATOM     12  H   UNL     1       1.467   1.598  17.554  0.00  0.00    +0.000 HD
ENDBRANCH   8  10
BRANCH   9  13
ATOM     13  O   UNL     1       1.819   3.956  17.241  0.00  0.00    +0.000 OA
ATOM     14  H   UNL     1       0.947   3.636  16.945  0.00  0.00    +0.000 HD
ENDBRANCH   9  13
ENDBRANCH   3   4
ENDBRANCH   2   3
ENDBRANCH   1   2
BRANCH   1  15
ATOM     15  C   UNL     1       6.445   5.577  18.696  0.00  0.00    +0.000 C 
BRANCH  15  16
ATOM     16  C   UNL     1       7.002   4.775  17.525  0.00  0.00    +0.000 C 
BRANCH  16  17
ATOM     17  C   UNL     1       5.909   3.923  16.893  0.00  0.00    +0.000 C 
BRANCH  17  18
ATOM     18  C   UNL     1       5.474   4.517  15.561  0.00  0.00    +0.000 C 
BRANCH  18  19
ATOM     19  C   UNL     1       6.662   5.134  14.837  0.00  0.00    +0.000 C 
BRANCH  19  20
ATOM     20  C   UNL     1       6.804   4.538  13.443  0.00  0.00    +0.000 C 
BRANCH  20  21
ATOM     21  C   UNL     1       5.503   3.876  13.009  0.00  0.00    +0.000 C 
BRANCH  21  22
ATOM     22  C   UNL     1       5.784   2.720  12.055  0.00  0.00    +0.000 C 
BRANCH  22  23
ATOM     23  C   UNL     1       4.569   2.435  11.179  0.00  0.00    +0.000 C 
BRANCH  23  24
ATOM     24  C   UNL     1       3.782   3.715  10.918  0.00  0.00    +0.000 C 
BRANCH  24  26
ATOM     25  C   UNL     1       2.320   4.940   9.288  0.00  0.00    +0.000 C 
ATOM     26  C   UNL     1       3.023   3.631   9.597  0.00  0.00    +0.000 C 
ENDBRANCH  24  26
ENDBRANCH  23  24
ENDBRANCH  22  23
ENDBRANCH  21  22
ENDBRANCH  20  21
ENDBRANCH  19  20
ENDBRANCH  18  19
ENDBRANCH  17  18
ENDBRANCH  16  17
ENDBRANCH  15  16
ENDBRANCH   1  15
TORSDOF 16
ENDMDL
MODEL 5
REMARK VINA RESULT:      -6.1      5.234      7.713
REMARK  Name = 
REMARK  17 active torsions:
REMARK  status: ('A' for Active; 'I' for Inactive)
REMARK    1  A    between atoms: C_1  and  C_2
REMARK    2  A    between atoms: C_2  and  C_3
REMARK    3  A    between atoms: C_3  and  C_4
REMARK    4  A    between atoms: C_4  and  C_5
REMARK    5  A    between atoms: C_5  and  C_6
REMARK    6  A    between atoms: C_6  and  C_7
REMARK    7  A    between atoms: C_7  and  C_8
REMARK    8  A    between atoms: C_8  and  C_9
REMARK    9  A    between atoms: C_9  and  C_10
REMARK   10  A    between atoms: C_10  and  C_11
REMARK   11  A    between atoms: C_11  and  C_12
REMARK   12  A    between atoms: C_12  and  C_13
REMARK   13  A    between atoms: C_13  and  C_14
REMARK   14  A    between atoms: C_14  and  C_15
REMARK   15  A    between atoms: C_15  and  C_16
REMARK   16  A    between atoms: C_20  and  N_21
REMARK   17  A    between atoms: C_22  and  O_23
REMARK                            x       y       z     vdW  Elec       q    Type
REMARK                         _______ _______ _______ _____ _____    ______ ____
ROOT
ATOM      1  C   UNL     1       1.199   2.767  18.278  0.00  0.00    +0.000 C 
ENDROOT
BRANCH   1   2
ATOM      2  C   UNL     1       2.713   2.848  18.125  0.00  0.00    +0.000 C 
BRANCH   2   3
ATOM      3  C   UNL     1       3.117   4.093  17.336  0.00  0.00    +0.000 C 
BRANCH   3   4
ATOM      4  C   UNL     1       4.582   4.386  17.511  0.00  0.00    +0.000 A 
ATOM      5  C   UNL     1       5.090   4.685  18.784  0.00  0.00    +0.000 A 
ATOM      6  C   UNL     1       6.427   5.055  18.941  0.00  0.00    +0.000 A 
ATOM      7  C   UNL     1       7.274   5.122  17.832  0.00  0.00    +0.000 A 
ATOM      8  C   UNL     1       6.812   4.772  16.563  0.00  0.00    +0.000 A 
ATOM      9  C   UNL     1       5.453   4.458  16.411  0.00  0.00    +0.000 A 
BRANCH   8  10
ATOM     10  N   UNL     1       7.642   4.933  15.432  0.00  0.00    +0.000 N 
ATOM     11  H   UNL     1       7.371   5.733  14.867  0.00  0.00    +0.000 HD
ATOM     12  H   UNL     1       8.624   5.006  15.686  0.00  0.00    +0.000 HD
ENDBRANCH   8  10
BRANCH   9  13
ATOM     13  O   UNL     1       4.953   4.262  15.143  0.00  0.00    +0.000 OA
ATOM     14  H   UNL     1       5.699   4.461  14.548  0.00  0.00    +0.000 HD
ENDBRANCH   9  13
ENDBRANCH   3   4
ENDBRANCH   2   3
ENDBRANCH   1   2
BRANCH   1  15
ATOM     15  C   UNL     1       0.792   2.994  19.729  0.00  0.00    +0.000 C 
BRANCH  15  16
ATOM     16  C   UNL     1       2.003   2.895  20.649  0.00  0.00    +0.000 C 
BRANCH  16  17
ATOM     17  C   UNL     1       2.187   4.189  21.431  0.00  0.00    +0.000 C 
BRANCH  17  18
ATOM     18  C   UNL     1       1.562   5.358  20.682  0.00  0.00    +0.000 C 
BRANCH  18  19
ATOM     19  C   UNL     1       2.640   6.299  20.164  0.00  0.00    +0.000 C 
BRANCH  19  20
ATOM     20  C   UNL     1       2.017   7.585  19.640  0.00  0.00    +0.000 C 
BRANCH  20  21
ATOM     21  C   UNL     1       2.423   7.827  18.192  0.00  0.00    +0.000 C 
BRANCH  21  22
ATOM     22  C   UNL     1       1.923   9.186  17.716  0.00  0.00    +0.000 C 
BRANCH  22  23
ATOM     23  C   UNL     1       0.851   9.726  18.655  0.00  0.00    +0.000 C 
BRANCH  23  24
ATOM     24  C   UNL     1      -0.478   9.880  17.923  0.00  0.00    +0.000 C 
BRANCH  24  26
ATOM     25  C   UNL     1      -0.693  11.717  19.619  0.00  0.00    +0.000 C 
ATOM     26  C   UNL     1      -1.444  10.751  18.720  0.00  0.00    +0.000 C 
ENDBRANCH  24  26
ENDBRANCH  23  24
ENDBRANCH  22  23
ENDBRANCH  21  22
ENDBRANCH  20  21
ENDBRANCH  19  20
ENDBRANCH  18  19
ENDBRANCH  17  18
ENDBRANCH  16  17
ENDBRANCH  15  16
ENDBRANCH   1  15
TORSDOF 16
ENDMDL
MODEL 6
REMARK VINA RESULT:      -6.1      5.900      7.541
REMARK  Name = 
REMARK  17 active torsions:
REMARK  status: ('A' for Active; 'I' for Inactive)
REMARK    1  A    between atoms: C_1  and  C_2
REMARK    2  A    between atoms: C_2  and  C_3
REMARK    3  A    between atoms: C_3  and  C_4
REMARK    4  A    between atoms: C_4  and  C_5
REMARK    5  A    between atoms: C_5  and  C_6
REMARK    6  A    between atoms: C_6  and  C_7
REMARK    7  A    between atoms: C_7  and  C_8
REMARK    8  A    between atoms: C_8  and  C_9
REMARK    9  A    between atoms: C_9  and  C_10
REMARK   10  A    between atoms: C_10  and  C_11
REMARK   11  A    between atoms: C_11  and  C_12
REMARK   12  A    between atoms: C_12  and  C_13
REMARK   13  A    between atoms: C_13  and  C_14
REMARK   14  A    between atoms: C_14  and  C_15
REMARK   15  A    between atoms: C_15  and  C_16
REMARK   16  A    between atoms: C_20  and  N_21
REMARK   17  A    between atoms: C_22  and  O_23
REMARK                            x       y       z     vdW  Elec       q    Type
REMARK                         _______ _______ _______ _____ _____    ______ ____
ROOT
ATOM      1  C   UNL     1       2.960   7.868  17.725  0.00  0.00    +0.000 C 
ENDROOT
BRANCH   1   2
ATOM      2  C   UNL     1       2.250   9.066  18.344  0.00  0.00    +0.000 C 
BRANCH   2   3
ATOM      3  C   UNL     1       0.846   9.229  17.762  0.00  0.00    +0.000 C 
BRANCH   3   4
ATOM      4  C   UNL     1       0.031  10.185  18.591  0.00  0.00    +0.000 A 
ATOM      5  C   UNL     1       0.411  10.468  19.911  0.00  0.00    +0.000 A 
ATOM      6  C   UNL     1      -0.391  11.274  20.719  0.00  0.00    +0.000 A 
ATOM      7  C   UNL     1      -1.578  11.815  20.217  0.00  0.00    +0.000 A 
ATOM      8  C   UNL     1      -1.951  11.599  18.890  0.00  0.00    +0.000 A 
ATOM      9  C   UNL     1      -1.165  10.741  18.107  0.00  0.00    +0.000 A 
BRANCH   8  10
ATOM     10  N   UNL     1      -3.196  12.066  18.413  0.00  0.00    +0.000 N 
ATOM     11  H   UNL     1      -3.978  11.604  18.867  0.00  0.00    +0.000 HD
ATOM     12  H   UNL     1      -3.288  13.074  18.510  0.00  0.00    +0.000 HD
ENDBRANCH   8  10
BRANCH   9  13
ATOM     13  O   UNL     1      -1.605  10.399  16.848  0.00  0.00    +0.000 OA
ATOM     14  H   UNL     1      -0.957   9.746  16.526  0.00  0.00    +0.000 HD
ENDBRANCH   9  13
ENDBRANCH   3   4
ENDBRANCH   2   3
ENDBRANCH   1   2
BRANCH   1  15
ATOM     15  C   UNL     1       2.351   6.564  18.229  0.00  0.00    +0.000 C 
BRANCH  15  16
ATOM     16  C   UNL     1       2.836   6.252  19.639  0.00  0.00    +0.000 C 
BRANCH  16  17
ATOM     17  C   UNL     1       1.655   6.005  20.569  0.00  0.00    +0.000 C 
BRANCH  17  18
ATOM     18  C   UNL     1       1.224   4.546  20.506  0.00  0.00    +0.000 C 
BRANCH  18  19
ATOM     19  C   UNL     1       2.373   3.631  20.907  0.00  0.00    +0.000 C 
BRANCH  19  20
ATOM     20  C   UNL     1       2.636   2.600  19.819  0.00  0.00    +0.000 C 
BRANCH  20  21
ATOM     21  C   UNL     1       1.659   2.777  18.664  0.00  0.00    +0.000 C 
BRANCH  21  22
ATOM     22  C   UNL     1       2.411   3.033  17.363  0.00  0.00    +0.000 C 
BRANCH  22  23
ATOM     23  C   UNL     1       3.914   3.091  17.610  0.00  0.00    +0.000 C 
BRANCH  23  24
ATOM     24  C   UNL     1       4.591   4.008  16.597  0.00  0.00    +0.000 C 
BRANCH  24  26
ATOM     25  C   UNL     1       5.716   4.612  18.757  0.00  0.00    +0.000 C 
ATOM     26  C   UNL     1       5.699   4.827  17.255  0.00  0.00    +0.000 C 
ENDBRANCH  24  26
ENDBRANCH  23  24
ENDBRANCH  22  23
ENDBRANCH  21  22
ENDBRANCH  20  21
ENDBRANCH  19  20
ENDBRANCH  18  19
ENDBRANCH  17  18
ENDBRANCH  16  17
ENDBRANCH  15  16
ENDBRANCH   1  15
TORSDOF 16
ENDMDL
MODEL 7
REMARK VINA RESULT:      -6.0      3.941      5.876
REMARK  Name = 
REMARK  17 active torsions:
REMARK  status: ('A' for Active; 'I' for Inactive)
REMARK    1  A    between atoms: C_1  and  C_2
REMARK    2  A    between atoms: C_2  and  C_3
REMARK    3  A    between atoms: C_3  and  C_4
REMARK    4  A    between atoms: C_4  and  C_5
REMARK    5  A    between atoms: C_5  and  C_6
REMARK    6  A    between atoms: C_6  and  C_7
REMARK    7  A    between atoms: C_7  and  C_8
REMARK    8  A    between atoms: C_8  and  C_9
REMARK    9  A    between atoms: C_9  and  C_10
REMARK   10  A    between atoms: C_10  and  C_11
REMARK   11  A    between atoms: C_11  and  C_12
REMARK   12  A    between atoms: C_12  and  C_13
REMARK   13  A    between atoms: C_13  and  C_14
REMARK   14  A    between atoms: C_14  and  C_15
REMARK   15  A    between atoms: C_15  and  C_16
REMARK   16  A    between atoms: C_20  and  N_21
REMARK   17  A    between atoms: C_22  and  O_23
REMARK                            x       y       z     vdW  Elec       q    Type
REMARK                         _______ _______ _______ _____ _____    ______ ____
ROOT
ATOM      1  C   UNL     1       4.181   4.892  16.737  0.00  0.00    +0.000 C 
ENDROOT
BRANCH   1   2
ATOM      2  C   UNL     1       5.012   5.382  15.558  0.00  0.00    +0.000 C 
BRANCH   2   3
ATOM      3  C   UNL     1       6.492   5.059  15.761  0.00  0.00    +0.000 C 
BRANCH   3   4
ATOM      4  C   UNL     1       7.065   5.864  16.896  0.00  0.00    +0.000 A 
ATOM      5  C   UNL     1       7.293   7.238  16.736  0.00  0.00    +0.000 A 
ATOM      6  C   UNL     1       7.915   7.973  17.746  0.00  0.00    +0.000 A 
ATOM      7  C   UNL     1       8.308   7.347  18.932  0.00  0.00    +0.000 A 
ATOM      8  C   UNL     1       8.040   5.994  19.144  0.00  0.00    +0.000 A 
ATOM      9  C   UNL     1       7.467   5.256  18.097  0.00  0.00    +0.000 A 
BRANCH   8  10
ATOM     10  N   UNL     1       8.523   5.343  20.300  0.00  0.00    +0.000 N 
ATOM     11  H   UNL     1       9.466   4.988  20.175  0.00  0.00    +0.000 HD
ATOM     12  H   UNL     1       8.487   5.944  21.119  0.00  0.00    +0.000 HD
ENDBRANCH   8  10
BRANCH   9  13
ATOM     13  O   UNL     1       7.339   3.893  18.237  0.00  0.00    +0.000 OA
ATOM     14  H   UNL     1       7.787   3.685  19.077  0.00  0.00    +0.000 HD
ENDBRANCH   9  13
ENDBRANCH   3   4
ENDBRANCH   2   3
ENDBRANCH   1   2
BRANCH   1  15
ATOM     15  C   UNL     1       4.278   3.376  16.869  0.00  0.00    +0.000 C 
BRANCH  15  16
ATOM     16  C   UNL     1       2.890   2.746  16.877  0.00  0.00    +0.000 C 
BRANCH  16  17
ATOM     17  C   UNL     1       2.131   3.142  18.136  0.00  0.00    +0.000 C 
BRANCH  17  18
ATOM     18  C   UNL     1       2.730   2.456  19.356  0.00  0.00    +0.000 C 
BRANCH  18  19
ATOM     19  C   UNL     1       2.479   3.282  20.611  0.00  0.00    +0.000 C 
BRANCH  19  20
ATOM     20  C   UNL     1       1.146   4.010  20.511  0.00  0.00    +0.000 C 
BRANCH  20  21
ATOM     21  C   UNL     1       1.329   5.501  20.762  0.00  0.00    +0.000 C 
BRANCH  21  22
ATOM     22  C   UNL     1       2.469   6.050  19.912  0.00  0.00    +0.000 C 
BRANCH  22  23
ATOM     23  C   UNL     1       2.261   7.532  19.623  0.00  0.00    +0.000 C 
BRANCH  23  24
ATOM     24  C   UNL     1       2.298   7.798  18.121  0.00  0.00    +0.000 C 
BRANCH  24  26
ATOM     25  C   UNL     1       0.918   9.773  18.821  0.00  0.00    +0.000 C 
ATOM     26  C   UNL     1       1.921   9.243  17.812  0.00  0.00    +0.000 C 
ENDBRANCH  24  26
ENDBRANCH  23  24
ENDBRANCH  22  23
ENDBRANCH  21  22
ENDBRANCH  20  21
ENDBRANCH  19  20
ENDBRANCH  18  19
ENDBRANCH  17  18
ENDBRANCH  16  17
ENDBRANCH  15  16
ENDBRANCH   1  15
TORSDOF 16
ENDMDL
MODEL 8
REMARK VINA RESULT:      -6.0      6.140      8.522
REMARK  Name = 
REMARK  17 active torsions:
REMARK  status: ('A' for Active; 'I' for Inactive)
REMARK    1  A    between atoms: C_1  and  C_2
REMARK    2  A    between atoms: C_2  and  C_3
REMARK    3  A    between atoms: C_3  and  C_4
REMARK    4  A    between atoms: C_4  and  C_5
REMARK    5  A    between atoms: C_5  and  C_6
REMARK    6  A    between atoms: C_6  and  C_7
REMARK    7  A    between atoms: C_7  and  C_8
REMARK    8  A    between atoms: C_8  and  C_9
REMARK    9  A    between atoms: C_9  and  C_10
REMARK   10  A    between atoms: C_10  and  C_11
REMARK   11  A    between atoms: C_11  and  C_12
REMARK   12  A    between atoms: C_12  and  C_13
REMARK   13  A    between atoms: C_13  and  C_14
REMARK   14  A    between atoms: C_14  and  C_15
REMARK   15  A    between atoms: C_15  and  C_16
REMARK   16  A    between atoms: C_20  and  N_21
REMARK   17  A    between atoms: C_22  and  O_23
REMARK                            x       y       z     vdW  Elec       q    Type
REMARK                         _______ _______ _______ _____ _____    ______ ____
ROOT
ATOM      1  C   UNL     1       1.523   8.889  18.769  0.00  0.00    +0.000 C 
ENDROOT
BRANCH   1   2
ATOM      2  C   UNL     1       0.970  10.178  18.174  0.00  0.00    +0.000 C 
BRANCH   2   3
ATOM      3  C   UNL     1      -0.140  10.754  19.053  0.00  0.00    +0.000 C 
BRANCH   3   4
ATOM      4  C   UNL     1      -1.465  10.704  18.343  0.00  0.00    +0.000 A 
ATOM      5  C   UNL     1      -1.629   9.877  17.222  0.00  0.00    +0.000 A 
ATOM      6  C   UNL     1      -2.822   9.898  16.498  0.00  0.00    +0.000 A 
ATOM      7  C   UNL     1      -3.868  10.738  16.889  0.00  0.00    +0.000 A 
ATOM      8  C   UNL     1      -3.755  11.527  18.034  0.00  0.00    +0.000 A 
ATOM      9  C   UNL     1      -2.531  11.538  18.718  0.00  0.00    +0.000 A 
BRANCH   8  10
ATOM     10  N   UNL     1      -4.775  12.444  18.371  0.00  0.00    +0.000 N 
ATOM     11  H   UNL     1      -5.279  12.167  19.209  0.00  0.00    +0.000 HD
ATOM     12  H   UNL     1      -4.417  13.389  18.481  0.00  0.00    +0.000 HD
ENDBRANCH   8  10
BRANCH   9  13
ATOM     13  O   UNL     1      -2.357  12.426  19.756  0.00  0.00    +0.000 OA
ATOM     14  H   UNL     1      -2.236  11.867  20.545  0.00  0.00    +0.000 HD
ENDBRANCH   9  13
ENDBRANCH   3   4
ENDBRANCH   2   3
ENDBRANCH   1   2
BRANCH   1  15
ATOM     15  C   UNL     1       2.560   8.270  17.839  0.00  0.00    +0.000 C 
BRANCH  15  16
ATOM     16  C   UNL     1       2.663   6.767  18.072  0.00  0.00    +0.000 C 
BRANCH  16  17
ATOM     17  C   UNL     1       4.076   6.277  17.782  0.00  0.00    +0.000 C 
BRANCH  17  18
ATOM     18  C   UNL     1       4.675   5.618  19.017  0.00  0.00    +0.000 C 
BRANCH  18  19
ATOM     19  C   UNL     1       5.189   4.224  18.684  0.00  0.00    +0.000 C 
BRANCH  19  20
ATOM     20  C   UNL     1       4.483   3.677  17.451  0.00  0.00    +0.000 C 
BRANCH  20  21
ATOM     21  C   UNL     1       3.617   2.478  17.816  0.00  0.00    +0.000 C 
BRANCH  21  22
ATOM     22  C   UNL     1       2.142   2.802  17.613  0.00  0.00    +0.000 C 
BRANCH  22  23
ATOM     23  C   UNL     1       1.302   2.228  18.749  0.00  0.00    +0.000 C 
BRANCH  23  24
ATOM     24  C   UNL     1       0.852   3.335  19.698  0.00  0.00    +0.000 C 
BRANCH  24  26
ATOM     25  C   UNL     1       2.071   4.903  21.231  0.00  0.00    +0.000 C 
ATOM     26  C   UNL     1       1.797   3.449  20.890  0.00  0.00    +0.000 C 
ENDBRANCH  24  26
ENDBRANCH  23  24
ENDBRANCH  22  23
ENDBRANCH  21  22
ENDBRANCH  20  21
ENDBRANCH  19  20
ENDBRANCH  18  19
ENDBRANCH  17  18
ENDBRANCH  16  17
ENDBRANCH  15  16
ENDBRANCH   1  15
TORSDOF 16
ENDMDL
MODEL 9
REMARK VINA RESULT:      -5.9      5.576      7.384
REMARK  Name = 
REMARK  17 active torsions:
REMARK  status: ('A' for Active; 'I' for Inactive)
REMARK    1  A    between atoms: C_1  and  C_2
REMARK    2  A    between atoms: C_2  and  C_3
REMARK    3  A    between atoms: C_3  and  C_4
REMARK    4  A    between atoms: C_4  and  C_5
REMARK    5  A    between atoms: C_5  and  C_6
REMARK    6  A    between atoms: C_6  and  C_7
REMARK    7  A    between atoms: C_7  and  C_8
REMARK    8  A    between atoms: C_8  and  C_9
REMARK    9  A    between atoms: C_9  and  C_10
REMARK   10  A    between atoms: C_10  and  C_11
REMARK   11  A    between atoms: C_11  and  C_12
REMARK   12  A    between atoms: C_12  and  C_13
REMARK   13  A    between atoms: C_13  and  C_14
REMARK   14  A    between atoms: C_14  and  C_15
REMARK   15  A    between atoms: C_15  and  C_16
REMARK   16  A    between atoms: C_20  and  N_21
REMARK   17  A    between atoms: C_22  and  O_23
REMARK                            x       y       z     vdW  Elec       q    Type
REMARK                         _______ _______ _______ _____ _____    ______ ____
ROOT
ATOM      1  C   UNL     1       3.817   3.385  17.841  0.00  0.00    +0.000 C 
ENDROOT
BRANCH   1   2
ATOM      2  C   UNL     1       4.828   3.329  16.702  0.00  0.00    +0.000 C 
BRANCH   2   3
ATOM      3  C   UNL     1       5.085   4.724  16.132  0.00  0.00    +0.000 C 
BRANCH   3   4
ATOM      4  C   UNL     1       5.812   4.638  14.817  0.00  0.00    +0.000 A 
ATOM      5  C   UNL     1       5.321   3.809  13.798  0.00  0.00    +0.000 A 
ATOM      6  C   UNL     1       6.040   3.647  12.613  0.00  0.00    +0.000 A 
ATOM      7  C   UNL     1       7.252   4.317  12.427  0.00  0.00    +0.000 A 
ATOM      8  C   UNL     1       7.735   5.194  13.399  0.00  0.00    +0.000 A 
ATOM      9  C   UNL     1       7.032   5.303  14.607  0.00  0.00    +0.000 A 
BRANCH   8  10
ATOM     10  N   UNL     1       9.005   5.794  13.251  0.00  0.00    +0.000 N 
ATOM     11  H   UNL     1       8.994   6.554  12.577  0.00  0.00    +0.000 HD
ATOM     12  H   UNL     1       9.376   6.125  14.137  0.00  0.00    +0.000 HD
ENDBRANCH   8  10
BRANCH   9  13
ATOM     13  O   UNL     1       7.578   6.045  15.630  0.00  0.00    +0.000 OA
ATOM     14  H   UNL     1       8.528   5.829  15.615  0.00  0.00    +0.000 HD
ENDBRANCH   9  13
ENDBRANCH   3   4
ENDBRANCH   2   3
ENDBRANCH   1   2
BRANCH   1  15
ATOM     15  C   UNL     1       4.516   3.237  19.188  0.00  0.00    +0.000 C 
BRANCH  15  16
ATOM     16  C   UNL     1       3.627   2.493  20.177  0.00  0.00    +0.000 C 
BRANCH  16  17
ATOM     17  C   UNL     1       2.199   2.410  19.655  0.00  0.00    +0.000 C 
BRANCH  17  18
ATOM     18  C   UNL     1       1.251   3.169  20.572  0.00  0.00    +0.000 C 
BRANCH  18  19
ATOM     19  C   UNL     1       1.073   4.602  20.090  0.00  0.00    +0.000 C 
BRANCH  19  20
ATOM     20  C   UNL     1       2.029   5.533  20.822  0.00  0.00    +0.000 C 
BRANCH  20  21
ATOM     21  C   UNL     1       2.159   6.859  20.083  0.00  0.00    +0.000 C 
BRANCH  21  22
ATOM     22  C   UNL     1       2.734   6.639  18.689  0.00  0.00    +0.000 C 
BRANCH  22  23
ATOM     23  C   UNL     1       2.841   7.959  17.934  0.00  0.00    +0.000 C 
BRANCH  23  24
ATOM     24  C   UNL     1       1.461   8.573  17.724  0.00  0.00    +0.000 C 
BRANCH  24  26
ATOM     25  C   UNL     1      -0.115  10.397  18.419  0.00  0.00    +0.000 C 
ATOM     26  C   UNL     1       1.269   9.803  18.605  0.00  0.00    +0.000 C 
ENDBRANCH  24  26
ENDBRANCH  23  24
ENDBRANCH  22  23
ENDBRANCH  21  22
ENDBRANCH  20  21
ENDBRANCH  19  20
ENDBRANCH  18  19
ENDBRANCH  17  18
ENDBRANCH  16  17
ENDBRANCH  15  16
ENDBRANCH   1  15
TORSDOF 16
ENDMDL
