MODEL 1
REMARK VINA RESULT:      -8.1      0.000      0.000
REMARK  Name = 
REMARK  4 active torsions:
REMARK  status: ('A' for Active; 'I' for Inactive)
REMARK    1  A    between atoms: C_1  and  C_2
REMARK    2  A    between atoms: C_2  and  C_3
REMARK    3  A    between atoms: C_8  and  N_9
REMARK    4  A    between atoms: N_9  and  C_10
REMARK                            x       y       z     vdW  Elec       q    Type
REMARK                         _______ _______ _______ _____ _____    ______ ____
ROOT
ATOM      1  C   UNL     1       1.017   2.524  21.707  0.00  0.00    +0.000 C 
ATOM      2  C   UNL     1       1.852   3.234  20.624  0.00  0.00    +0.000 C 
ATOM      3  C   UNL     1       1.804   4.749  20.902  0.00  0.00    +0.000 C 
ATOM      4  C   UNL     1       3.293   2.705  20.693  0.00  0.00    +0.000 C 
ATOM      5  C   UNL     1       4.183   3.235  19.592  0.00  0.00    +0.000 C 
ATOM      6  O   UNL     1       5.400   3.330  19.767  0.00  0.00    +0.000 OA
ATOM      7  C   UNL     1       3.549   3.558  18.286  0.00  0.00    +0.000 C 
ATOM      8  C   UNL     1       4.293   3.969  17.253  0.00  0.00    +0.000 C 
ATOM      9  C   UNL     1       2.077   3.423  18.087  0.00  0.00    +0.000 C 
ATOM     10  O   UNL     1       1.545   3.654  17.001  0.00  0.00    +0.000 OA
ATOM     11  C   UNL     1       1.250   2.912  19.247  0.00  0.00    +0.000 C 
ENDROOT
BRANCH   8  12
ATOM     12  N   UNL     1       5.656   4.134  17.185  0.00  0.00    +0.000 N 
ATOM     13  H   UNL     1       6.174   3.321  16.841  0.00  0.00    +0.000 HD
BRANCH  12  14
ATOM     14  C   UNL     1       6.393   5.296  17.436  0.00  0.00    +0.000 A 
ATOM     15  C   UNL     1       7.469   5.328  18.334  0.00  0.00    +0.000 A 
ATOM     16  C   UNL     1       8.153   6.513  18.605  0.00  0.00    +0.000 A 
ATOM     17  C   UNL     1       7.766   7.688  17.970  0.00  0.00    +0.000 A 
ATOM     18 CL   UNL     1       8.591   9.155  18.315  0.00  0.00    +0.000 Cl
ATOM     19  C   UNL     1       6.711   7.681  17.060  0.00  0.00    +0.000 A 
ATOM     20  C   UNL     1       6.036   6.487  16.790  0.00  0.00    +0.000 A 
ENDBRANCH  12  14
ENDBRANCH   8  12
TORSDOF 2
ENDMDL
MODEL 2
REMARK VINA RESULT:      -7.8      0.242      1.131
REMARK  Name = 
REMARK  4 active torsions:
REMARK  status: ('A' for Active; 'I' for Inactive)
REMARK    1  A    between atoms: C_1  and  C_2
REMARK    2  A    between atoms: C_2  and  C_3
REMARK    3  A    between atoms: C_8  and  N_9
REMARK    4  A    between atoms: N_9  and  C_10
REMARK                            x       y       z     vdW  Elec       q    Type
REMARK                         _______ _______ _______ _____ _____    ______ ____
ROOT
ATOM      1  C   UNL     1       1.241   2.559  21.645  0.00  0.00    +0.000 C 
ATOM      2  C   UNL     1       2.030   3.268  20.528  0.00  0.00    +0.000 C 
ATOM      3  C   UNL     1       1.834   4.788  20.697  0.00  0.00    +0.000 C 
ATOM      4  C   UNL     1       3.512   2.884  20.657  0.00  0.00    +0.000 C 
ATOM      5  C   UNL     1       4.373   3.419  19.535  0.00  0.00    +0.000 C 
ATOM      6  O   UNL     1       5.571   3.640  19.722  0.00  0.00    +0.000 OA
ATOM      7  C   UNL     1       3.741   3.590  18.199  0.00  0.00    +0.000 C 
ATOM      8  C   UNL     1       4.466   3.997  17.152  0.00  0.00    +0.000 C 
ATOM      9  C   UNL     1       2.292   3.302  17.988  0.00  0.00    +0.000 C 
ATOM     10  O   UNL     1       1.766   3.407  16.880  0.00  0.00    +0.000 OA
ATOM     11  C   UNL     1       1.491   2.797  19.168  0.00  0.00    +0.000 C 
ENDROOT
BRANCH   8  12
ATOM     12  N   UNL     1       5.809   4.284  17.094  0.00  0.00    +0.000 N 
ATOM     13  H   UNL     1       6.395   3.540  16.707  0.00  0.00    +0.000 HD
BRANCH  12  14
ATOM     14  C   UNL     1       6.441   5.492  17.407  0.00  0.00    +0.000 A 
ATOM     15  C   UNL     1       6.058   6.714  16.837  0.00  0.00    +0.000 A 
ATOM     16  C   UNL     1       6.740   7.895  17.129  0.00  0.00    +0.000 A 
ATOM     17  C   UNL     1       7.819   7.866  18.005  0.00  0.00    +0.000 A 
ATOM     18 CL   UNL     1       8.676   9.314  18.352  0.00  0.00    +0.000 Cl
ATOM     19  C   UNL     1       8.209   6.668  18.600  0.00  0.00    +0.000 A 
ATOM     20  C   UNL     1       7.515   5.490  18.306  0.00  0.00    +0.000 A 
ENDBRANCH  12  14
ENDBRANCH   8  12
TORSDOF 2
ENDMDL
MODEL 3
REMARK VINA RESULT:      -7.6      2.342      2.822
REMARK  Name = 
REMARK  4 active torsions:
REMARK  status: ('A' for Active; 'I' for Inactive)
REMARK    1  A    between atoms: C_1  and  C_2
REMARK    2  A    between atoms: C_2  and  C_3
REMARK    3  A    between atoms: C_8  and  N_9
REMARK    4  A    between atoms: N_9  and  C_10
REMARK                            x       y       z     vdW  Elec       q    Type
REMARK                         _______ _______ _______ _____ _____    ______ ____
ROOT
ATOM      1  C   UNL     1       1.102   2.651  22.146  0.00  0.00    +0.000 C 
ATOM      2  C   UNL     1       1.868   3.201  20.927  0.00  0.00    +0.000 C 
ATOM      3  C   UNL     1       2.120   4.703  21.161  0.00  0.00    +0.000 C 
ATOM      4  C   UNL     1       3.191   2.432  20.794  0.00  0.00    +0.000 C 
ATOM      5  C   UNL     1       3.978   2.796  19.556  0.00  0.00    +0.000 C 
ATOM      6  O   UNL     1       5.205   2.681  19.541  0.00  0.00    +0.000 OA
ATOM      7  C   UNL     1       3.214   3.216  18.350  0.00  0.00    +0.000 C 
ATOM      8  C   UNL     1       3.848   3.488  17.205  0.00  0.00    +0.000 C 
ATOM      9  C   UNL     1       1.727   3.335  18.381  0.00  0.00    +0.000 C 
ATOM     10  O   UNL     1       1.081   3.649  17.381  0.00  0.00    +0.000 OA
ATOM     11  C   UNL     1       1.014   2.980  19.668  0.00  0.00    +0.000 C 
ENDROOT
BRANCH   8  12
ATOM     12  N   UNL     1       5.192   3.415  16.926  0.00  0.00    +0.000 N 
ATOM     13  H   UNL     1       5.736   2.829  17.564  0.00  0.00    +0.000 HD
BRANCH  12  14
ATOM     14  C   UNL     1       5.872   3.965  15.833  0.00  0.00    +0.000 A 
ATOM     15  C   UNL     1       5.634   3.555  14.514  0.00  0.00    +0.000 A 
ATOM     16  C   UNL     1       6.363   4.083  13.449  0.00  0.00    +0.000 A 
ATOM     17  C   UNL     1       7.343   5.037  13.694  0.00  0.00    +0.000 A 
ATOM     18 CL   UNL     1       8.258   5.676  12.388  0.00  0.00    +0.000 Cl
ATOM     19  C   UNL     1       7.587   5.475  14.994  0.00  0.00    +0.000 A 
ATOM     20  C   UNL     1       6.846   4.945  16.055  0.00  0.00    +0.000 A 
ENDBRANCH  12  14
ENDBRANCH   8  12
TORSDOF 2
ENDMDL
MODEL 4
REMARK VINA RESULT:      -7.5      2.743      3.202
REMARK  Name = 
REMARK  4 active torsions:
REMARK  status: ('A' for Active; 'I' for Inactive)
REMARK    1  A    between atoms: C_1  and  C_2
REMARK    2  A    between atoms: C_2  and  C_3
REMARK    3  A    between atoms: C_8  and  N_9
REMARK    4  A    between atoms: N_9  and  C_10
REMARK                            x       y       z     vdW  Elec       q    Type
REMARK                         _______ _______ _______ _____ _____    ______ ____
ROOT
ATOM      1  C   UNL     1       1.409   2.599  21.973  0.00  0.00    +0.000 C 
ATOM      2  C   UNL     1       2.066   3.347  20.796  0.00  0.00    +0.000 C 
ATOM      3  C   UNL     1       2.128   4.844  21.159  0.00  0.00    +0.000 C 
ATOM      4  C   UNL     1       3.474   2.772  20.577  0.00  0.00    +0.000 C 
ATOM      5  C   UNL     1       4.175   3.341  19.365  0.00  0.00    +0.000 C 
ATOM      6  O   UNL     1       5.406   3.388  19.323  0.00  0.00    +0.000 OA
ATOM      7  C   UNL     1       3.332   3.759  18.212  0.00  0.00    +0.000 C 
ATOM      8  C   UNL     1       3.897   4.209  17.086  0.00  0.00    +0.000 C 
ATOM      9  C   UNL     1       1.844   3.680  18.274  0.00  0.00    +0.000 C 
ATOM     10  O   UNL     1       1.138   3.991  17.315  0.00  0.00    +0.000 OA
ATOM     11  C   UNL     1       1.216   3.126  19.535  0.00  0.00    +0.000 C 
ENDROOT
BRANCH   8  12
ATOM     12  N   UNL     1       5.231   4.337  16.783  0.00  0.00    +0.000 N 
ATOM     13  H   UNL     1       5.861   4.342  17.590  0.00  0.00    +0.000 HD
BRANCH  12  14
ATOM     14  C   UNL     1       5.823   4.364  15.515  0.00  0.00    +0.000 A 
ATOM     15  C   UNL     1       6.972   5.118  15.236  0.00  0.00    +0.000 A 
ATOM     16  C   UNL     1       7.511   5.167  13.951  0.00  0.00    +0.000 A 
ATOM     17  C   UNL     1       6.903   4.454  12.924  0.00  0.00    +0.000 A 
ATOM     18 CL   UNL     1       7.550   4.527  11.334  0.00  0.00    +0.000 Cl
ATOM     19  C   UNL     1       5.771   3.683  13.179  0.00  0.00    +0.000 A 
ATOM     20  C   UNL     1       5.242   3.634  14.472  0.00  0.00    +0.000 A 
ENDBRANCH  12  14
ENDBRANCH   8  12
TORSDOF 2
ENDMDL
MODEL 5
REMARK VINA RESULT:      -7.1      5.701      7.583
REMARK  Name = 
REMARK  4 active torsions:
REMARK  status: ('A' for Active; 'I' for Inactive)
REMARK    1  A    between atoms: C_1  and  C_2
REMARK    2  A    between atoms: C_2  and  C_3
REMARK    3  A    between atoms: C_8  and  N_9
REMARK    4  A    between atoms: N_9  and  C_10
REMARK                            x       y       z     vdW  Elec       q    Type
REMARK                         _______ _______ _______ _____ _____    ______ ____
ROOT
ATOM      1  C   UNL     1      -1.095  12.732  18.589  0.00  0.00    +0.000 C 
ATOM      2  C   UNL     1      -0.698  11.322  19.065  0.00  0.00    +0.000 C 
ATOM      3  C   UNL     1      -1.746  10.326  18.530  0.00  0.00    +0.000 C 
ATOM      4  C   UNL     1       0.701  10.998  18.520  0.00  0.00    +0.000 C 
ATOM      5  C   UNL     1       1.256   9.685  19.026  0.00  0.00    +0.000 C 
ATOM      6  O   UNL     1       2.073   9.054  18.352  0.00  0.00    +0.000 OA
ATOM      7  C   UNL     1       0.841   9.236  20.382  0.00  0.00    +0.000 C 
ATOM      8  C   UNL     1       1.347   8.117  20.911  0.00  0.00    +0.000 C 
ATOM      9  C   UNL     1      -0.137  10.021  21.190  0.00  0.00    +0.000 C 
ATOM     10  O   UNL     1      -0.463   9.678  22.326  0.00  0.00    +0.000 OA
ATOM     11  C   UNL     1      -0.669  11.310  20.602  0.00  0.00    +0.000 C 
ENDROOT
BRANCH   8  12
ATOM     12  N   UNL     1       2.279   7.258  20.379  0.00  0.00    +0.000 N 
ATOM     13  H   UNL     1       3.242   7.604  20.387  0.00  0.00    +0.000 HD
BRANCH  12  14
ATOM     14  C   UNL     1       2.077   5.949  19.926  0.00  0.00    +0.000 A 
ATOM     15  C   UNL     1       2.360   5.556  18.610  0.00  0.00    +0.000 A 
ATOM     16  C   UNL     1       2.101   4.258  18.171  0.00  0.00    +0.000 A 
ATOM     17  C   UNL     1       1.554   3.332  19.052  0.00  0.00    +0.000 A 
ATOM     18 CL   UNL     1       1.213   1.737  18.510  0.00  0.00    +0.000 Cl
ATOM     19  C   UNL     1       1.280   3.692  20.369  0.00  0.00    +0.000 A 
ATOM     20  C   UNL     1       1.549   4.994  20.802  0.00  0.00    +0.000 A 
ENDBRANCH  12  14
ENDBRANCH   8  12
TORSDOF 2
ENDMDL
MODEL 6
REMARK VINA RESULT:      -7.0      5.693      7.503
REMARK  Name = 
REMARK  4 active torsions:
REMARK  status: ('A' for Active; 'I' for Inactive)
REMARK    1  A    between atoms: C_1  and  C_2
REMARK    2  A    between atoms: C_2  and  C_3
REMARK    3  A    between atoms: C_8  and  N_9
REMARK    4  A    between atoms: N_9  and  C_10
REMARK                            x       y       z     vdW  Elec       q    Type
REMARK                         _______ _______ _______ _____ _____    ______ ____
ROOT
ATOM      1  C   UNL     1      -1.161  12.777  18.753  0.00  0.00    +0.000 C 
ATOM      2  C   UNL     1      -0.753  11.358  19.194  0.00  0.00    +0.000 C 
ATOM      3  C   UNL     1      -1.778  10.366  18.610  0.00  0.00    +0.000 C 
ATOM      4  C   UNL     1       0.660  11.068  18.666  0.00  0.00    +0.000 C 
ATOM      5  C   UNL     1       1.223   9.748  19.142  0.00  0.00    +0.000 C 
ATOM      6  O   UNL     1       2.060   9.149  18.465  0.00  0.00    +0.000 OA
ATOM      7  C   UNL     1       0.789   9.252  20.476  0.00  0.00    +0.000 C 
ATOM      8  C   UNL     1       1.300   8.125  20.980  0.00  0.00    +0.000 C 
ATOM      9  C   UNL     1      -0.215  10.000  21.289  0.00  0.00    +0.000 C 
ATOM     10  O   UNL     1      -0.557   9.618  22.408  0.00  0.00    +0.000 OA
ATOM     11  C   UNL     1      -0.753  11.299  20.730  0.00  0.00    +0.000 C 
ENDROOT
BRANCH   8  12
ATOM     12  N   UNL     1       2.253   7.294  20.441  0.00  0.00    +0.000 N 
ATOM     13  H   UNL     1       3.210   7.653  20.475  0.00  0.00    +0.000 HD
BRANCH  12  14
ATOM     14  C   UNL     1       2.077   5.997  19.946  0.00  0.00    +0.000 A 
ATOM     15  C   UNL     1       1.516   4.966  20.713  0.00  0.00    +0.000 A 
ATOM     16  C   UNL     1       1.400   3.670  20.212  0.00  0.00    +0.000 A 
ATOM     17  C   UNL     1       1.847   3.390  18.925  0.00  0.00    +0.000 A 
ATOM     18 CL   UNL     1       1.727   1.791  18.310  0.00  0.00    +0.000 Cl
ATOM     19  C   UNL     1       2.393   4.400  18.136  0.00  0.00    +0.000 A 
ATOM     20  C   UNL     1       2.498   5.698  18.644  0.00  0.00    +0.000 A 
ENDBRANCH  12  14
ENDBRANCH   8  12
TORSDOF 2
ENDMDL
MODEL 7
REMARK VINA RESULT:      -7.0      3.519      6.029
REMARK  Name = 
REMARK  4 active torsions:
REMARK  status: ('A' for Active; 'I' for Inactive)
REMARK    1  A    between atoms: C_1  and  C_2
REMARK    2  A    between atoms: C_2  and  C_3
REMARK    3  A    between atoms: C_8  and  N_9
REMARK    4  A    between atoms: N_9  and  C_10
REMARK                            x       y       z     vdW  Elec       q    Type
REMARK                         _______ _______ _______ _____ _____    ______ ____
ROOT
ATOM      1  C   UNL     1       6.391   3.845  14.883  0.00  0.00    +0.000 C 
ATOM      2  C   UNL     1       5.793   4.661  16.045  0.00  0.00    +0.000 C 
ATOM      3  C   UNL     1       5.789   6.146  15.631  0.00  0.00    +0.000 C 
ATOM      4  C   UNL     1       4.368   4.158  16.314  0.00  0.00    +0.000 C 
ATOM      5  C   UNL     1       3.719   4.798  17.521  0.00  0.00    +0.000 C 
ATOM      6  O   UNL     1       2.493   4.902  17.587  0.00  0.00    +0.000 OA
ATOM      7  C   UNL     1       4.605   5.219  18.639  0.00  0.00    +0.000 C 
ATOM      8  C   UNL     1       4.087   5.732  19.760  0.00  0.00    +0.000 C 
ATOM      9  C   UNL     1       6.087   5.071  18.549  0.00  0.00    +0.000 C 
ATOM     10  O   UNL     1       6.828   5.384  19.480  0.00  0.00    +0.000 OA
ATOM     11  C   UNL     1       6.662   4.447  17.295  0.00  0.00    +0.000 C 
ENDROOT
BRANCH   8  12
ATOM     12  N   UNL     1       2.766   5.929  20.087  0.00  0.00    +0.000 N 
ATOM     13  H   UNL     1       2.290   5.113  20.479  0.00  0.00    +0.000 HD
BRANCH  12  14
ATOM     14  C   UNL     1       2.040   7.124  20.034  0.00  0.00    +0.000 A 
ATOM     15  C   UNL     1       2.109   8.001  18.943  0.00  0.00    +0.000 A 
ATOM     16  C   UNL     1       1.414   9.210  18.939  0.00  0.00    +0.000 A 
ATOM     17  C   UNL     1       0.632   9.554  20.036  0.00  0.00    +0.000 A 
ATOM     18 CL   UNL     1      -0.210  11.052  20.047  0.00  0.00    +0.000 Cl
ATOM     19  C   UNL     1       0.532   8.692  21.126  0.00  0.00    +0.000 A 
ATOM     20  C   UNL     1       1.227   7.480  21.117  0.00  0.00    +0.000 A 
ENDBRANCH  12  14
ENDBRANCH   8  12
TORSDOF 2
ENDMDL
MODEL 8
REMARK VINA RESULT:      -6.9      4.532      6.353
REMARK  Name = 
REMARK  4 active torsions:
REMARK  status: ('A' for Active; 'I' for Inactive)
REMARK    1  A    between atoms: C_1  and  C_2
REMARK    2  A    between atoms: C_2  and  C_3
REMARK    3  A    between atoms: C_8  and  N_9
REMARK    4  A    between atoms: N_9  and  C_10
REMARK                            x       y       z     vdW  Elec       q    Type
REMARK                         _______ _______ _______ _____ _____    ______ ____
ROOT
ATOM      1  C   UNL     1       3.345   1.796  17.731  0.00  0.00    +0.000 C 
ATOM      2  C   UNL     1       3.310   3.071  18.596  0.00  0.00    +0.000 C 
ATOM      3  C   UNL     1       4.763   3.454  18.938  0.00  0.00    +0.000 C 
ATOM      4  C   UNL     1       2.617   4.185  17.798  0.00  0.00    +0.000 C 
ATOM      5  C   UNL     1       2.409   5.455  18.591  0.00  0.00    +0.000 C 
ATOM      6  O   UNL     1       2.348   6.544  18.017  0.00  0.00    +0.000 OA
ATOM      7  C   UNL     1       2.206   5.328  20.059  0.00  0.00    +0.000 C 
ATOM      8  C   UNL     1       1.952   6.408  20.806  0.00  0.00    +0.000 C 
ATOM      9  C   UNL     1       2.268   3.999  20.735  0.00  0.00    +0.000 C 
ATOM     10  O   UNL     1       2.068   3.877  21.943  0.00  0.00    +0.000 OA
ATOM     11  C   UNL     1       2.509   2.777  19.875  0.00  0.00    +0.000 C 
ENDROOT
BRANCH   8  12
ATOM     12  N   UNL     1       1.813   7.716  20.409  0.00  0.00    +0.000 N 
ATOM     13  H   UNL     1       2.286   7.956  19.534  0.00  0.00    +0.000 HD
BRANCH  12  14
ATOM     14  C   UNL     1       1.035   8.714  21.005  0.00  0.00    +0.000 A 
ATOM     15  C   UNL     1       0.904   8.839  22.395  0.00  0.00    +0.000 A 
ATOM     16  C   UNL     1       0.080   9.812  22.961  0.00  0.00    +0.000 A 
ATOM     17  C   UNL     1      -0.625  10.679  22.134  0.00  0.00    +0.000 A 
ATOM     18 CL   UNL     1      -1.658  11.865  22.825  0.00  0.00    +0.000 Cl
ATOM     19  C   UNL     1      -0.500  10.587  20.750  0.00  0.00    +0.000 A 
ATOM     20  C   UNL     1       0.334   9.614  20.192  0.00  0.00    +0.000 A 
ENDBRANCH  12  14
ENDBRANCH   8  12
TORSDOF 2
ENDMDL
MODEL 9
REMARK VINA RESULT:      -6.9      4.142      5.456
REMARK  Name = 
REMARK  4 active torsions:
REMARK  status: ('A' for Active; 'I' for Inactive)
REMARK    1  A    between atoms: C_1  and  C_2
REMARK    2  A    between atoms: C_2  and  C_3
REMARK    3  A    between atoms: C_8  and  N_9
REMARK    4  A    between atoms: N_9  and  C_10
REMARK                            x       y       z     vdW  Elec       q    Type
REMARK                         _______ _______ _______ _____ _____    ______ ____
ROOT
ATOM      1  C   UNL     1       3.854   1.233  17.893  0.00  0.00    +0.000 C 
ATOM      2  C   UNL     1       3.549   2.400  18.852  0.00  0.00    +0.000 C 
ATOM      3  C   UNL     1       4.497   2.284  20.061  0.00  0.00    +0.000 C 
ATOM      4  C   UNL     1       3.770   3.721  18.100  0.00  0.00    +0.000 C 
ATOM      5  C   UNL     1       3.380   4.943  18.900  0.00  0.00    +0.000 C 
ATOM      6  O   UNL     1       3.925   6.027  18.686  0.00  0.00    +0.000 OA
ATOM      7  C   UNL     1       2.273   4.800  19.884  0.00  0.00    +0.000 C 
ATOM      8  C   UNL     1       1.839   5.859  20.575  0.00  0.00    +0.000 C 
ATOM      9  C   UNL     1       1.613   3.482  20.119  0.00  0.00    +0.000 C 
ATOM     10  O   UNL     1       0.675   3.358  20.906  0.00  0.00    +0.000 OA
ATOM     11  C   UNL     1       2.081   2.300  19.299  0.00  0.00    +0.000 C 
ENDROOT
BRANCH   8  12
ATOM     12  N   UNL     1       2.260   7.165  20.506  0.00  0.00    +0.000 N 
ATOM     13  H   UNL     1       3.237   7.319  20.767  0.00  0.00    +0.000 HD
BRANCH  12  14
ATOM     14  C   UNL     1       1.544   8.273  20.038  0.00  0.00    +0.000 A 
ATOM     15  C   UNL     1       0.608   8.954  20.828  0.00  0.00    +0.000 A 
ATOM     16  C   UNL     1      -0.128  10.023  20.318  0.00  0.00    +0.000 A 
ATOM     17  C   UNL     1       0.069  10.427  19.002  0.00  0.00    +0.000 A 
ATOM     18 CL   UNL     1      -0.850  11.730  18.363  0.00  0.00    +0.000 Cl
ATOM     19  C   UNL     1       1.006   9.778  18.202  0.00  0.00    +0.000 A 
ATOM     20  C   UNL     1       1.745   8.712  18.723  0.00  0.00    +0.000 A 
ENDBRANCH  12  14
ENDBRANCH   8  12
TORSDOF 2
ENDMDL
