MODEL 1
REMARK VINA RESULT:      -8.9      0.000      0.000
REMARK  Name = 
REMARK  3 active torsions:
REMARK  status: ('A' for Active; 'I' for Inactive)
REMARK    1  A    between atoms: C_1  and  O_2
REMARK    2  A    between atoms: O_2  and  C_3
REMARK    3  A    between atoms: C_10  and  C_11
REMARK                            x       y       z     vdW  Elec       q    Type
REMARK                         _______ _______ _______ _____ _____    ______ ____
ROOT
ATOM      1  C   UNL     1       1.218   6.894  20.774  0.00  0.00    +0.000 C 
ATOM      2  C   UNL     1       2.066   6.232  19.973  0.00  0.00    +0.000 C 
ATOM      3  O   UNL     1       3.028   6.937  19.288  0.00  0.00    +0.000 OA
ATOM      4  C   UNL     1       3.704   6.062  18.516  0.00  0.00    +0.000 A 
ATOM      5  C   UNL     1       4.756   6.479  17.748  0.00  0.00    +0.000 A 
ATOM      6  C   UNL     1       5.304   5.563  16.876  0.00  0.00    +0.000 A 
ATOM      7  C   UNL     1       6.365   5.990  16.076  0.00  0.00    +0.000 A 
ATOM      8  C   UNL     1       6.879   5.146  15.105  0.00  0.00    +0.000 A 
ATOM      9  C   UNL     1       6.333   3.875  14.939  0.00  0.00    +0.000 A 
ATOM     10  C   UNL     1       5.300   3.418  15.777  0.00  0.00    +0.000 A 
ATOM     11  C   UNL     1       4.765   4.242  16.781  0.00  0.00    +0.000 A 
ATOM     12  C   UNL     1       3.722   3.833  17.669  0.00  0.00    +0.000 A 
ATOM     13  C   UNL     1       3.211   4.772  18.548  0.00  0.00    +0.000 A 
ATOM     14  C   UNL     1       2.144   4.784  19.571  0.00  0.00    +0.000 C 
ATOM     15  O   UNL     1       1.465   3.852  19.965  0.00  0.00    +0.000 OA
ENDROOT
BRANCH   1  23
ATOM     16  C   UNL     1      -0.671  11.153  19.004  0.00  0.00    +0.000 A 
ATOM     17  C   UNL     1      -1.133  12.436  19.327  0.00  0.00    +0.000 A 
ATOM     18  C   UNL     1      -0.744  13.051  20.520  0.00  0.00    +0.000 A 
ATOM     19  C   UNL     1       0.056  12.367  21.435  0.00  0.00    +0.000 A 
ATOM     20  C   UNL     1       0.493  11.078  21.140  0.00  0.00    +0.000 A 
ATOM     21  O   UNL     1       1.259  10.429  22.084  0.00  0.00    +0.000 OA
ATOM     22  C   UNL     1       1.409   9.063  21.938  0.00  0.00    +0.000 A 
ATOM     23  C   UNL     1       1.197   8.364  20.813  0.00  0.00    +0.000 A 
ATOM     24  C   UNL     1       0.882   9.237  19.623  0.00  0.00    +0.000 A 
ATOM     25  O   UNL     1       1.293   9.000  18.493  0.00  0.00    +0.000 OA
ATOM     26  C   UNL     1       0.171  10.493  19.916  0.00  0.00    +0.000 A 
BRANCH  16  28
ATOM     27  C   UNL     1      -2.453  10.083  17.871  0.00  0.00    +0.000 C 
ATOM     28  O   UNL     1      -1.084  10.487  17.878  0.00  0.00    +0.000 OA
ENDBRANCH  16  28
ENDBRANCH   1  23
TORSDOF 2
ENDMDL
MODEL 2
REMARK VINA RESULT:      -8.8      1.561      2.805
REMARK  Name = 
REMARK  3 active torsions:
REMARK  status: ('A' for Active; 'I' for Inactive)
REMARK    1  A    between atoms: C_1  and  O_2
REMARK    2  A    between atoms: O_2  and  C_3
REMARK    3  A    between atoms: C_10  and  C_11
REMARK                            x       y       z     vdW  Elec       q    Type
REMARK                         _______ _______ _______ _____ _____    ______ ____
ROOT
ATOM      1  C   UNL     1       0.721   8.186  20.961  0.00  0.00    +0.000 C 
ATOM      2  C   UNL     1       1.601   7.451  20.265  0.00  0.00    +0.000 C 
ATOM      3  O   UNL     1       2.184   7.992  19.142  0.00  0.00    +0.000 OA
ATOM      4  C   UNL     1       2.972   7.045  18.595  0.00  0.00    +0.000 A 
ATOM      5  C   UNL     1       3.717   7.316  17.481  0.00  0.00    +0.000 A 
ATOM      6  C   UNL     1       4.382   6.262  16.892  0.00  0.00    +0.000 A 
ATOM      7  C   UNL     1       5.127   6.531  15.743  0.00  0.00    +0.000 A 
ATOM      8  C   UNL     1       5.724   5.492  15.049  0.00  0.00    +0.000 A 
ATOM      9  C   UNL     1       5.577   4.185  15.509  0.00  0.00    +0.000 A 
ATOM     10  C   UNL     1       4.873   3.911  16.695  0.00  0.00    +0.000 A 
ATOM     11  C   UNL     1       4.268   4.944  17.431  0.00  0.00    +0.000 A 
ATOM     12  C   UNL     1       3.548   4.731  18.648  0.00  0.00    +0.000 A 
ATOM     13  C   UNL     1       2.911   5.817  19.225  0.00  0.00    +0.000 A 
ATOM     14  C   UNL     1       2.059   6.026  20.414  0.00  0.00    +0.000 C 
ATOM     15  O   UNL     1       1.767   5.225  21.284  0.00  0.00    +0.000 OA
ENDROOT
BRANCH   1  23
ATOM     16  C   UNL     1       1.593  13.060  20.389  0.00  0.00    +0.000 A 
ATOM     17  C   UNL     1       1.495  14.159  19.526  0.00  0.00    +0.000 A 
ATOM     18  C   UNL     1       0.578  14.153  18.470  0.00  0.00    +0.000 A 
ATOM     19  C   UNL     1      -0.202  13.024  18.225  0.00  0.00    +0.000 A 
ATOM     20  C   UNL     1      -0.088  11.911  19.056  0.00  0.00    +0.000 A 
ATOM     21  O   UNL     1      -0.859  10.808  18.760  0.00  0.00    +0.000 OA
ATOM     22  C   UNL     1      -0.509   9.619  19.369  0.00  0.00    +0.000 A 
ATOM     23  C   UNL     1       0.255   9.490  20.464  0.00  0.00    +0.000 A 
ATOM     24  C   UNL     1       0.627  10.813  21.087  0.00  0.00    +0.000 A 
ATOM     25  O   UNL     1       0.687  10.989  22.298  0.00  0.00    +0.000 OA
ATOM     26  C   UNL     1       0.768  11.946  20.155  0.00  0.00    +0.000 A 
BRANCH  16  28
ATOM     27  C   UNL     1       3.434  14.096  21.458  0.00  0.00    +0.000 C 
ATOM     28  O   UNL     1       2.527  12.996  21.392  0.00  0.00    +0.000 OA
ENDBRANCH  16  28
ENDBRANCH   1  23
TORSDOF 2
ENDMDL
MODEL 3
REMARK VINA RESULT:      -8.3      2.363      3.835
REMARK  Name = 
REMARK  3 active torsions:
REMARK  status: ('A' for Active; 'I' for Inactive)
REMARK    1  A    between atoms: C_1  and  O_2
REMARK    2  A    between atoms: O_2  and  C_3
REMARK    3  A    between atoms: C_10  and  C_11
REMARK                            x       y       z     vdW  Elec       q    Type
REMARK                         _______ _______ _______ _____ _____    ______ ____
ROOT
ATOM      1  C   UNL     1       1.419  10.223  18.782  0.00  0.00    +0.000 C 
ATOM      2  C   UNL     1       1.767   8.929  18.836  0.00  0.00    +0.000 C 
ATOM      3  O   UNL     1       1.370   8.173  19.915  0.00  0.00    +0.000 OA
ATOM      4  C   UNL     1       1.892   6.939  19.763  0.00  0.00    +0.000 A 
ATOM      5  C   UNL     1       1.627   5.953  20.673  0.00  0.00    +0.000 A 
ATOM      6  C   UNL     1       2.309   4.764  20.535  0.00  0.00    +0.000 A 
ATOM      7  C   UNL     1       2.056   3.762  21.474  0.00  0.00    +0.000 A 
ATOM      8  C   UNL     1       2.795   2.591  21.448  0.00  0.00    +0.000 A 
ATOM      9  C   UNL     1       3.782   2.422  20.480  0.00  0.00    +0.000 A 
ATOM     10  C   UNL     1       4.007   3.403  19.498  0.00  0.00    +0.000 A 
ATOM     11  C   UNL     1       3.266   4.597  19.486  0.00  0.00    +0.000 A 
ATOM     12  C   UNL     1       3.441   5.627  18.510  0.00  0.00    +0.000 A 
ATOM     13  C   UNL     1       2.721   6.800  18.667  0.00  0.00    +0.000 A 
ATOM     14  C   UNL     1       2.632   8.084  17.941  0.00  0.00    +0.000 C 
ATOM     15  O   UNL     1       3.164   8.395  16.890  0.00  0.00    +0.000 OA
ENDROOT
BRANCH   1  23
ATOM     16  C   UNL     1      -2.636  12.478  20.603  0.00  0.00    +0.000 A 
ATOM     17  C   UNL     1      -3.485  12.614  21.709  0.00  0.00    +0.000 A 
ATOM     18  C   UNL     1      -3.042  12.277  22.991  0.00  0.00    +0.000 A 
ATOM     19  C   UNL     1      -1.769  11.736  23.174  0.00  0.00    +0.000 A 
ATOM     20  C   UNL     1      -0.928  11.565  22.077  0.00  0.00    +0.000 A 
ATOM     21  O   UNL     1       0.310  11.003  22.301  0.00  0.00    +0.000 OA
ATOM     22  C   UNL     1       0.995  10.537  21.195  0.00  0.00    +0.000 A 
ATOM     23  C   UNL     1       0.759  10.882  19.920  0.00  0.00    +0.000 A 
ATOM     24  C   UNL     1      -0.285  11.962  19.781  0.00  0.00    +0.000 A 
ATOM     25  O   UNL     1      -0.210  12.861  18.951  0.00  0.00    +0.000 OA
ATOM     26  C   UNL     1      -1.340  11.974  20.810  0.00  0.00    +0.000 A 
BRANCH  16  28
ATOM     27  C   UNL     1      -3.820  11.695  18.709  0.00  0.00    +0.000 C 
ATOM     28  O   UNL     1      -3.054  12.731  19.321  0.00  0.00    +0.000 OA
ENDBRANCH  16  28
ENDBRANCH   1  23
TORSDOF 2
ENDMDL
MODEL 4
REMARK VINA RESULT:      -8.0      1.402      2.279
REMARK  Name = 
REMARK  3 active torsions:
REMARK  status: ('A' for Active; 'I' for Inactive)
REMARK    1  A    between atoms: C_1  and  O_2
REMARK    2  A    between atoms: O_2  and  C_3
REMARK    3  A    between atoms: C_10  and  C_11
REMARK                            x       y       z     vdW  Elec       q    Type
REMARK                         _______ _______ _______ _____ _____    ______ ____
ROOT
ATOM      1  C   UNL     1       1.535   7.734  20.447  0.00  0.00    +0.000 C 
ATOM      2  C   UNL     1       2.387   6.982  19.735  0.00  0.00    +0.000 C 
ATOM      3  O   UNL     1       2.945   7.505  18.591  0.00  0.00    +0.000 OA
ATOM      4  C   UNL     1       3.708   6.544  18.032  0.00  0.00    +0.000 A 
ATOM      5  C   UNL     1       4.424   6.796  16.895  0.00  0.00    +0.000 A 
ATOM      6  C   UNL     1       5.062   5.729  16.299  0.00  0.00    +0.000 A 
ATOM      7  C   UNL     1       5.778   5.978  15.127  0.00  0.00    +0.000 A 
ATOM      8  C   UNL     1       6.344   4.925  14.428  0.00  0.00    +0.000 A 
ATOM      9  C   UNL     1       6.196   3.624  14.905  0.00  0.00    +0.000 A 
ATOM     10  C   UNL     1       5.521   3.370  16.113  0.00  0.00    +0.000 A 
ATOM     11  C   UNL     1       4.948   4.417  16.855  0.00  0.00    +0.000 A 
ATOM     12  C   UNL     1       4.260   4.224  18.093  0.00  0.00    +0.000 A 
ATOM     13  C   UNL     1       3.651   5.323  18.675  0.00  0.00    +0.000 A 
ATOM     14  C   UNL     1       2.834   5.554  19.886  0.00  0.00    +0.000 C 
ATOM     15  O   UNL     1       2.558   4.764  20.772  0.00  0.00    +0.000 OA
ENDROOT
BRANCH   1  23
ATOM     16  C   UNL     1       0.035  12.373  21.481  0.00  0.00    +0.000 A 
ATOM     17  C   UNL     1       0.111  13.722  21.111  0.00  0.00    +0.000 A 
ATOM     18  C   UNL     1       0.483  14.083  19.813  0.00  0.00    +0.000 A 
ATOM     19  C   UNL     1       0.848  13.104  18.890  0.00  0.00    +0.000 A 
ATOM     20  C   UNL     1       0.810  11.761  19.256  0.00  0.00    +0.000 A 
ATOM     21  O   UNL     1       1.204  10.830  18.320  0.00  0.00    +0.000 OA
ATOM     22  C   UNL     1       1.477   9.556  18.781  0.00  0.00    +0.000 A 
ATOM     23  C   UNL     1       1.070   9.038  19.950  0.00  0.00    +0.000 A 
ATOM     24  C   UNL     1       0.142   9.951  20.713  0.00  0.00    +0.000 A 
ATOM     25  O   UNL     1      -0.821   9.544  21.351  0.00  0.00    +0.000 OA
ATOM     26  C   UNL     1       0.364  11.396  20.525  0.00  0.00    +0.000 A 
BRANCH  16  28
ATOM     27  C   UNL     1      -1.511  12.428  23.273  0.00  0.00    +0.000 C 
ATOM     28  O   UNL     1      -0.257  11.979  22.762  0.00  0.00    +0.000 OA
ENDBRANCH  16  28
ENDBRANCH   1  23
TORSDOF 2
ENDMDL
MODEL 5
REMARK VINA RESULT:      -8.0      2.618      4.236
REMARK  Name = 
REMARK  3 active torsions:
REMARK  status: ('A' for Active; 'I' for Inactive)
REMARK    1  A    between atoms: C_1  and  O_2
REMARK    2  A    between atoms: O_2  and  C_3
REMARK    3  A    between atoms: C_10  and  C_11
REMARK                            x       y       z     vdW  Elec       q    Type
REMARK                         _______ _______ _______ _____ _____    ______ ____
ROOT
ATOM      1  C   UNL     1       1.136  10.341  19.315  0.00  0.00    +0.000 C 
ATOM      2  C   UNL     1       1.518   9.058  19.238  0.00  0.00    +0.000 C 
ATOM      3  O   UNL     1       1.263   8.219  20.299  0.00  0.00    +0.000 OA
ATOM      4  C   UNL     1       1.792   7.015  20.003  0.00  0.00    +0.000 A 
ATOM      5  C   UNL     1       1.654   5.962  20.865  0.00  0.00    +0.000 A 
ATOM      6  C   UNL     1       2.344   4.806  20.568  0.00  0.00    +0.000 A 
ATOM      7  C   UNL     1       2.221   3.737  21.456  0.00  0.00    +0.000 A 
ATOM      8  C   UNL     1       2.978   2.592  21.266  0.00  0.00    +0.000 A 
ATOM      9  C   UNL     1       3.854   2.520  20.185  0.00  0.00    +0.000 A 
ATOM     10  C   UNL     1       3.944   3.572  19.256  0.00  0.00    +0.000 A 
ATOM     11  C   UNL     1       3.180   4.740  19.411  0.00  0.00    +0.000 A 
ATOM     12  C   UNL     1       3.220   5.839  18.497  0.00  0.00    +0.000 A 
ATOM     13  C   UNL     1       2.496   6.976  18.815  0.00  0.00    +0.000 A 
ATOM     14  C   UNL     1       2.296   8.303  18.195  0.00  0.00    +0.000 C 
ATOM     15  O   UNL     1       2.699   8.701  17.117  0.00  0.00    +0.000 OA
ENDROOT
BRANCH   1  23
ATOM     16  C   UNL     1      -0.235  14.373  21.906  0.00  0.00    +0.000 A 
ATOM     17  C   UNL     1      -1.188  14.920  22.775  0.00  0.00    +0.000 A 
ATOM     18  C   UNL     1      -2.002  14.089  23.551  0.00  0.00    +0.000 A 
ATOM     19  C   UNL     1      -1.920  12.703  23.417  0.00  0.00    +0.000 A 
ATOM     20  C   UNL     1      -1.000  12.148  22.530  0.00  0.00    +0.000 A 
ATOM     21  O   UNL     1      -0.973  10.776  22.410  0.00  0.00    +0.000 OA
ATOM     22  C   UNL     1      -0.310  10.256  21.315  0.00  0.00    +0.000 A 
ATOM     23  C   UNL     1       0.594  10.902  20.563  0.00  0.00    +0.000 A 
ATOM     24  C   UNL     1       0.942  12.269  21.097  0.00  0.00    +0.000 A 
ATOM     25  O   UNL     1       2.077  12.730  21.062  0.00  0.00    +0.000 OA
ATOM     26  C   UNL     1      -0.134  12.973  21.815  0.00  0.00    +0.000 A 
BRANCH  16  28
ATOM     27  C   UNL     1      -0.132  15.663  19.923  0.00  0.00    +0.000 C 
ATOM     28  O   UNL     1       0.533  15.150  21.076  0.00  0.00    +0.000 OA
ENDBRANCH  16  28
ENDBRANCH   1  23
TORSDOF 2
ENDMDL
MODEL 6
REMARK VINA RESULT:      -8.0      2.763      8.412
REMARK  Name = 
REMARK  3 active torsions:
REMARK  status: ('A' for Active; 'I' for Inactive)
REMARK    1  A    between atoms: C_1  and  O_2
REMARK    2  A    between atoms: O_2  and  C_3
REMARK    3  A    between atoms: C_10  and  C_11
REMARK                            x       y       z     vdW  Elec       q    Type
REMARK                         _______ _______ _______ _____ _____    ______ ____
ROOT
ATOM      1  C   UNL     1       0.665   9.143  18.443  0.00  0.00    +0.000 C 
ATOM      2  C   UNL     1       0.737  10.482  18.451  0.00  0.00    +0.000 C 
ATOM      3  O   UNL     1       1.971  11.087  18.380  0.00  0.00    +0.000 OA
ATOM      4  C   UNL     1       1.778  12.418  18.465  0.00  0.00    +0.000 A 
ATOM      5  C   UNL     1       2.835  13.282  18.380  0.00  0.00    +0.000 A 
ATOM      6  C   UNL     1       2.583  14.616  18.623  0.00  0.00    +0.000 A 
ATOM      7  C   UNL     1       3.663  15.498  18.556  0.00  0.00    +0.000 A 
ATOM      8  C   UNL     1       3.488  16.828  18.900  0.00  0.00    +0.000 A 
ATOM      9  C   UNL     1       2.232  17.274  19.305  0.00  0.00    +0.000 A 
ATOM     10  C   UNL     1       1.128  16.403  19.324  0.00  0.00    +0.000 A 
ATOM     11  C   UNL     1       1.267  15.052  18.967  0.00  0.00    +0.000 A 
ATOM     12  C   UNL     1       0.181  14.121  18.957  0.00  0.00    +0.000 A 
ATOM     13  C   UNL     1       0.467  12.793  18.686  0.00  0.00    +0.000 A 
ATOM     14  C   UNL     1      -0.318  11.542  18.615  0.00  0.00    +0.000 C 
ATOM     15  O   UNL     1      -1.524  11.402  18.707  0.00  0.00    +0.000 OA
ENDROOT
BRANCH   1  23
ATOM     16  C   UNL     1       2.832   4.926  19.982  0.00  0.00    +0.000 A 
ATOM     17  C   UNL     1       3.719   3.894  19.651  0.00  0.00    +0.000 A 
ATOM     18  C   UNL     1       4.682   4.078  18.654  0.00  0.00    +0.000 A 
ATOM     19  C   UNL     1       4.725   5.270  17.932  0.00  0.00    +0.000 A 
ATOM     20  C   UNL     1       3.825   6.291  18.229  0.00  0.00    +0.000 A 
ATOM     21  O   UNL     1       3.887   7.440  17.472  0.00  0.00    +0.000 OA
ATOM     22  C   UNL     1       2.805   8.296  17.545  0.00  0.00    +0.000 A 
ATOM     23  C   UNL     1       1.879   8.314  18.516  0.00  0.00    +0.000 A 
ATOM     24  C   UNL     1       2.186   7.362  19.646  0.00  0.00    +0.000 A 
ATOM     25  O   UNL     1       1.966   7.628  20.822  0.00  0.00    +0.000 OA
ATOM     26  C   UNL     1       2.917   6.138  19.275  0.00  0.00    +0.000 A 
BRANCH  16  28
ATOM     27  C   UNL     1       1.562   3.415  21.291  0.00  0.00    +0.000 C 
ATOM     28  O   UNL     1       1.828   4.762  20.903  0.00  0.00    +0.000 OA
ENDBRANCH  16  28
ENDBRANCH   1  23
TORSDOF 2
ENDMDL
MODEL 7
REMARK VINA RESULT:      -7.8      2.795      8.310
REMARK  Name = 
REMARK  3 active torsions:
REMARK  status: ('A' for Active; 'I' for Inactive)
REMARK    1  A    between atoms: C_1  and  O_2
REMARK    2  A    between atoms: O_2  and  C_3
REMARK    3  A    between atoms: C_10  and  C_11
REMARK                            x       y       z     vdW  Elec       q    Type
REMARK                         _______ _______ _______ _____ _____    ______ ____
ROOT
ATOM      1  C   UNL     1       0.959   8.807  18.722  0.00  0.00    +0.000 C 
ATOM      2  C   UNL     1       1.015  10.145  18.670  0.00  0.00    +0.000 C 
ATOM      3  O   UNL     1       2.167  10.750  18.224  0.00  0.00    +0.000 OA
ATOM      4  C   UNL     1       1.993  12.084  18.324  0.00  0.00    +0.000 A 
ATOM      5  C   UNL     1       2.969  12.947  17.908  0.00  0.00    +0.000 A 
ATOM      6  C   UNL     1       2.785  14.287  18.176  0.00  0.00    +0.000 A 
ATOM      7  C   UNL     1       3.788  15.169  17.771  0.00  0.00    +0.000 A 
ATOM      8  C   UNL     1       3.707  16.509  18.112  0.00  0.00    +0.000 A 
ATOM      9  C   UNL     1       2.620  16.964  18.855  0.00  0.00    +0.000 A 
ATOM     10  C   UNL     1       1.579  16.092  19.221  0.00  0.00    +0.000 A 
ATOM     11  C   UNL     1       1.623  14.731  18.879  0.00  0.00    +0.000 A 
ATOM     12  C   UNL     1       0.592  13.797  19.213  0.00  0.00    +0.000 A 
ATOM     13  C   UNL     1       0.800  12.463  18.908  0.00  0.00    +0.000 A 
ATOM     14  C   UNL     1       0.043  11.208  19.106  0.00  0.00    +0.000 C 
ATOM     15  O   UNL     1      -1.082  11.068  19.552  0.00  0.00    +0.000 OA
ENDROOT
BRANCH   1  23
ATOM     16  C   UNL     1       3.022   4.272  18.547  0.00  0.00    +0.000 A 
ATOM     17  C   UNL     1       3.877   3.417  17.840  0.00  0.00    +0.000 A 
ATOM     18  C   UNL     1       4.835   3.937  16.964  0.00  0.00    +0.000 A 
ATOM     19  C   UNL     1       4.905   5.310  16.734  0.00  0.00    +0.000 A 
ATOM     20  C   UNL     1       4.036   6.168  17.406  0.00  0.00    +0.000 A 
ATOM     21  O   UNL     1       4.122   7.515  17.129  0.00  0.00    +0.000 OA
ATOM     22  C   UNL     1       3.065   8.306  17.534  0.00  0.00    +0.000 A 
ATOM     23  C   UNL     1       2.150   7.984  18.460  0.00  0.00    +0.000 A 
ATOM     24  C   UNL     1       2.441   6.674  19.150  0.00  0.00    +0.000 A 
ATOM     25  O   UNL     1       2.240   6.489  20.345  0.00  0.00    +0.000 OA
ATOM     26  C   UNL     1       3.134   5.658  18.338  0.00  0.00    +0.000 A 
BRANCH  16  28
ATOM     27  C   UNL     1       1.066   2.951  18.730  0.00  0.00    +0.000 C 
ATOM     28  O   UNL     1       2.022   3.801  19.361  0.00  0.00    +0.000 OA
ENDBRANCH  16  28
ENDBRANCH   1  23
TORSDOF 2
ENDMDL
MODEL 8
REMARK VINA RESULT:      -7.8      1.672      2.285
REMARK  Name = 
REMARK  3 active torsions:
REMARK  status: ('A' for Active; 'I' for Inactive)
REMARK    1  A    between atoms: C_1  and  O_2
REMARK    2  A    between atoms: O_2  and  C_3
REMARK    3  A    between atoms: C_10  and  C_11
REMARK                            x       y       z     vdW  Elec       q    Type
REMARK                         _______ _______ _______ _____ _____    ______ ____
ROOT
ATOM      1  C   UNL     1       1.129   8.823  20.135  0.00  0.00    +0.000 C 
ATOM      2  C   UNL     1       1.939   7.910  19.578  0.00  0.00    +0.000 C 
ATOM      3  O   UNL     1       2.679   8.258  18.471  0.00  0.00    +0.000 OA
ATOM      4  C   UNL     1       3.355   7.162  18.072  0.00  0.00    +0.000 A 
ATOM      5  C   UNL     1       4.213   7.222  17.009  0.00  0.00    +0.000 A 
ATOM      6  C   UNL     1       4.756   6.035  16.565  0.00  0.00    +0.000 A 
ATOM      7  C   UNL     1       5.616   6.089  15.468  0.00  0.00    +0.000 A 
ATOM      8  C   UNL     1       6.101   4.916  14.913  0.00  0.00    +0.000 A 
ATOM      9  C   UNL     1       5.727   3.691  15.461  0.00  0.00    +0.000 A 
ATOM     10  C   UNL     1       4.903   3.630  16.599  0.00  0.00    +0.000 A 
ATOM     11  C   UNL     1       4.407   4.801  17.196  0.00  0.00    +0.000 A 
ATOM     12  C   UNL     1       3.574   4.804  18.358  0.00  0.00    +0.000 A 
ATOM     13  C   UNL     1       3.065   6.018  18.789  0.00  0.00    +0.000 A 
ATOM     14  C   UNL     1       2.167   6.454  19.879  0.00  0.00    +0.000 C 
ATOM     15  O   UNL     1       1.695   5.785  20.781  0.00  0.00    +0.000 OA
ENDROOT
BRANCH   1  23
ATOM     16  C   UNL     1      -1.414  13.109  20.045  0.00  0.00    +0.000 A 
ATOM     17  C   UNL     1      -1.336  14.496  19.867  0.00  0.00    +0.000 A 
ATOM     18  C   UNL     1      -0.267  15.064  19.169  0.00  0.00    +0.000 A 
ATOM     19  C   UNL     1       0.770  14.259  18.698  0.00  0.00    +0.000 A 
ATOM     20  C   UNL     1       0.721  12.882  18.899  0.00  0.00    +0.000 A 
ATOM     21  O   UNL     1       1.780  12.128  18.441  0.00  0.00    +0.000 OA
ATOM     22  C   UNL     1       1.886  10.838  18.924  0.00  0.00    +0.000 A 
ATOM     23  C   UNL     1       0.902  10.129  19.497  0.00  0.00    +0.000 A 
ATOM     24  C   UNL     1      -0.432  10.835  19.469  0.00  0.00    +0.000 A 
ATOM     25  O   UNL     1      -1.493  10.251  19.281  0.00  0.00    +0.000 OA
ATOM     26  C   UNL     1      -0.383  12.306  19.526  0.00  0.00    +0.000 A 
BRANCH  16  28
ATOM     27  C   UNL     1      -3.736  12.935  20.472  0.00  0.00    +0.000 C 
ATOM     28  O   UNL     1      -2.408  12.518  20.784  0.00  0.00    +0.000 OA
ENDBRANCH  16  28
ENDBRANCH   1  23
TORSDOF 2
ENDMDL
MODEL 9
REMARK VINA RESULT:      -7.7      3.978      6.527
REMARK  Name = 
REMARK  3 active torsions:
REMARK  status: ('A' for Active; 'I' for Inactive)
REMARK    1  A    between atoms: C_1  and  O_2
REMARK    2  A    between atoms: O_2  and  C_3
REMARK    3  A    between atoms: C_10  and  C_11
REMARK                            x       y       z     vdW  Elec       q    Type
REMARK                         _______ _______ _______ _____ _____    ______ ____
ROOT
ATOM      1  C   UNL     1      -1.724  12.066  23.027  0.00  0.00    +0.000 C 
ATOM      2  C   UNL     1      -0.857  11.231  22.437  0.00  0.00    +0.000 C 
ATOM      3  O   UNL     1      -0.605  11.371  21.091  0.00  0.00    +0.000 OA
ATOM      4  C   UNL     1       0.243  10.385  20.731  0.00  0.00    +0.000 A 
ATOM      5  C   UNL     1       0.705  10.299  19.447  0.00  0.00    +0.000 A 
ATOM      6  C   UNL     1       1.448   9.186  19.115  0.00  0.00    +0.000 A 
ATOM      7  C   UNL     1       1.905   9.085  17.800  0.00  0.00    +0.000 A 
ATOM      8  C   UNL     1       2.559   7.937  17.384  0.00  0.00    +0.000 A 
ATOM      9  C   UNL     1       2.758   6.894  18.286  0.00  0.00    +0.000 A 
ATOM     10  C   UNL     1       2.347   7.010  19.626  0.00  0.00    +0.000 A 
ATOM     11  C   UNL     1       1.695   8.166  20.085  0.00  0.00    +0.000 A 
ATOM     12  C   UNL     1       1.262   8.347  21.436  0.00  0.00    +0.000 A 
ATOM     13  C   UNL     1       0.539   9.489  21.739  0.00  0.00    +0.000 A 
ATOM     14  C   UNL     1      -0.109  10.032  22.952  0.00  0.00    +0.000 C 
ATOM     15  O   UNL     1      -0.075   9.591  24.087  0.00  0.00    +0.000 OA
ENDROOT
BRANCH   1  23
ATOM     16  C   UNL     1      -5.788  14.933  22.691  0.00  0.00    +0.000 A 
ATOM     17  C   UNL     1      -6.298  16.174  22.288  0.00  0.00    +0.000 A 
ATOM     18  C   UNL     1      -5.618  16.947  21.342  0.00  0.00    +0.000 A 
ATOM     19  C   UNL     1      -4.390  16.521  20.838  0.00  0.00    +0.000 A 
ATOM     20  C   UNL     1      -3.856  15.305  21.257  0.00  0.00    +0.000 A 
ATOM     21  O   UNL     1      -2.628  14.935  20.754  0.00  0.00    +0.000 OA
ATOM     22  C   UNL     1      -1.964  13.916  21.408  0.00  0.00    +0.000 A 
ATOM     23  C   UNL     1      -2.519  13.022  22.240  0.00  0.00    +0.000 A 
ATOM     24  C   UNL     1      -4.021  13.141  22.323  0.00  0.00    +0.000 A 
ATOM     25  O   UNL     1      -4.765  12.171  22.406  0.00  0.00    +0.000 OA
ATOM     26  C   UNL     1      -4.570  14.496  22.141  0.00  0.00    +0.000 A 
BRANCH  16  28
ATOM     27  C   UNL     1      -7.761  13.865  23.448  0.00  0.00    +0.000 C 
ATOM     28  O   UNL     1      -6.386  14.176  23.667  0.00  0.00    +0.000 OA
ENDBRANCH  16  28
ENDBRANCH   1  23
TORSDOF 2
ENDMDL
