MODEL 1
REMARK VINA RESULT:      -7.5      0.000      0.000
REMARK  Name = 
REMARK  8 active torsions:
REMARK  status: ('A' for Active; 'I' for Inactive)
REMARK    1  A    between atoms: C_1  and  O_2
REMARK    2  A    between atoms: O_2  and  C_3
REMARK    3  A    between atoms: C_3  and  C_4
REMARK    4  A    between atoms: C_3  and  C_20
REMARK    5  A    between atoms: N_6  and  N_7
REMARK    6  A    between atoms: N_7  and  S_8
REMARK    7  A    between atoms: S_8  and  C_11
REMARK    8  A    between atoms: C_14  and  N_15
REMARK                            x       y       z     vdW  Elec       q    Type
REMARK                         _______ _______ _______ _____ _____    ______ ____
ROOT
ATOM      1  N   UNL     1       3.143   5.263  17.553  0.00  0.00    +0.000 NA
ATOM      2  H   UNL     1       2.880   6.093  17.009  0.00  0.00    +0.000 HD
ENDROOT
BRANCH   1   5
ATOM      3  C   UNL     1       5.283   5.178  16.416  0.00  0.00    +0.000 C 
ATOM      4  O   UNL     1       5.218   6.389  16.205  0.00  0.00    +0.000 OA
ATOM      5  N   UNL     1       4.279   4.492  17.072  0.00  0.00    +0.000 N 
ATOM      6  H   UNL     1       4.447   3.573  17.490  0.00  0.00    +0.000 HD
BRANCH   3   7
ATOM      7  C   UNL     1       6.474   4.303  15.968  0.00  0.00    +0.000 C 
BRANCH   7   8
ATOM      8  C   UNL     1       6.636   4.316  14.447  0.00  0.00    +0.000 A 
ATOM      9  C   UNL     1       5.860   3.481  13.623  0.00  0.00    +0.000 A 
ATOM     10  C   UNL     1       6.038   3.466  12.240  0.00  0.00    +0.000 A 
ATOM     11  C   UNL     1       6.988   4.294  11.652  0.00  0.00    +0.000 A 
ATOM     12  C   UNL     1       7.744   5.153  12.445  0.00  0.00    +0.000 A 
ATOM     13  C   UNL     1       7.568   5.171  13.832  0.00  0.00    +0.000 A 
ENDBRANCH   7   8
BRANCH   7  15
ATOM     14  C   UNL     1       7.682   4.679  17.993  0.00  0.00    +0.000 C 
ATOM     15  O   UNL     1       7.695   4.738  16.574  0.00  0.00    +0.000 OA
ENDBRANCH   7  15
ENDBRANCH   3   7
ENDBRANCH   1   5
BRANCH   1  16
ATOM     16  S   UNL     1       2.963   5.437  19.229  0.00  0.00    +0.000 S 
ATOM     17  O   UNL     1       1.955   4.504  19.675  0.00  0.00    +0.000 OA
ATOM     18  O   UNL     1       4.289   5.499  19.803  0.00  0.00    +0.000 OA
BRANCH  16  19
ATOM     19  C   UNL     1       2.247   7.070  19.335  0.00  0.00    +0.000 A 
ATOM     20  C   UNL     1       2.243   7.889  18.197  0.00  0.00    +0.000 A 
ATOM     21  C   UNL     1       1.691   9.171  18.267  0.00  0.00    +0.000 A 
ATOM     22  C   UNL     1       1.134   9.620  19.475  0.00  0.00    +0.000 A 
ATOM     23  C   UNL     1       1.131   8.794  20.609  0.00  0.00    +0.000 A 
ATOM     24  C   UNL     1       1.695   7.516  20.539  0.00  0.00    +0.000 A 
BRANCH  22  25
ATOM     25  N   UNL     1       0.557  10.967  19.554  0.00  0.00    +0.000 N 
ATOM     26  O   UNL     1       0.194  11.501  18.499  0.00  0.00    +0.000 OA
ATOM     27  O   UNL     1       0.478  11.495  20.672  0.00  0.00    +0.000 OA
ENDBRANCH  22  25
ENDBRANCH  16  19
ENDBRANCH   1  16
TORSDOF 7
ENDMDL
MODEL 2
REMARK VINA RESULT:      -7.4      0.753      1.288
REMARK  Name = 
REMARK  8 active torsions:
REMARK  status: ('A' for Active; 'I' for Inactive)
REMARK    1  A    between atoms: C_1  and  O_2
REMARK    2  A    between atoms: O_2  and  C_3
REMARK    3  A    between atoms: C_3  and  C_4
REMARK    4  A    between atoms: C_3  and  C_20
REMARK    5  A    between atoms: N_6  and  N_7
REMARK    6  A    between atoms: N_7  and  S_8
REMARK    7  A    between atoms: S_8  and  C_11
REMARK    8  A    between atoms: C_14  and  N_15
REMARK                            x       y       z     vdW  Elec       q    Type
REMARK                         _______ _______ _______ _____ _____    ______ ____
ROOT
ATOM      1  N   UNL     1       3.323   5.069  17.670  0.00  0.00    +0.000 NA
ATOM      2  H   UNL     1       2.761   5.661  17.047  0.00  0.00    +0.000 HD
ENDROOT
BRANCH   1   5
ATOM      3  C   UNL     1       5.313   5.671  16.422  0.00  0.00    +0.000 C 
ATOM      4  O   UNL     1       4.757   6.698  16.032  0.00  0.00    +0.000 OA
ATOM      5  N   UNL     1       4.677   4.757  17.240  0.00  0.00    +0.000 N 
ATOM      6  H   UNL     1       5.206   4.068  17.781  0.00  0.00    +0.000 HD
BRANCH   3   7
ATOM      7  C   UNL     1       6.760   5.292  16.035  0.00  0.00    +0.000 C 
BRANCH   7   8
ATOM      8  C   UNL     1       6.851   4.855  14.572  0.00  0.00    +0.000 A 
ATOM      9  C   UNL     1       7.763   5.457  13.687  0.00  0.00    +0.000 A 
ATOM     10  C   UNL     1       7.816   5.085  12.344  0.00  0.00    +0.000 A 
ATOM     11  C   UNL     1       6.966   4.095  11.862  0.00  0.00    +0.000 A 
ATOM     12  C   UNL     1       6.077   3.463  12.729  0.00  0.00    +0.000 A 
ATOM     13  C   UNL     1       6.022   3.833  14.076  0.00  0.00    +0.000 A 
ENDBRANCH   7   8
BRANCH   7  15
ATOM     14  C   UNL     1       7.680   6.842  17.601  0.00  0.00    +0.000 C 
ATOM     15  O   UNL     1       7.658   6.383  16.257  0.00  0.00    +0.000 OA
ENDBRANCH   7  15
ENDBRANCH   3   7
ENDBRANCH   1   5
BRANCH   1  16
ATOM     16  S   UNL     1       3.068   5.350  19.323  0.00  0.00    +0.000 S 
ATOM     17  O   UNL     1       2.039   4.448  19.781  0.00  0.00    +0.000 OA
ATOM     18  O   UNL     1       4.367   5.449  19.951  0.00  0.00    +0.000 OA
BRANCH  16  19
ATOM     19  C   UNL     1       2.353   6.987  19.291  0.00  0.00    +0.000 A 
ATOM     20  C   UNL     1       2.383   7.722  18.098  0.00  0.00    +0.000 A 
ATOM     21  C   UNL     1       1.832   9.006  18.060  0.00  0.00    +0.000 A 
ATOM     22  C   UNL     1       1.243   9.541  19.217  0.00  0.00    +0.000 A 
ATOM     23  C   UNL     1       1.206   8.798  20.408  0.00  0.00    +0.000 A 
ATOM     24  C   UNL     1       1.769   7.518  20.444  0.00  0.00    +0.000 A 
BRANCH  22  25
ATOM     25  N   UNL     1       0.667  10.890  19.184  0.00  0.00    +0.000 N 
ATOM     26  O   UNL     1      -0.375  11.087  19.822  0.00  0.00    +0.000 OA
ATOM     27  O   UNL     1       1.252  11.749  18.511  0.00  0.00    +0.000 OA
ENDBRANCH  22  25
ENDBRANCH  16  19
ENDBRANCH   1  16
TORSDOF 7
ENDMDL
MODEL 3
REMARK VINA RESULT:      -7.4      3.087      7.889
REMARK  Name = 
REMARK  8 active torsions:
REMARK  status: ('A' for Active; 'I' for Inactive)
REMARK    1  A    between atoms: C_1  and  O_2
REMARK    2  A    between atoms: O_2  and  C_3
REMARK    3  A    between atoms: C_3  and  C_4
REMARK    4  A    between atoms: C_3  and  C_20
REMARK    5  A    between atoms: N_6  and  N_7
REMARK    6  A    between atoms: N_7  and  S_8
REMARK    7  A    between atoms: S_8  and  C_11
REMARK    8  A    between atoms: C_14  and  N_15
REMARK                            x       y       z     vdW  Elec       q    Type
REMARK                         _______ _______ _______ _____ _____    ______ ____
ROOT
ATOM      1  N   UNL     1       5.962   3.976  18.832  0.00  0.00    +0.000 NA
ATOM      2  H   UNL     1       6.380   3.131  19.238  0.00  0.00    +0.000 HD
ENDROOT
BRANCH   1   5
ATOM      3  C   UNL     1       3.609   4.316  19.309  0.00  0.00    +0.000 C 
ATOM      4  O   UNL     1       3.313   3.537  18.403  0.00  0.00    +0.000 OA
ATOM      5  N   UNL     1       4.921   4.634  19.606  0.00  0.00    +0.000 N 
ATOM      6  H   UNL     1       5.180   5.044  20.508  0.00  0.00    +0.000 HD
BRANCH   3   7
ATOM      7  C   UNL     1       2.560   5.024  20.195  0.00  0.00    +0.000 C 
BRANCH   7   8
ATOM      8  C   UNL     1       2.268   6.440  19.693  0.00  0.00    +0.000 A 
ATOM      9  C   UNL     1       1.672   7.401  20.528  0.00  0.00    +0.000 A 
ATOM     10  C   UNL     1       1.371   8.678  20.056  0.00  0.00    +0.000 A 
ATOM     11  C   UNL     1       1.670   9.023  18.742  0.00  0.00    +0.000 A 
ATOM     12  C   UNL     1       2.290   8.096  17.907  0.00  0.00    +0.000 A 
ATOM     13  C   UNL     1       2.594   6.815  18.377  0.00  0.00    +0.000 A 
ENDBRANCH   7   8
BRANCH   7  15
ATOM     14  C   UNL     1       1.327   3.261  21.231  0.00  0.00    +0.000 C 
ATOM     15  O   UNL     1       1.337   4.282  20.243  0.00  0.00    +0.000 OA
ENDBRANCH   7  15
ENDBRANCH   3   7
ENDBRANCH   1   5
BRANCH   1  16
ATOM     16  S   UNL     1       7.053   4.959  17.984  0.00  0.00    +0.000 S 
ATOM     17  O   UNL     1       6.650   6.335  18.158  0.00  0.00    +0.000 OA
ATOM     18  O   UNL     1       8.386   4.485  18.282  0.00  0.00    +0.000 OA
BRANCH  16  19
ATOM     19  C   UNL     1       6.680   4.515  16.294  0.00  0.00    +0.000 A 
ATOM     20  C   UNL     1       5.641   3.608  16.039  0.00  0.00    +0.000 A 
ATOM     21  C   UNL     1       5.343   3.247  14.723  0.00  0.00    +0.000 A 
ATOM     22  C   UNL     1       6.081   3.808  13.667  0.00  0.00    +0.000 A 
ATOM     23  C   UNL     1       7.114   4.722  13.926  0.00  0.00    +0.000 A 
ATOM     24  C   UNL     1       7.417   5.072  15.245  0.00  0.00    +0.000 A 
BRANCH  22  25
ATOM     25  N   UNL     1       5.774   3.428  12.283  0.00  0.00    +0.000 N 
ATOM     26  O   UNL     1       4.617   3.600  11.882  0.00  0.00    +0.000 OA
ATOM     27  O   UNL     1       6.690   2.948  11.602  0.00  0.00    +0.000 OA
ENDBRANCH  22  25
ENDBRANCH  16  19
ENDBRANCH   1  16
TORSDOF 7
ENDMDL
MODEL 4
REMARK VINA RESULT:      -7.4      2.883      7.642
REMARK  Name = 
REMARK  8 active torsions:
REMARK  status: ('A' for Active; 'I' for Inactive)
REMARK    1  A    between atoms: C_1  and  O_2
REMARK    2  A    between atoms: O_2  and  C_3
REMARK    3  A    between atoms: C_3  and  C_4
REMARK    4  A    between atoms: C_3  and  C_20
REMARK    5  A    between atoms: N_6  and  N_7
REMARK    6  A    between atoms: N_7  and  S_8
REMARK    7  A    between atoms: S_8  and  C_11
REMARK    8  A    between atoms: C_14  and  N_15
REMARK                            x       y       z     vdW  Elec       q    Type
REMARK                         _______ _______ _______ _____ _____    ______ ____
ROOT
ATOM      1  N   UNL     1       6.120   6.224  18.535  0.00  0.00    +0.000 NA
ATOM      2  H   UNL     1       6.521   6.948  17.927  0.00  0.00    +0.000 HD
ENDROOT
BRANCH   1   5
ATOM      3  C   UNL     1       3.874   6.669  17.737  0.00  0.00    +0.000 C 
ATOM      4  O   UNL     1       4.327   6.973  16.633  0.00  0.00    +0.000 OA
ATOM      5  N   UNL     1       4.690   6.294  18.787  0.00  0.00    +0.000 N 
ATOM      6  H   UNL     1       4.319   5.783  19.594  0.00  0.00    +0.000 HD
BRANCH   3   7
ATOM      7  C   UNL     1       2.365   6.685  18.067  0.00  0.00    +0.000 C 
BRANCH   7   8
ATOM      8  C   UNL     1       1.917   5.365  18.697  0.00  0.00    +0.000 A 
ATOM      9  C   UNL     1       1.685   4.223  17.910  0.00  0.00    +0.000 A 
ATOM     10  C   UNL     1       1.237   3.032  18.482  0.00  0.00    +0.000 A 
ATOM     11  C   UNL     1       1.024   2.957  19.855  0.00  0.00    +0.000 A 
ATOM     12  C   UNL     1       1.279   4.067  20.657  0.00  0.00    +0.000 A 
ATOM     13  C   UNL     1       1.728   5.262  20.087  0.00  0.00    +0.000 A 
ENDBRANCH   7   8
BRANCH   7  15
ATOM     14  C   UNL     1       1.946   9.023  18.306  0.00  0.00    +0.000 C 
ATOM     15  O   UNL     1       2.040   7.762  18.952  0.00  0.00    +0.000 OA
ENDBRANCH   7  15
ENDBRANCH   3   7
ENDBRANCH   1   5
BRANCH   1  16
ATOM     16  S   UNL     1       6.812   4.688  18.347  0.00  0.00    +0.000 S 
ATOM     17  O   UNL     1       8.229   4.796  18.603  0.00  0.00    +0.000 OA
ATOM     18  O   UNL     1       5.958   3.741  19.029  0.00  0.00    +0.000 OA
BRANCH  16  19
ATOM     19  C   UNL     1       6.616   4.430  16.590  0.00  0.00    +0.000 A 
ATOM     20  C   UNL     1       5.549   3.647  16.129  0.00  0.00    +0.000 A 
ATOM     21  C   UNL     1       5.387   3.433  14.758  0.00  0.00    +0.000 A 
ATOM     22  C   UNL     1       6.290   4.016  13.855  0.00  0.00    +0.000 A 
ATOM     23  C   UNL     1       7.352   4.808  14.319  0.00  0.00    +0.000 A 
ATOM     24  C   UNL     1       7.517   5.010  15.693  0.00  0.00    +0.000 A 
BRANCH  22  25
ATOM     25  N   UNL     1       6.126   3.790  12.414  0.00  0.00    +0.000 N 
ATOM     26  O   UNL     1       5.018   3.416  12.012  0.00  0.00    +0.000 OA
ATOM     27  O   UNL     1       7.111   3.977  11.686  0.00  0.00    +0.000 OA
ENDBRANCH  22  25
ENDBRANCH  16  19
ENDBRANCH   1  16
TORSDOF 7
ENDMDL
MODEL 5
REMARK VINA RESULT:      -7.4      2.879      7.656
REMARK  Name = 
REMARK  8 active torsions:
REMARK  status: ('A' for Active; 'I' for Inactive)
REMARK    1  A    between atoms: C_1  and  O_2
REMARK    2  A    between atoms: O_2  and  C_3
REMARK    3  A    between atoms: C_3  and  C_4
REMARK    4  A    between atoms: C_3  and  C_20
REMARK    5  A    between atoms: N_6  and  N_7
REMARK    6  A    between atoms: N_7  and  S_8
REMARK    7  A    between atoms: S_8  and  C_11
REMARK    8  A    between atoms: C_14  and  N_15
REMARK                            x       y       z     vdW  Elec       q    Type
REMARK                         _______ _______ _______ _____ _____    ______ ____
ROOT
ATOM      1  N   UNL     1       6.133   6.242  18.498  0.00  0.00    +0.000 NA
ATOM      2  H   UNL     1       6.510   6.931  17.836  0.00  0.00    +0.000 HD
ENDROOT
BRANCH   1   5
ATOM      3  C   UNL     1       3.847   6.688  17.824  0.00  0.00    +0.000 C 
ATOM      4  O   UNL     1       4.230   6.918  16.677  0.00  0.00    +0.000 OA
ATOM      5  N   UNL     1       4.724   6.356  18.839  0.00  0.00    +0.000 N 
ATOM      6  H   UNL     1       4.399   5.901  19.696  0.00  0.00    +0.000 HD
BRANCH   3   7
ATOM      7  C   UNL     1       2.364   6.755  18.251  0.00  0.00    +0.000 C 
BRANCH   7   8
ATOM      8  C   UNL     1       1.875   5.409  18.788  0.00  0.00    +0.000 A 
ATOM      9  C   UNL     1       1.624   5.217  20.158  0.00  0.00    +0.000 A 
ATOM     10  C   UNL     1       1.217   3.977  20.649  0.00  0.00    +0.000 A 
ATOM     11  C   UNL     1       1.042   2.907  19.778  0.00  0.00    +0.000 A 
ATOM     12  C   UNL     1       1.254   3.083  18.413  0.00  0.00    +0.000 A 
ATOM     13  C   UNL     1       1.662   4.325  17.917  0.00  0.00    +0.000 A 
ENDBRANCH   7   8
BRANCH   7  15
ATOM     14  C   UNL     1       1.578   8.955  18.744  0.00  0.00    +0.000 C 
ATOM     15  O   UNL     1       2.157   7.761  19.248  0.00  0.00    +0.000 OA
ENDBRANCH   7  15
ENDBRANCH   3   7
ENDBRANCH   1   5
BRANCH   1  16
ATOM     16  S   UNL     1       6.778   4.683  18.329  0.00  0.00    +0.000 S 
ATOM     17  O   UNL     1       8.198   4.751  18.579  0.00  0.00    +0.000 OA
ATOM     18  O   UNL     1       5.897   3.772  19.028  0.00  0.00    +0.000 OA
BRANCH  16  19
ATOM     19  C   UNL     1       6.568   4.406  16.576  0.00  0.00    +0.000 A 
ATOM     20  C   UNL     1       7.494   4.960  15.682  0.00  0.00    +0.000 A 
ATOM     21  C   UNL     1       7.339   4.757  14.308  0.00  0.00    +0.000 A 
ATOM     22  C   UNL     1       6.261   3.988  13.840  0.00  0.00    +0.000 A 
ATOM     23  C   UNL     1       5.341   3.427  14.739  0.00  0.00    +0.000 A 
ATOM     24  C   UNL     1       5.493   3.643  16.112  0.00  0.00    +0.000 A 
BRANCH  22  25
ATOM     25  N   UNL     1       6.091   3.775  12.398  0.00  0.00    +0.000 N 
ATOM     26  O   UNL     1       4.978   3.416  11.996  0.00  0.00    +0.000 OA
ATOM     27  O   UNL     1       7.076   3.958  11.669  0.00  0.00    +0.000 OA
ENDBRANCH  22  25
ENDBRANCH  16  19
ENDBRANCH   1  16
TORSDOF 7
ENDMDL
MODEL 6
REMARK VINA RESULT:      -7.4      0.280      1.398
REMARK  Name = 
REMARK  8 active torsions:
REMARK  status: ('A' for Active; 'I' for Inactive)
REMARK    1  A    between atoms: C_1  and  O_2
REMARK    2  A    between atoms: O_2  and  C_3
REMARK    3  A    between atoms: C_3  and  C_4
REMARK    4  A    between atoms: C_3  and  C_20
REMARK    5  A    between atoms: N_6  and  N_7
REMARK    6  A    between atoms: N_7  and  S_8
REMARK    7  A    between atoms: S_8  and  C_11
REMARK    8  A    between atoms: C_14  and  N_15
REMARK                            x       y       z     vdW  Elec       q    Type
REMARK                         _______ _______ _______ _____ _____    ______ ____
ROOT
ATOM      1  N   UNL     1       3.039   4.893  17.582  0.00  0.00    +0.000 NA
ATOM      2  H   UNL     1       2.685   5.667  17.007  0.00  0.00    +0.000 HD
ENDROOT
BRANCH   1   5
ATOM      3  C   UNL     1       5.175   5.013  16.441  0.00  0.00    +0.000 C 
ATOM      4  O   UNL     1       4.965   6.195  16.172  0.00  0.00    +0.000 OA
ATOM      5  N   UNL     1       4.260   4.243  17.133  0.00  0.00    +0.000 N 
ATOM      6  H   UNL     1       4.536   3.371  17.593  0.00  0.00    +0.000 HD
BRANCH   3   7
ATOM      7  C   UNL     1       6.463   4.266  16.028  0.00  0.00    +0.000 C 
BRANCH   7   8
ATOM      8  C   UNL     1       6.651   4.271  14.510  0.00  0.00    +0.000 A 
ATOM      9  C   UNL     1       7.573   5.135  13.892  0.00  0.00    +0.000 A 
ATOM     10  C   UNL     1       7.713   5.166  12.505  0.00  0.00    +0.000 A 
ATOM     11  C   UNL     1       6.941   4.326  11.709  0.00  0.00    +0.000 A 
ATOM     12  C   UNL     1       6.046   3.440  12.302  0.00  0.00    +0.000 A 
ATOM     13  C   UNL     1       5.903   3.405  13.692  0.00  0.00    +0.000 A 
ENDBRANCH   7   8
BRANCH   7  15
ATOM     14  C   UNL     1       7.625   4.729  18.062  0.00  0.00    +0.000 C 
ATOM     15  O   UNL     1       7.617   4.844  16.646  0.00  0.00    +0.000 OA
ENDBRANCH   7  15
ENDBRANCH   3   7
ENDBRANCH   1   5
BRANCH   1  16
ATOM     16  S   UNL     1       2.828   5.105  19.250  0.00  0.00    +0.000 S 
ATOM     17  O   UNL     1       1.750   4.248  19.682  0.00  0.00    +0.000 OA
ATOM     18  O   UNL     1       4.141   5.090  19.858  0.00  0.00    +0.000 OA
BRANCH  16  19
ATOM     19  C   UNL     1       2.218   6.784  19.314  0.00  0.00    +0.000 A 
ATOM     20  C   UNL     1       1.754   7.296  20.533  0.00  0.00    +0.000 A 
ATOM     21  C   UNL     1       1.269   8.605  20.596  0.00  0.00    +0.000 A 
ATOM     22  C   UNL     1       1.264   9.398  19.437  0.00  0.00    +0.000 A 
ATOM     23  C   UNL     1       1.739   8.884  18.220  0.00  0.00    +0.000 A 
ATOM     24  C   UNL     1       2.212   7.570  18.158  0.00  0.00    +0.000 A 
BRANCH  22  25
ATOM     25  N   UNL     1       0.752  10.772  19.496  0.00  0.00    +0.000 N 
ATOM     26  O   UNL     1       0.028  11.157  18.570  0.00  0.00    +0.000 OA
ATOM     27  O   UNL     1       1.084  11.468  20.465  0.00  0.00    +0.000 OA
ENDBRANCH  22  25
ENDBRANCH  16  19
ENDBRANCH   1  16
TORSDOF 7
ENDMDL
MODEL 7
REMARK VINA RESULT:      -7.3      1.812      2.530
REMARK  Name = 
REMARK  8 active torsions:
REMARK  status: ('A' for Active; 'I' for Inactive)
REMARK    1  A    between atoms: C_1  and  O_2
REMARK    2  A    between atoms: O_2  and  C_3
REMARK    3  A    between atoms: C_3  and  C_4
REMARK    4  A    between atoms: C_3  and  C_20
REMARK    5  A    between atoms: N_6  and  N_7
REMARK    6  A    between atoms: N_7  and  S_8
REMARK    7  A    between atoms: S_8  and  C_11
REMARK    8  A    between atoms: C_14  and  N_15
REMARK                            x       y       z     vdW  Elec       q    Type
REMARK                         _______ _______ _______ _____ _____    ______ ____
ROOT
ATOM      1  N   UNL     1       3.777   3.102  17.517  0.00  0.00    +0.000 NA
ATOM      2  H   UNL     1       3.015   3.602  17.044  0.00  0.00    +0.000 HD
ENDROOT
BRANCH   1   5
ATOM      3  C   UNL     1       5.380   4.534  16.395  0.00  0.00    +0.000 C 
ATOM      4  O   UNL     1       4.504   5.382  16.227  0.00  0.00    +0.000 OA
ATOM      5  N   UNL     1       5.124   3.327  17.018  0.00  0.00    +0.000 N 
ATOM      6  H   UNL     1       5.881   2.755  17.403  0.00  0.00    +0.000 HD
BRANCH   3   7
ATOM      7  C   UNL     1       6.839   4.719  15.924  0.00  0.00    +0.000 C 
BRANCH   7   8
ATOM      8  C   UNL     1       6.959   4.578  14.406  0.00  0.00    +0.000 A 
ATOM      9  C   UNL     1       7.843   5.384  13.666  0.00  0.00    +0.000 A 
ATOM     10  C   UNL     1       7.920   5.281  12.277  0.00  0.00    +0.000 A 
ATOM     11  C   UNL     1       7.124   4.362  11.602  0.00  0.00    +0.000 A 
ATOM     12  C   UNL     1       6.266   3.531  12.318  0.00  0.00    +0.000 A 
ATOM     13  C   UNL     1       6.186   3.631  13.710  0.00  0.00    +0.000 A 
ENDBRANCH   7   8
BRANCH   7  15
ATOM     14  C   UNL     1       7.417   6.174  17.727  0.00  0.00    +0.000 C 
ATOM     15  O   UNL     1       7.354   5.994  16.320  0.00  0.00    +0.000 OA
ENDBRANCH   7  15
ENDBRANCH   3   7
ENDBRANCH   1   5
BRANCH   1  16
ATOM     16  S   UNL     1       3.576   2.939  19.192  0.00  0.00    +0.000 S 
ATOM     17  O   UNL     1       2.518   1.986  19.430  0.00  0.00    +0.000 OA
ATOM     18  O   UNL     1       4.893   2.817  19.777  0.00  0.00    +0.000 OA
BRANCH  16  19
ATOM     19  C   UNL     1       2.935   4.550  19.624  0.00  0.00    +0.000 A 
ATOM     20  C   UNL     1       1.885   4.642  20.548  0.00  0.00    +0.000 A 
ATOM     21  C   UNL     1       1.370   5.895  20.890  0.00  0.00    +0.000 A 
ATOM     22  C   UNL     1       1.921   7.051  20.313  0.00  0.00    +0.000 A 
ATOM     23  C   UNL     1       2.979   6.955  19.396  0.00  0.00    +0.000 A 
ATOM     24  C   UNL     1       3.483   5.699  19.047  0.00  0.00    +0.000 A 
BRANCH  22  25
ATOM     25  N   UNL     1       1.381   8.369  20.667  0.00  0.00    +0.000 N 
ATOM     26  O   UNL     1       1.487   8.738  21.843  0.00  0.00    +0.000 OA
ATOM     27  O   UNL     1       0.841   9.029  19.769  0.00  0.00    +0.000 OA
ENDBRANCH  22  25
ENDBRANCH  16  19
ENDBRANCH   1  16
TORSDOF 7
ENDMDL
MODEL 8
REMARK VINA RESULT:      -7.3      0.311      1.159
REMARK  Name = 
REMARK  8 active torsions:
REMARK  status: ('A' for Active; 'I' for Inactive)
REMARK    1  A    between atoms: C_1  and  O_2
REMARK    2  A    between atoms: O_2  and  C_3
REMARK    3  A    between atoms: C_3  and  C_4
REMARK    4  A    between atoms: C_3  and  C_20
REMARK    5  A    between atoms: N_6  and  N_7
REMARK    6  A    between atoms: N_7  and  S_8
REMARK    7  A    between atoms: S_8  and  C_11
REMARK    8  A    between atoms: C_14  and  N_15
REMARK                            x       y       z     vdW  Elec       q    Type
REMARK                         _______ _______ _______ _____ _____    ______ ____
ROOT
ATOM      1  N   UNL     1       3.047   5.101  17.584  0.00  0.00    +0.000 NA
ATOM      2  H   UNL     1       2.722   5.861  16.976  0.00  0.00    +0.000 HD
ENDROOT
BRANCH   1   5
ATOM      3  C   UNL     1       5.152   4.997  16.385  0.00  0.00    +0.000 C 
ATOM      4  O   UNL     1       5.042   6.186  16.089  0.00  0.00    +0.000 OA
ATOM      5  N   UNL     1       4.192   4.331  17.122  0.00  0.00    +0.000 N 
ATOM      6  H   UNL     1       4.402   3.450  17.599  0.00  0.00    +0.000 HD
BRANCH   3   7
ATOM      7  C   UNL     1       6.355   4.126  15.960  0.00  0.00    +0.000 C 
BRANCH   7   8
ATOM      8  C   UNL     1       6.599   4.206  14.452  0.00  0.00    +0.000 A 
ATOM      9  C   UNL     1       5.930   3.351  13.559  0.00  0.00    +0.000 A 
ATOM     10  C   UNL     1       6.184   3.399  12.188  0.00  0.00    +0.000 A 
ATOM     11  C   UNL     1       7.104   4.311  11.683  0.00  0.00    +0.000 A 
ATOM     12  C   UNL     1       7.753   5.191  12.546  0.00  0.00    +0.000 A 
ATOM     13  C   UNL     1       7.501   5.146  13.921  0.00  0.00    +0.000 A 
ENDBRANCH   7   8
BRANCH   7  15
ATOM     14  C   UNL     1       7.314   5.000  17.965  0.00  0.00    +0.000 C 
ATOM     15  O   UNL     1       7.547   4.517  16.650  0.00  0.00    +0.000 OA
ENDBRANCH   7  15
ENDBRANCH   3   7
ENDBRANCH   1   5
BRANCH   1  16
ATOM     16  S   UNL     1       2.941   5.434  19.243  0.00  0.00    +0.000 S 
ATOM     17  O   UNL     1       1.957   4.550  19.820  0.00  0.00    +0.000 OA
ATOM     18  O   UNL     1       4.291   5.550  19.749  0.00  0.00    +0.000 OA
BRANCH  16  19
ATOM     19  C   UNL     1       2.225   7.071  19.224  0.00  0.00    +0.000 A 
ATOM     20  C   UNL     1       1.733   7.615  20.418  0.00  0.00    +0.000 A 
ATOM     21  C   UNL     1       1.165   8.892  20.417  0.00  0.00    +0.000 A 
ATOM     22  C   UNL     1       1.106   9.622  19.219  0.00  0.00    +0.000 A 
ATOM     23  C   UNL     1       1.609   9.078  18.027  0.00  0.00    +0.000 A 
ATOM     24  C   UNL     1       2.165   7.795  18.030  0.00  0.00    +0.000 A 
BRANCH  22  25
ATOM     25  N   UNL     1       0.507  10.962  19.211  0.00  0.00    +0.000 N 
ATOM     26  O   UNL     1       0.972  11.805  19.988  0.00  0.00    +0.000 OA
ATOM     27  O   UNL     1      -0.437  11.166  18.435  0.00  0.00    +0.000 OA
ENDBRANCH  22  25
ENDBRANCH  16  19
ENDBRANCH   1  16
TORSDOF 7
ENDMDL
MODEL 9
REMARK VINA RESULT:      -7.3      4.001      5.941
REMARK  Name = 
REMARK  8 active torsions:
REMARK  status: ('A' for Active; 'I' for Inactive)
REMARK    1  A    between atoms: C_1  and  O_2
REMARK    2  A    between atoms: O_2  and  C_3
REMARK    3  A    between atoms: C_3  and  C_4
REMARK    4  A    between atoms: C_3  and  C_20
REMARK    5  A    between atoms: N_6  and  N_7
REMARK    6  A    between atoms: N_7  and  S_8
REMARK    7  A    between atoms: S_8  and  C_11
REMARK    8  A    between atoms: C_14  and  N_15
REMARK                            x       y       z     vdW  Elec       q    Type
REMARK                         _______ _______ _______ _____ _____    ______ ____
ROOT
ATOM      1  N   UNL     1       1.471   9.097  18.950  0.00  0.00    +0.000 NA
ATOM      2  H   UNL     1       2.044   9.685  18.334  0.00  0.00    +0.000 HD
ENDROOT
BRANCH   1   5
ATOM      3  C   UNL     1       2.991   7.237  18.620  0.00  0.00    +0.000 C 
ATOM      4  O   UNL     1       3.265   7.659  17.497  0.00  0.00    +0.000 OA
ATOM      5  N   UNL     1       2.078   7.870  19.441  0.00  0.00    +0.000 N 
ATOM      6  H   UNL     1       2.057   7.694  20.450  0.00  0.00    +0.000 HD
BRANCH   3   7
ATOM      7  C   UNL     1       3.622   5.962  19.222  0.00  0.00    +0.000 C 
BRANCH   7   8
ATOM      8  C   UNL     1       2.591   4.840  19.363  0.00  0.00    +0.000 A 
ATOM      9  C   UNL     1       2.081   4.173  18.236  0.00  0.00    +0.000 A 
ATOM     10  C   UNL     1       1.112   3.179  18.365  0.00  0.00    +0.000 A 
ATOM     11  C   UNL     1       0.641   2.825  19.625  0.00  0.00    +0.000 A 
ATOM     12  C   UNL     1       1.157   3.450  20.757  0.00  0.00    +0.000 A 
ATOM     13  C   UNL     1       2.129   4.447  20.632  0.00  0.00    +0.000 A 
ENDBRANCH   7   8
BRANCH   7  15
ATOM     14  C   UNL     1       5.915   5.297  19.157  0.00  0.00    +0.000 C 
ATOM     15  O   UNL     1       4.715   5.497  18.423  0.00  0.00    +0.000 OA
ENDBRANCH   7  15
ENDBRANCH   3   7
ENDBRANCH   1   5
BRANCH   1  16
ATOM     16  S   UNL     1       0.470   9.959  20.012  0.00  0.00    +0.000 S 
ATOM     17  O   UNL     1      -0.034   9.040  21.005  0.00  0.00    +0.000 OA
ATOM     18  O   UNL     1       1.153  11.189  20.349  0.00  0.00    +0.000 OA
BRANCH  16  19
ATOM     19  C   UNL     1      -0.899  10.373  18.940  0.00  0.00    +0.000 A 
ATOM     20  C   UNL     1      -1.018   9.725  17.703  0.00  0.00    +0.000 A 
ATOM     21  C   UNL     1      -2.080  10.043  16.852  0.00  0.00    +0.000 A 
ATOM     22  C   UNL     1      -3.025  11.001  17.254  0.00  0.00    +0.000 A 
ATOM     23  C   UNL     1      -2.909  11.640  18.498  0.00  0.00    +0.000 A 
ATOM     24  C   UNL     1      -1.837  11.328  19.341  0.00  0.00    +0.000 A 
BRANCH  22  25
ATOM     25  N   UNL     1      -4.140  11.342  16.362  0.00  0.00    +0.000 N 
ATOM     26  O   UNL     1      -5.083  11.985  16.840  0.00  0.00    +0.000 OA
ATOM     27  O   UNL     1      -4.077  10.955  15.187  0.00  0.00    +0.000 OA
ENDBRANCH  22  25
ENDBRANCH  16  19
ENDBRANCH   1  16
TORSDOF 7
ENDMDL
