MODEL 1
REMARK VINA RESULT:      -8.4      0.000      0.000
REMARK  Name = 
REMARK  3 active torsions:
REMARK  status: ('A' for Active; 'I' for Inactive)
REMARK    1  A    between atoms: N_1  and  C_2
REMARK    2  A    between atoms: N_5  and  C_6
REMARK    3  A    between atoms: N_20  and  C_21
REMARK                            x       y       z     vdW  Elec       q    Type
REMARK                         _______ _______ _______ _____ _____    ______ ____
ROOT
ATOM      1  C   UNL     1       1.367   8.554  19.671  0.00  0.00    +0.000 A 
ATOM      2  C   UNL     1       1.694   7.232  20.044  0.00  0.00    +0.000 A 
ATOM      3  C   UNL     1       2.674   6.461  19.393  0.00  0.00    +0.000 A 
ATOM      4  C   UNL     1       3.266   7.009  18.247  0.00  0.00    +0.000 A 
ATOM      5  C   UNL     1       2.891   8.268  17.773  0.00  0.00    +0.000 A 
ATOM      6  C   UNL     1       1.956   9.016  18.484  0.00  0.00    +0.000 A 
ATOM      7  F   UNL     1       1.657  10.231  17.995  0.00  0.00    +0.000 F 
ATOM      8  N   UNL     1       4.236   6.244  17.588  0.00  0.00    +0.000 N 
ATOM      9  C   UNL     1       4.957   6.518  16.452  0.00  0.00    +0.000 A 
ATOM     10  C   UNL     1       5.758   5.417  16.261  0.00  0.00    +0.000 A 
ATOM     11  N   UNL     1       5.549   4.485  17.242  0.00  0.00    +0.000 NA
ATOM     12  C   UNL     1       4.622   5.007  18.030  0.00  0.00    +0.000 A 
ATOM     13  C   UNL     1       4.049   4.390  19.210  0.00  0.00    +0.000 A 
ATOM     14  O   UNL     1       4.366   3.262  19.595  0.00  0.00    +0.000 OA
ATOM     15  N   UNL     1       3.077   5.168  19.888  0.00  0.00    +0.000 N 
ENDROOT
BRANCH   1  19
ATOM     16  C   UNL     1      -0.349   9.659  22.686  0.00  0.00    +0.000 C 
ATOM     17  C   UNL     1      -0.233  10.985  21.937  0.00  0.00    +0.000 C 
ATOM     18  C   UNL     1       0.790  10.687  20.843  0.00  0.00    +0.000 C 
ATOM     19  N   UNL     1       0.505   9.301  20.463  0.00  0.00    +0.000 N 
ATOM     20  C   UNL     1      -0.261   8.629  21.536  0.00  0.00    +0.000 C 
BRANCH  16  21
ATOM     21  N   UNL     1       0.725   9.494  23.677  0.00  0.00    +0.000 NA
ATOM     22  H   UNL     1       1.344   8.736  23.394  0.00  0.00    +0.000 HD
ATOM     23  H   UNL     1       0.328   9.224  24.578  0.00  0.00    +0.000 HD
ENDBRANCH  16  21
ENDBRANCH   1  19
BRANCH  15  24
ATOM     24  C   UNL     1       2.408   4.583  21.039  0.00  0.00    +0.000 C 
ATOM     25  C   UNL     1       1.166   3.727  20.918  0.00  0.00    +0.000 C 
ATOM     26  C   UNL     1       2.448   3.101  21.346  0.00  0.00    +0.000 C 
ENDBRANCH  15  24
TORSDOF 3
ENDMDL
MODEL 2
REMARK VINA RESULT:      -7.9      1.050      1.137
REMARK  Name = 
REMARK  3 active torsions:
REMARK  status: ('A' for Active; 'I' for Inactive)
REMARK    1  A    between atoms: N_1  and  C_2
REMARK    2  A    between atoms: N_5  and  C_6
REMARK    3  A    between atoms: N_20  and  C_21
REMARK                            x       y       z     vdW  Elec       q    Type
REMARK                         _______ _______ _______ _____ _____    ______ ____
ROOT
ATOM      1  C   UNL     1       1.705   8.284  19.274  0.00  0.00    +0.000 A 
ATOM      2  C   UNL     1       2.052   6.990  19.722  0.00  0.00    +0.000 A 
ATOM      3  C   UNL     1       3.087   6.225  19.157  0.00  0.00    +0.000 A 
ATOM      4  C   UNL     1       3.722   6.742  18.019  0.00  0.00    +0.000 A 
ATOM      5  C   UNL     1       3.335   7.967  17.472  0.00  0.00    +0.000 A 
ATOM      6  C   UNL     1       2.342   8.714  18.100  0.00  0.00    +0.000 A 
ATOM      7  F   UNL     1       2.033   9.897  17.543  0.00  0.00    +0.000 F 
ATOM      8  N   UNL     1       4.748   5.982  17.446  0.00  0.00    +0.000 N 
ATOM      9  C   UNL     1       5.519   6.230  16.337  0.00  0.00    +0.000 A 
ATOM     10  C   UNL     1       6.362   5.148  16.236  0.00  0.00    +0.000 A 
ATOM     11  N   UNL     1       6.130   4.253  17.246  0.00  0.00    +0.000 NA
ATOM     12  C   UNL     1       5.147   4.777  17.962  0.00  0.00    +0.000 A 
ATOM     13  C   UNL     1       4.532   4.193  19.137  0.00  0.00    +0.000 A 
ATOM     14  O   UNL     1       4.862   3.093  19.587  0.00  0.00    +0.000 OA
ATOM     15  N   UNL     1       3.503   4.968  19.728  0.00  0.00    +0.000 N 
ENDROOT
BRANCH   1  19
ATOM     16  C   UNL     1       0.455  10.882  21.499  0.00  0.00    +0.000 C 
ATOM     17  C   UNL     1      -0.703  10.792  20.508  0.00  0.00    +0.000 C 
ATOM     18  C   UNL     1      -0.112  10.002  19.342  0.00  0.00    +0.000 C 
ATOM     19  N   UNL     1       0.780   9.035  19.988  0.00  0.00    +0.000 N 
ATOM     20  C   UNL     1       1.113   9.489  21.356  0.00  0.00    +0.000 C 
BRANCH  16  21
ATOM     21  N   UNL     1       1.376  11.979  21.167  0.00  0.00    +0.000 NA
ATOM     22  H   UNL     1       0.851  12.837  21.006  0.00  0.00    +0.000 HD
ATOM     23  H   UNL     1       1.865  11.770  20.294  0.00  0.00    +0.000 HD
ENDBRANCH  16  21
ENDBRANCH   1  19
BRANCH  15  24
ATOM     24  C   UNL     1       2.792   4.411  20.869  0.00  0.00    +0.000 C 
ATOM     25  C   UNL     1       1.330   4.023  20.814  0.00  0.00    +0.000 C 
ATOM     26  C   UNL     1       2.365   2.960  20.941  0.00  0.00    +0.000 C 
ENDBRANCH  15  24
TORSDOF 3
ENDMDL
MODEL 3
REMARK VINA RESULT:      -7.8      1.110      1.327
REMARK  Name = 
REMARK  3 active torsions:
REMARK  status: ('A' for Active; 'I' for Inactive)
REMARK    1  A    between atoms: N_1  and  C_2
REMARK    2  A    between atoms: N_5  and  C_6
REMARK    3  A    between atoms: N_20  and  C_21
REMARK                            x       y       z     vdW  Elec       q    Type
REMARK                         _______ _______ _______ _____ _____    ______ ____
ROOT
ATOM      1  C   UNL     1       1.661   7.600  20.275  0.00  0.00    +0.000 A 
ATOM      2  C   UNL     1       1.990   6.227  20.255  0.00  0.00    +0.000 A 
ATOM      3  C   UNL     1       2.845   5.648  19.300  0.00  0.00    +0.000 A 
ATOM      4  C   UNL     1       3.292   6.469  18.256  0.00  0.00    +0.000 A 
ATOM      5  C   UNL     1       2.900   7.807  18.171  0.00  0.00    +0.000 A 
ATOM      6  C   UNL     1       2.097   8.349  19.171  0.00  0.00    +0.000 A 
ATOM      7  F   UNL     1       1.776   9.647  19.050  0.00  0.00    +0.000 F 
ATOM      8  N   UNL     1       4.137   5.898  17.297  0.00  0.00    +0.000 N 
ATOM      9  C   UNL     1       4.704   6.451  16.175  0.00  0.00    +0.000 A 
ATOM     10  C   UNL     1       5.434   5.436  15.603  0.00  0.00    +0.000 A 
ATOM     11  N   UNL     1       5.330   4.285  16.339  0.00  0.00    +0.000 NA
ATOM     12  C   UNL     1       4.537   4.589  17.355  0.00  0.00    +0.000 A 
ATOM     13  C   UNL     1       4.111   3.693  18.411  0.00  0.00    +0.000 A 
ATOM     14  O   UNL     1       4.440   2.505  18.453  0.00  0.00    +0.000 OA
ATOM     15  N   UNL     1       3.268   4.273  19.393  0.00  0.00    +0.000 N 
ENDROOT
BRANCH   1  19
ATOM     16  C   UNL     1       0.460  10.082  22.654  0.00  0.00    +0.000 C 
ATOM     17  C   UNL     1      -0.789   9.214  22.512  0.00  0.00    +0.000 C 
ATOM     18  C   UNL     1      -0.501   8.377  21.268  0.00  0.00    +0.000 C 
ATOM     19  N   UNL     1       0.941   8.120  21.343  0.00  0.00    +0.000 N 
ATOM     20  C   UNL     1       1.583   9.102  22.243  0.00  0.00    +0.000 C 
BRANCH  16  21
ATOM     21  N   UNL     1       0.401  11.270  21.788  0.00  0.00    +0.000 NA
ATOM     22  H   UNL     1       1.116  11.940  22.069  0.00  0.00    +0.000 HD
ATOM     23  H   UNL     1      -0.498  11.740  21.904  0.00  0.00    +0.000 HD
ENDBRANCH  16  21
ENDBRANCH   1  19
BRANCH  15  24
ATOM     24  C   UNL     1       2.744   3.414  20.444  0.00  0.00    +0.000 C 
ATOM     25  C   UNL     1       1.329   3.532  20.968  0.00  0.00    +0.000 C 
ATOM     26  C   UNL     1       1.720   2.330  20.182  0.00  0.00    +0.000 C 
ENDBRANCH  15  24
TORSDOF 3
ENDMDL
MODEL 4
REMARK VINA RESULT:      -7.4      1.154      1.578
REMARK  Name = 
REMARK  3 active torsions:
REMARK  status: ('A' for Active; 'I' for Inactive)
REMARK    1  A    between atoms: N_1  and  C_2
REMARK    2  A    between atoms: N_5  and  C_6
REMARK    3  A    between atoms: N_20  and  C_21
REMARK                            x       y       z     vdW  Elec       q    Type
REMARK                         _______ _______ _______ _____ _____    ______ ____
ROOT
ATOM      1  C   UNL     1       2.024   8.074  19.404  0.00  0.00    +0.000 A 
ATOM      2  C   UNL     1       2.191   6.703  19.703  0.00  0.00    +0.000 A 
ATOM      3  C   UNL     1       3.015   5.841  18.958  0.00  0.00    +0.000 A 
ATOM      4  C   UNL     1       3.604   6.359  17.796  0.00  0.00    +0.000 A 
ATOM      5  C   UNL     1       3.374   7.678  17.398  0.00  0.00    +0.000 A 
ATOM      6  C   UNL     1       2.595   8.509  18.198  0.00  0.00    +0.000 A 
ATOM      7  F   UNL     1       2.433   9.774  17.778  0.00  0.00    +0.000 F 
ATOM      8  N   UNL     1       4.418   5.505  17.044  0.00  0.00    +0.000 N 
ATOM      9  C   UNL     1       5.097   5.733  15.873  0.00  0.00    +0.000 A 
ATOM     10  C   UNL     1       5.729   4.546  15.586  0.00  0.00    +0.000 A 
ATOM     11  N   UNL     1       5.458   3.605  16.543  0.00  0.00    +0.000 NA
ATOM     12  C   UNL     1       4.660   4.207  17.411  0.00  0.00    +0.000 A 
ATOM     13  C   UNL     1       4.084   3.617  18.603  0.00  0.00    +0.000 A 
ATOM     14  O   UNL     1       4.269   2.440  18.922  0.00  0.00    +0.000 OA
ATOM     15  N   UNL     1       3.271   4.484  19.374  0.00  0.00    +0.000 N 
ENDROOT
BRANCH   1  19
ATOM     16  C   UNL     1      -0.322  10.636  20.494  0.00  0.00    +0.000 C 
ATOM     17  C   UNL     1      -0.434   9.652  21.657  0.00  0.00    +0.000 C 
ATOM     18  C   UNL     1       0.226   8.386  21.116  0.00  0.00    +0.000 C 
ATOM     19  N   UNL     1       1.321   8.889  20.282  0.00  0.00    +0.000 N 
ATOM     20  C   UNL     1       1.074  10.302  19.921  0.00  0.00    +0.000 C 
BRANCH  16  21
ATOM     21  N   UNL     1      -1.398  10.444  19.510  0.00  0.00    +0.000 NA
ATOM     22  H   UNL     1      -2.258  10.172  19.984  0.00  0.00    +0.000 HD
ATOM     23  H   UNL     1      -1.159   9.677  18.879  0.00  0.00    +0.000 HD
ENDBRANCH  16  21
ENDBRANCH   1  19
BRANCH  15  24
ATOM     24  C   UNL     1       2.601   3.939  20.546  0.00  0.00    +0.000 C 
ATOM     25  C   UNL     1       1.103   4.015  20.742  0.00  0.00    +0.000 C 
ATOM     26  C   UNL     1       1.743   2.693  20.495  0.00  0.00    +0.000 C 
ENDBRANCH  15  24
TORSDOF 3
ENDMDL
MODEL 5
REMARK VINA RESULT:      -7.2      1.897      3.852
REMARK  Name = 
REMARK  3 active torsions:
REMARK  status: ('A' for Active; 'I' for Inactive)
REMARK    1  A    between atoms: N_1  and  C_2
REMARK    2  A    between atoms: N_5  and  C_6
REMARK    3  A    between atoms: N_20  and  C_21
REMARK                            x       y       z     vdW  Elec       q    Type
REMARK                         _______ _______ _______ _____ _____    ______ ____
ROOT
ATOM      1  C   UNL     1       1.552   8.672  19.315  0.00  0.00    +0.000 A 
ATOM      2  C   UNL     1       2.492   7.903  18.594  0.00  0.00    +0.000 A 
ATOM      3  C   UNL     1       2.809   6.570  18.908  0.00  0.00    +0.000 A 
ATOM      4  C   UNL     1       2.238   6.030  20.068  0.00  0.00    +0.000 A 
ATOM      5  C   UNL     1       1.391   6.791  20.877  0.00  0.00    +0.000 A 
ATOM      6  C   UNL     1       1.063   8.088  20.494  0.00  0.00    +0.000 A 
ATOM      7  F   UNL     1       0.222   8.761  21.298  0.00  0.00    +0.000 F 
ATOM      8  N   UNL     1       2.556   4.706  20.392  0.00  0.00    +0.000 N 
ATOM      9  C   UNL     1       2.162   3.937  21.460  0.00  0.00    +0.000 A 
ATOM     10  C   UNL     1       2.777   2.722  21.275  0.00  0.00    +0.000 A 
ATOM     11  N   UNL     1       3.530   2.725  20.131  0.00  0.00    +0.000 NA
ATOM     12  C   UNL     1       3.383   3.937  19.618  0.00  0.00    +0.000 A 
ATOM     13  C   UNL     1       4.000   4.438  18.406  0.00  0.00    +0.000 A 
ATOM     14  O   UNL     1       4.773   3.764  17.720  0.00  0.00    +0.000 OA
ATOM     15  N   UNL     1       3.668   5.774  18.066  0.00  0.00    +0.000 N 
ENDROOT
BRANCH   1  19
ATOM     16  C   UNL     1      -0.626  11.497  18.583  0.00  0.00    +0.000 C 
ATOM     17  C   UNL     1       0.685  12.228  18.859  0.00  0.00    +0.000 C 
ATOM     18  C   UNL     1       1.552  11.165  19.529  0.00  0.00    +0.000 C 
ATOM     19  N   UNL     1       1.178   9.924  18.844  0.00  0.00    +0.000 N 
ATOM     20  C   UNL     1      -0.132  10.089  18.178  0.00  0.00    +0.000 C 
BRANCH  16  21
ATOM     21  N   UNL     1      -1.499  11.471  19.767  0.00  0.00    +0.000 NA
ATOM     22  H   UNL     1      -0.998  11.071  20.559  0.00  0.00    +0.000 HD
ATOM     23  H   UNL     1      -2.301  10.864  19.594  0.00  0.00    +0.000 HD
ENDBRANCH  16  21
ENDBRANCH   1  19
BRANCH  15  24
ATOM     24  C   UNL     1       4.306   6.367  16.901  0.00  0.00    +0.000 C 
ATOM     25  C   UNL     1       5.662   7.037  16.962  0.00  0.00    +0.000 C 
ATOM     26  C   UNL     1       5.513   5.752  16.225  0.00  0.00    +0.000 C 
ENDBRANCH  15  24
TORSDOF 3
ENDMDL
MODEL 6
REMARK VINA RESULT:      -6.9      1.998      4.029
REMARK  Name = 
REMARK  3 active torsions:
REMARK  status: ('A' for Active; 'I' for Inactive)
REMARK    1  A    between atoms: N_1  and  C_2
REMARK    2  A    between atoms: N_5  and  C_6
REMARK    3  A    between atoms: N_20  and  C_21
REMARK                            x       y       z     vdW  Elec       q    Type
REMARK                         _______ _______ _______ _____ _____    ______ ____
ROOT
ATOM      1  C   UNL     1       2.050   7.674  19.521  0.00  0.00    +0.000 A 
ATOM      2  C   UNL     1       2.993   7.174  18.595  0.00  0.00    +0.000 A 
ATOM      3  C   UNL     1       3.227   5.803  18.391  0.00  0.00    +0.000 A 
ATOM      4  C   UNL     1       2.565   4.904  19.238  0.00  0.00    +0.000 A 
ATOM      5  C   UNL     1       1.711   5.358  20.245  0.00  0.00    +0.000 A 
ATOM      6  C   UNL     1       1.467   6.722  20.372  0.00  0.00    +0.000 A 
ATOM      7  F   UNL     1       0.614   7.096  21.340  0.00  0.00    +0.000 F 
ATOM      8  N   UNL     1       2.801   3.537  19.046  0.00  0.00    +0.000 N 
ATOM      9  C   UNL     1       2.311   2.451  19.727  0.00  0.00    +0.000 A 
ATOM     10  C   UNL     1       2.877   1.357  19.116  0.00  0.00    +0.000 A 
ATOM     11  N   UNL     1       3.694   1.742  18.087  0.00  0.00    +0.000 NA
ATOM     12  C   UNL     1       3.634   3.065  18.067  0.00  0.00    +0.000 A 
ATOM     13  C   UNL     1       4.343   3.944  17.159  0.00  0.00    +0.000 A 
ATOM     14  O   UNL     1       5.121   3.529  16.297  0.00  0.00    +0.000 OA
ATOM     15  N   UNL     1       4.095   5.328  17.341  0.00  0.00    +0.000 N 
ENDROOT
BRANCH   1  19
ATOM     16  C   UNL     1       0.659  10.858  18.430  0.00  0.00    +0.000 C 
ATOM     17  C   UNL     1       0.574  11.028  19.945  0.00  0.00    +0.000 C 
ATOM     18  C   UNL     1       0.788   9.612  20.475  0.00  0.00    +0.000 C 
ATOM     19  N   UNL     1       1.764   9.033  19.547  0.00  0.00    +0.000 N 
ATOM     20  C   UNL     1       1.782   9.804  18.286  0.00  0.00    +0.000 C 
BRANCH  16  21
ATOM     21  N   UNL     1      -0.618  10.405  17.858  0.00  0.00    +0.000 NA
ATOM     22  H   UNL     1      -1.339  11.105  18.022  0.00  0.00    +0.000 HD
ATOM     23  H   UNL     1      -0.927   9.553  18.329  0.00  0.00    +0.000 HD
ENDBRANCH  16  21
ENDBRANCH   1  19
BRANCH  15  24
ATOM     24  C   UNL     1       4.827   6.273  16.512  0.00  0.00    +0.000 C 
ATOM     25  C   UNL     1       5.925   7.161  17.057  0.00  0.00    +0.000 C 
ATOM     26  C   UNL     1       6.272   6.065  16.111  0.00  0.00    +0.000 C 
ENDBRANCH  15  24
TORSDOF 3
ENDMDL
MODEL 7
REMARK VINA RESULT:      -6.7      4.432      5.938
REMARK  Name = 
REMARK  3 active torsions:
REMARK  status: ('A' for Active; 'I' for Inactive)
REMARK    1  A    between atoms: N_1  and  C_2
REMARK    2  A    between atoms: N_5  and  C_6
REMARK    3  A    between atoms: N_20  and  C_21
REMARK                            x       y       z     vdW  Elec       q    Type
REMARK                         _______ _______ _______ _____ _____    ______ ____
ROOT
ATOM      1  C   UNL     1       3.749   3.672  18.615  0.00  0.00    +0.000 A 
ATOM      2  C   UNL     1       4.837   4.568  18.519  0.00  0.00    +0.000 A 
ATOM      3  C   UNL     1       5.542   4.807  17.326  0.00  0.00    +0.000 A 
ATOM      4  C   UNL     1       5.208   4.023  16.214  0.00  0.00    +0.000 A 
ATOM      5  C   UNL     1       4.216   3.044  16.293  0.00  0.00    +0.000 A 
ATOM      6  C   UNL     1       3.507   2.883  17.480  0.00  0.00    +0.000 A 
ATOM      7  F   UNL     1       2.545   1.945  17.487  0.00  0.00    +0.000 F 
ATOM      8  N   UNL     1       5.912   4.249  15.025  0.00  0.00    +0.000 N 
ATOM      9  C   UNL     1       5.810   3.629  13.804  0.00  0.00    +0.000 A 
ATOM     10  C   UNL     1       6.742   4.249  13.006  0.00  0.00    +0.000 A 
ATOM     11  N   UNL     1       7.407   5.224  13.700  0.00  0.00    +0.000 NA
ATOM     12  C   UNL     1       6.890   5.202  14.919  0.00  0.00    +0.000 A 
ATOM     13  C   UNL     1       7.277   6.045  16.033  0.00  0.00    +0.000 A 
ATOM     14  O   UNL     1       8.180   6.882  15.956  0.00  0.00    +0.000 OA
ATOM     15  N   UNL     1       6.556   5.829  17.234  0.00  0.00    +0.000 N 
ENDROOT
BRANCH   1  19
ATOM     16  C   UNL     1       0.807   3.389  20.742  0.00  0.00    +0.000 C 
ATOM     17  C   UNL     1       1.844   2.689  21.617  0.00  0.00    +0.000 C 
ATOM     18  C   UNL     1       3.006   2.436  20.659  0.00  0.00    +0.000 C 
ATOM     19  N   UNL     1       3.006   3.614  19.787  0.00  0.00    +0.000 N 
ATOM     20  C   UNL     1       1.691   4.289  19.848  0.00  0.00    +0.000 C 
BRANCH  16  21
ATOM     21  N   UNL     1       0.010   2.428  19.963  0.00  0.00    +0.000 NA
ATOM     22  H   UNL     1      -0.907   2.311  20.390  0.00  0.00    +0.000 HD
ATOM     23  H   UNL     1       0.458   1.510  19.982  0.00  0.00    +0.000 HD
ENDBRANCH  16  21
ENDBRANCH   1  19
BRANCH  15  24
ATOM     24  C   UNL     1       6.939   6.590  18.413  0.00  0.00    +0.000 C 
ATOM     25  C   UNL     1       7.989   6.110  19.392  0.00  0.00    +0.000 C 
ATOM     26  C   UNL     1       8.272   7.296  18.537  0.00  0.00    +0.000 C 
ENDBRANCH  15  24
TORSDOF 3
ENDMDL
MODEL 8
REMARK VINA RESULT:      -6.7      1.919      4.058
REMARK  Name = 
REMARK  3 active torsions:
REMARK  status: ('A' for Active; 'I' for Inactive)
REMARK    1  A    between atoms: N_1  and  C_2
REMARK    2  A    between atoms: N_5  and  C_6
REMARK    3  A    between atoms: N_20  and  C_21
REMARK                            x       y       z     vdW  Elec       q    Type
REMARK                         _______ _______ _______ _____ _____    ______ ____
ROOT
ATOM      1  C   UNL     1       1.252   8.734  19.890  0.00  0.00    +0.000 A 
ATOM      2  C   UNL     1       2.238   8.121  19.086  0.00  0.00    +0.000 A 
ATOM      3  C   UNL     1       2.631   6.779  19.229  0.00  0.00    +0.000 A 
ATOM      4  C   UNL     1       2.088   6.061  20.303  0.00  0.00    +0.000 A 
ATOM      5  C   UNL     1       1.195   6.660  21.193  0.00  0.00    +0.000 A 
ATOM      6  C   UNL     1       0.793   7.975  20.978  0.00  0.00    +0.000 A 
ATOM      7  F   UNL     1      -0.089   8.488  21.851  0.00  0.00    +0.000 F 
ATOM      8  N   UNL     1       2.482   4.726  20.457  0.00  0.00    +0.000 N 
ATOM      9  C   UNL     1       2.129   3.804  21.411  0.00  0.00    +0.000 A 
ATOM     10  C   UNL     1       2.816   2.660  21.078  0.00  0.00    +0.000 A 
ATOM     11  N   UNL     1       3.572   2.856  19.953  0.00  0.00    +0.000 NA
ATOM     12  C   UNL     1       3.356   4.113  19.599  0.00  0.00    +0.000 A 
ATOM     13  C   UNL     1       3.948   4.802  18.470  0.00  0.00    +0.000 A 
ATOM     14  O   UNL     1       4.762   4.268  17.712  0.00  0.00    +0.000 OA
ATOM     15  N   UNL     1       3.539   6.149  18.302  0.00  0.00    +0.000 N 
ENDROOT
BRANCH   1  19
ATOM     16  C   UNL     1       1.421  12.187  18.746  0.00  0.00    +0.000 C 
ATOM     17  C   UNL     1       0.011  11.818  18.291  0.00  0.00    +0.000 C 
ATOM     18  C   UNL     1      -0.010  10.295  18.396  0.00  0.00    +0.000 C 
ATOM     19  N   UNL     1       0.807  10.013  19.580  0.00  0.00    +0.000 N 
ATOM     20  C   UNL     1       1.666  11.176  19.890  0.00  0.00    +0.000 C 
BRANCH  16  21
ATOM     21  N   UNL     1       2.400  12.056  17.656  0.00  0.00    +0.000 NA
ATOM     22  H   UNL     1       3.337  11.951  18.041  0.00  0.00    +0.000 HD
ATOM     23  H   UNL     1       2.410  12.909  17.094  0.00  0.00    +0.000 HD
ENDBRANCH  16  21
ENDBRANCH   1  19
BRANCH  15  24
ATOM     24  C   UNL     1       4.147   6.925  17.231  0.00  0.00    +0.000 C 
ATOM     25  C   UNL     1       5.634   7.193  17.156  0.00  0.00    +0.000 C 
ATOM     26  C   UNL     1       5.000   6.299  16.148  0.00  0.00    +0.000 C 
ENDBRANCH  15  24
TORSDOF 3
ENDMDL
MODEL 9
REMARK VINA RESULT:      -6.6      1.806      3.781
REMARK  Name = 
REMARK  3 active torsions:
REMARK  status: ('A' for Active; 'I' for Inactive)
REMARK    1  A    between atoms: N_1  and  C_2
REMARK    2  A    between atoms: N_5  and  C_6
REMARK    3  A    between atoms: N_20  and  C_21
REMARK                            x       y       z     vdW  Elec       q    Type
REMARK                         _______ _______ _______ _____ _____    ______ ____
ROOT
ATOM      1  C   UNL     1       1.714   8.030  19.538  0.00  0.00    +0.000 A 
ATOM      2  C   UNL     1       2.872   7.575  18.869  0.00  0.00    +0.000 A 
ATOM      3  C   UNL     1       3.397   6.280  19.020  0.00  0.00    +0.000 A 
ATOM      4  C   UNL     1       2.793   5.448  19.972  0.00  0.00    +0.000 A 
ATOM      5  C   UNL     1       1.716   5.894  20.740  0.00  0.00    +0.000 A 
ATOM      6  C   UNL     1       1.196   7.166  20.515  0.00  0.00    +0.000 A 
ATOM      7  F   UNL     1       0.142   7.529  21.264  0.00  0.00    +0.000 F 
ATOM      8  N   UNL     1       3.316   4.159  20.134  0.00  0.00    +0.000 N 
ATOM      9  C   UNL     1       2.941   3.154  20.990  0.00  0.00    +0.000 A 
ATOM     10  C   UNL     1       3.799   2.113  20.721  0.00  0.00    +0.000 A 
ATOM     11  N   UNL     1       4.682   2.453  19.731  0.00  0.00    +0.000 NA
ATOM     12  C   UNL     1       4.372   3.696  19.395  0.00  0.00    +0.000 A 
ATOM     13  C   UNL     1       5.035   4.507  18.394  0.00  0.00    +0.000 A 
ATOM     14  O   UNL     1       6.008   4.109  17.748  0.00  0.00    +0.000 OA
ATOM     15  N   UNL     1       4.498   5.807  18.217  0.00  0.00    +0.000 N 
ENDROOT
BRANCH   1  19
ATOM     16  C   UNL     1       0.504  11.428  20.036  0.00  0.00    +0.000 C 
ATOM     17  C   UNL     1       1.075  11.546  18.625  0.00  0.00    +0.000 C 
ATOM     18  C   UNL     1       1.925  10.286  18.478  0.00  0.00    +0.000 C 
ATOM     19  N   UNL     1       1.171   9.266  19.212  0.00  0.00    +0.000 N 
ATOM     20  C   UNL     1       0.222   9.911  20.145  0.00  0.00    +0.000 C 
BRANCH  16  21
ATOM     21  N   UNL     1       1.456  11.900  21.053  0.00  0.00    +0.000 NA
ATOM     22  H   UNL     1       1.408  11.303  21.877  0.00  0.00    +0.000 HD
ATOM     23  H   UNL     1       1.198  12.840  21.360  0.00  0.00    +0.000 HD
ENDBRANCH  16  21
ENDBRANCH   1  19
BRANCH  15  24
ATOM     24  C   UNL     1       5.158   6.702  17.279  0.00  0.00    +0.000 C 
ATOM     25  C   UNL     1       6.123   6.213  16.220  0.00  0.00    +0.000 C 
ATOM     26  C   UNL     1       4.800   6.760  15.809  0.00  0.00    +0.000 C 
ENDBRANCH  15  24
TORSDOF 3
ENDMDL
