MODEL 1
REMARK VINA RESULT:      -7.0      0.000      0.000
REMARK  Name = 
REMARK  7 active torsions:
REMARK  status: ('A' for Active; 'I' for Inactive)
REMARK    1  A    between atoms: C_1  and  C_2
REMARK    2  A    between atoms: C_2  and  O_3
REMARK    3  A    between atoms: O_3  and  C_4
REMARK    4  A    between atoms: C_4  and  C_6
REMARK    5  A    between atoms: C_6  and  C_7
REMARK    6  A    between atoms: C_9  and  C_10
REMARK    7  A    between atoms: N_14  and  C_15
REMARK                            x       y       z     vdW  Elec       q    Type
REMARK                         _______ _______ _______ _____ _____    ______ ____
ROOT
ATOM      1  C   UNL     1       3.878   3.636  18.735  0.00  0.00    +0.000 A 
ATOM      2  C   UNL     1       3.702   2.357  18.236  0.00  0.00    +0.000 A 
ATOM      3  C   UNL     1       2.377   2.245  17.771  0.00  0.00    +0.000 A 
ATOM      4  C   UNL     1       1.765   3.453  18.008  0.00  0.00    +0.000 A 
ATOM      5  N   UNL     1       2.654   4.317  18.631  0.00  0.00    +0.000 N 
ENDROOT
BRANCH   5   6
ATOM      6  C   UNL     1       2.323   5.652  19.040  0.00  0.00    +0.000 A 
ATOM      7  C   UNL     1       2.494   6.742  18.177  0.00  0.00    +0.000 A 
ATOM      8  C   UNL     1       2.160   8.036  18.592  0.00  0.00    +0.000 A 
ATOM      9  C   UNL     1       1.672   8.250  19.876  0.00  0.00    +0.000 A 
ATOM     10 CL   UNL     1       1.280   9.845  20.386  0.00  0.00    +0.000 Cl
ATOM     11  C   UNL     1       1.508   7.180  20.750  0.00  0.00    +0.000 A 
ATOM     12  C   UNL     1       1.834   5.885  20.336  0.00  0.00    +0.000 A 
ENDBRANCH   5   6
BRANCH   1  14
ATOM     13  C   UNL     1       6.010   4.707  18.303  0.00  0.00    +0.000 C 
ATOM     14  C   UNL     1       5.071   4.283  19.175  0.00  0.00    +0.000 C 
BRANCH  13  15
ATOM     15  C   UNL     1       7.154   5.473  18.820  0.00  0.00    +0.000 C 
ATOM     16  O   UNL     1       7.474   5.500  19.999  0.00  0.00    +0.000 OA
BRANCH  15  17
ATOM     17  O   UNL     1       7.707   6.215  17.830  0.00  0.00    +0.000 OA
BRANCH  17  19
ATOM     18  C   UNL     1       8.097   8.565  17.834  0.00  0.00    +0.000 C 
ATOM     19  C   UNL     1       7.068   7.476  17.590  0.00  0.00    +0.000 C 
ENDBRANCH  17  19
ENDBRANCH  15  17
ENDBRANCH  13  15
BRANCH  13  20
ATOM     20  C   UNL     1       5.861   4.379  16.827  0.00  0.00    +0.000 C 
ATOM     21  N   UNL     1       5.738   4.105  15.602  0.00  0.00    +0.000 NA
ENDBRANCH  13  20
ENDBRANCH   1  14
TORSDOF 6
ENDMDL
MODEL 2
REMARK VINA RESULT:      -7.0      0.104      1.057
REMARK  Name = 
REMARK  7 active torsions:
REMARK  status: ('A' for Active; 'I' for Inactive)
REMARK    1  A    between atoms: C_1  and  C_2
REMARK    2  A    between atoms: C_2  and  O_3
REMARK    3  A    between atoms: O_3  and  C_4
REMARK    4  A    between atoms: C_4  and  C_6
REMARK    5  A    between atoms: C_6  and  C_7
REMARK    6  A    between atoms: C_9  and  C_10
REMARK    7  A    between atoms: N_14  and  C_15
REMARK                            x       y       z     vdW  Elec       q    Type
REMARK                         _______ _______ _______ _____ _____    ______ ____
ROOT
ATOM      1  C   UNL     1       3.924   3.662  18.751  0.00  0.00    +0.000 A 
ATOM      2  C   UNL     1       3.760   2.375  18.269  0.00  0.00    +0.000 A 
ATOM      3  C   UNL     1       2.441   2.248  17.792  0.00  0.00    +0.000 A 
ATOM      4  C   UNL     1       1.820   3.457  18.004  0.00  0.00    +0.000 A 
ATOM      5  N   UNL     1       2.698   4.335  18.623  0.00  0.00    +0.000 N 
ENDROOT
BRANCH   5   6
ATOM      6  C   UNL     1       2.356   5.674  19.008  0.00  0.00    +0.000 A 
ATOM      7  C   UNL     1       1.895   5.967  20.299  0.00  0.00    +0.000 A 
ATOM      8  C   UNL     1       1.572   7.280  20.658  0.00  0.00    +0.000 A 
ATOM      9  C   UNL     1       1.689   8.304  19.725  0.00  0.00    +0.000 A 
ATOM     10 CL   UNL     1       1.272   9.912  20.167  0.00  0.00    +0.000 Cl
ATOM     11  C   UNL     1       2.132   8.029  18.435  0.00  0.00    +0.000 A 
ATOM     12  C   UNL     1       2.463   6.719  18.076  0.00  0.00    +0.000 A 
ENDBRANCH   5   6
BRANCH   1  14
ATOM     13  C   UNL     1       6.067   4.714  18.327  0.00  0.00    +0.000 C 
ATOM     14  C   UNL     1       5.108   4.322  19.193  0.00  0.00    +0.000 C 
BRANCH  13  15
ATOM     15  C   UNL     1       7.202   5.496  18.842  0.00  0.00    +0.000 C 
ATOM     16  O   UNL     1       7.520   5.532  20.022  0.00  0.00    +0.000 OA
BRANCH  15  17
ATOM     17  O   UNL     1       7.747   6.240  17.849  0.00  0.00    +0.000 OA
BRANCH  17  19
ATOM     18  C   UNL     1       8.065   8.599  17.756  0.00  0.00    +0.000 C 
ATOM     19  C   UNL     1       7.066   7.471  17.572  0.00  0.00    +0.000 C 
ENDBRANCH  17  19
ENDBRANCH  15  17
ENDBRANCH  13  15
BRANCH  13  20
ATOM     20  C   UNL     1       5.949   4.335  16.860  0.00  0.00    +0.000 C 
ATOM     21  N   UNL     1       5.850   4.021  15.643  0.00  0.00    +0.000 NA
ENDBRANCH  13  20
ENDBRANCH   1  14
TORSDOF 6
ENDMDL
MODEL 3
REMARK VINA RESULT:      -6.8      1.978      2.726
REMARK  Name = 
REMARK  7 active torsions:
REMARK  status: ('A' for Active; 'I' for Inactive)
REMARK    1  A    between atoms: C_1  and  C_2
REMARK    2  A    between atoms: C_2  and  O_3
REMARK    3  A    between atoms: O_3  and  C_4
REMARK    4  A    between atoms: C_4  and  C_6
REMARK    5  A    between atoms: C_6  and  C_7
REMARK    6  A    between atoms: C_9  and  C_10
REMARK    7  A    between atoms: N_14  and  C_15
REMARK                            x       y       z     vdW  Elec       q    Type
REMARK                         _______ _______ _______ _____ _____    ______ ____
ROOT
ATOM      1  C   UNL     1       4.123   4.258  18.764  0.00  0.00    +0.000 A 
ATOM      2  C   UNL     1       4.271   2.994  19.308  0.00  0.00    +0.000 A 
ATOM      3  C   UNL     1       3.314   2.840  20.330  0.00  0.00    +0.000 A 
ATOM      4  C   UNL     1       2.608   4.019  20.399  0.00  0.00    +0.000 A 
ATOM      5  N   UNL     1       3.106   4.921  19.471  0.00  0.00    +0.000 N 
ENDROOT
BRANCH   5   6
ATOM      6  C   UNL     1       2.609   6.257  19.302  0.00  0.00    +0.000 A 
ATOM      7  C   UNL     1       2.701   6.919  18.071  0.00  0.00    +0.000 A 
ATOM      8  C   UNL     1       2.205   8.219  17.924  0.00  0.00    +0.000 A 
ATOM      9  C   UNL     1       1.632   8.871  19.010  0.00  0.00    +0.000 A 
ATOM     10 CL   UNL     1       1.041  10.475  18.827  0.00  0.00    +0.000 Cl
ATOM     11  C   UNL     1       1.544   8.233  20.243  0.00  0.00    +0.000 A 
ATOM     12  C   UNL     1       2.033   6.930  20.391  0.00  0.00    +0.000 A 
ENDBRANCH   5   6
BRANCH   1  14
ATOM     13  C   UNL     1       6.007   5.306  17.655  0.00  0.00    +0.000 C 
ATOM     14  C   UNL     1       4.745   4.830  17.615  0.00  0.00    +0.000 C 
BRANCH  13  15
ATOM     15  C   UNL     1       6.624   5.770  16.403  0.00  0.00    +0.000 C 
ATOM     16  O   UNL     1       7.523   6.598  16.357  0.00  0.00    +0.000 OA
BRANCH  15  17
ATOM     17  O   UNL     1       5.977   5.240  15.337  0.00  0.00    +0.000 OA
BRANCH  17  19
ATOM     18  C   UNL     1       5.969   3.788  13.449  0.00  0.00    +0.000 C 
ATOM     19  C   UNL     1       6.829   4.673  14.333  0.00  0.00    +0.000 C 
ENDBRANCH  17  19
ENDBRANCH  15  17
ENDBRANCH  13  15
BRANCH  13  20
ATOM     20  C   UNL     1       6.746   5.354  18.983  0.00  0.00    +0.000 C 
ATOM     21  N   UNL     1       7.357   5.392  20.085  0.00  0.00    +0.000 NA
ENDBRANCH  13  20
ENDBRANCH   1  14
TORSDOF 6
ENDMDL
MODEL 4
REMARK VINA RESULT:      -6.7      2.808      4.674
REMARK  Name = 
REMARK  7 active torsions:
REMARK  status: ('A' for Active; 'I' for Inactive)
REMARK    1  A    between atoms: C_1  and  C_2
REMARK    2  A    between atoms: C_2  and  O_3
REMARK    3  A    between atoms: O_3  and  C_4
REMARK    4  A    between atoms: C_4  and  C_6
REMARK    5  A    between atoms: C_6  and  C_7
REMARK    6  A    between atoms: C_9  and  C_10
REMARK    7  A    between atoms: N_14  and  C_15
REMARK                            x       y       z     vdW  Elec       q    Type
REMARK                         _______ _______ _______ _____ _____    ______ ____
ROOT
ATOM      1  C   UNL     1       3.902   4.784  17.005  0.00  0.00    +0.000 A 
ATOM      2  C   UNL     1       5.032   4.437  16.287  0.00  0.00    +0.000 A 
ATOM      3  C   UNL     1       5.950   5.502  16.369  0.00  0.00    +0.000 A 
ATOM      4  C   UNL     1       5.357   6.486  17.126  0.00  0.00    +0.000 A 
ATOM      5  N   UNL     1       4.083   6.085  17.502  0.00  0.00    +0.000 N 
ENDROOT
BRANCH   5   6
ATOM      6  C   UNL     1       3.184   6.892  18.278  0.00  0.00    +0.000 A 
ATOM      7  C   UNL     1       2.798   6.516  19.571  0.00  0.00    +0.000 A 
ATOM      8  C   UNL     1       1.926   7.318  20.314  0.00  0.00    +0.000 A 
ATOM      9  C   UNL     1       1.420   8.490  19.763  0.00  0.00    +0.000 A 
ATOM     10 CL   UNL     1       0.333   9.462  20.675  0.00  0.00    +0.000 Cl
ATOM     11  C   UNL     1       1.782   8.872  18.475  0.00  0.00    +0.000 A 
ATOM     12  C   UNL     1       2.660   8.075  17.733  0.00  0.00    +0.000 A 
ENDBRANCH   5   6
BRANCH   1  14
ATOM     13  C   UNL     1       2.784   3.141  18.395  0.00  0.00    +0.000 C 
ATOM     14  C   UNL     1       2.765   3.993  17.348  0.00  0.00    +0.000 C 
BRANCH  13  15
ATOM     15  C   UNL     1       1.539   2.450  18.762  0.00  0.00    +0.000 C 
ATOM     16  O   UNL     1       0.581   2.335  18.011  0.00  0.00    +0.000 OA
BRANCH  15  17
ATOM     17  O   UNL     1       1.576   2.076  20.064  0.00  0.00    +0.000 OA
BRANCH  17  19
ATOM     18  C   UNL     1       2.179   3.389  21.958  0.00  0.00    +0.000 C 
ATOM     19  C   UNL     1       1.064   3.047  20.986  0.00  0.00    +0.000 C 
ENDBRANCH  17  19
ENDBRANCH  15  17
ENDBRANCH  13  15
BRANCH  13  20
ATOM     20  C   UNL     1       4.082   2.919  19.153  0.00  0.00    +0.000 C 
ATOM     21  N   UNL     1       5.160   2.735  19.782  0.00  0.00    +0.000 NA
ENDBRANCH  13  20
ENDBRANCH   1  14
TORSDOF 6
ENDMDL
MODEL 5
REMARK VINA RESULT:      -6.6      1.843      2.832
REMARK  Name = 
REMARK  7 active torsions:
REMARK  status: ('A' for Active; 'I' for Inactive)
REMARK    1  A    between atoms: C_1  and  C_2
REMARK    2  A    between atoms: C_2  and  O_3
REMARK    3  A    between atoms: O_3  and  C_4
REMARK    4  A    between atoms: C_4  and  C_6
REMARK    5  A    between atoms: C_6  and  C_7
REMARK    6  A    between atoms: C_9  and  C_10
REMARK    7  A    between atoms: N_14  and  C_15
REMARK                            x       y       z     vdW  Elec       q    Type
REMARK                         _______ _______ _______ _____ _____    ______ ____
ROOT
ATOM      1  C   UNL     1       3.852   3.840  18.025  0.00  0.00    +0.000 A 
ATOM      2  C   UNL     1       3.853   2.492  18.333  0.00  0.00    +0.000 A 
ATOM      3  C   UNL     1       2.844   2.258  19.287  0.00  0.00    +0.000 A 
ATOM      4  C   UNL     1       2.255   3.471  19.554  0.00  0.00    +0.000 A 
ATOM      5  N   UNL     1       2.877   4.468  18.817  0.00  0.00    +0.000 N 
ENDROOT
BRANCH   5   6
ATOM      6  C   UNL     1       2.520   5.857  18.882  0.00  0.00    +0.000 A 
ATOM      7  C   UNL     1       2.175   6.464  20.097  0.00  0.00    +0.000 A 
ATOM      8  C   UNL     1       1.835   7.821  20.142  0.00  0.00    +0.000 A 
ATOM      9  C   UNL     1       1.820   8.573  18.973  0.00  0.00    +0.000 A 
ATOM     10 CL   UNL     1       1.385  10.235  19.033  0.00  0.00    +0.000 Cl
ATOM     11  C   UNL     1       2.148   7.982  17.757  0.00  0.00    +0.000 A 
ATOM     12  C   UNL     1       2.495   6.628  17.709  0.00  0.00    +0.000 A 
ENDBRANCH   5   6
BRANCH   1  14
ATOM     13  C   UNL     1       5.782   5.092  17.257  0.00  0.00    +0.000 C 
ATOM     14  C   UNL     1       4.574   4.541  17.013  0.00  0.00    +0.000 C 
BRANCH  13  15
ATOM     15  C   UNL     1       6.520   5.693  16.136  0.00  0.00    +0.000 C 
ATOM     16  O   UNL     1       7.434   6.493  16.277  0.00  0.00    +0.000 OA
BRANCH  15  17
ATOM     17  O   UNL     1       5.965   5.322  14.957  0.00  0.00    +0.000 OA
BRANCH  17  19
ATOM     18  C   UNL     1       5.973   3.762  13.156  0.00  0.00    +0.000 C 
ATOM     19  C   UNL     1       6.839   4.602  14.076  0.00  0.00    +0.000 C 
ENDBRANCH  17  19
ENDBRANCH  15  17
ENDBRANCH  13  15
BRANCH  13  20
ATOM     20  C   UNL     1       6.337   5.079  18.672  0.00  0.00    +0.000 C 
ATOM     21  N   UNL     1       6.798   5.069  19.846  0.00  0.00    +0.000 NA
ENDBRANCH  13  20
ENDBRANCH   1  14
TORSDOF 6
ENDMDL
MODEL 6
REMARK VINA RESULT:      -6.6      2.908      4.640
REMARK  Name = 
REMARK  7 active torsions:
REMARK  status: ('A' for Active; 'I' for Inactive)
REMARK    1  A    between atoms: C_1  and  C_2
REMARK    2  A    between atoms: C_2  and  O_3
REMARK    3  A    between atoms: O_3  and  C_4
REMARK    4  A    between atoms: C_4  and  C_6
REMARK    5  A    between atoms: C_6  and  C_7
REMARK    6  A    between atoms: C_9  and  C_10
REMARK    7  A    between atoms: N_14  and  C_15
REMARK                            x       y       z     vdW  Elec       q    Type
REMARK                         _______ _______ _______ _____ _____    ______ ____
ROOT
ATOM      1  C   UNL     1       3.648   5.153  17.199  0.00  0.00    +0.000 A 
ATOM      2  C   UNL     1       4.783   4.750  16.518  0.00  0.00    +0.000 A 
ATOM      3  C   UNL     1       5.701   5.818  16.524  0.00  0.00    +0.000 A 
ATOM      4  C   UNL     1       5.103   6.858  17.197  0.00  0.00    +0.000 A 
ATOM      5  N   UNL     1       3.826   6.489  17.594  0.00  0.00    +0.000 N 
ENDROOT
BRANCH   5   6
ATOM      6  C   UNL     1       2.923   7.354  18.296  0.00  0.00    +0.000 A 
ATOM      7  C   UNL     1       2.396   8.503  17.692  0.00  0.00    +0.000 A 
ATOM      8  C   UNL     1       1.511   9.332  18.391  0.00  0.00    +0.000 A 
ATOM      9  C   UNL     1       1.162   9.027  19.702  0.00  0.00    +0.000 A 
ATOM     10 CL   UNL     1       0.089  10.059  20.562  0.00  0.00    +0.000 Cl
ATOM     11  C   UNL     1       1.686   7.896  20.321  0.00  0.00    +0.000 A 
ATOM     12  C   UNL     1       2.565   7.062  19.623  0.00  0.00    +0.000 A 
ENDBRANCH   5   6
BRANCH   1  14
ATOM     13  C   UNL     1       2.573   3.481  18.589  0.00  0.00    +0.000 C 
ATOM     14  C   UNL     1       2.508   4.391  17.594  0.00  0.00    +0.000 C 
BRANCH  13  15
ATOM     15  C   UNL     1       1.332   2.823  19.022  0.00  0.00    +0.000 C 
ATOM     16  O   UNL     1       0.899   1.795  18.520  0.00  0.00    +0.000 OA
BRANCH  15  17
ATOM     17  O   UNL     1       0.702   3.577  19.955  0.00  0.00    +0.000 OA
BRANCH  17  19
ATOM     18  C   UNL     1       1.543   2.522  21.918  0.00  0.00    +0.000 C 
ATOM     19  C   UNL     1       1.462   3.826  21.146  0.00  0.00    +0.000 C 
ENDBRANCH  17  19
ENDBRANCH  15  17
ENDBRANCH  13  15
BRANCH  13  20
ATOM     20  C   UNL     1       3.917   3.164  19.223  0.00  0.00    +0.000 C 
ATOM     21  N   UNL     1       5.033   2.900  19.749  0.00  0.00    +0.000 NA
ENDBRANCH  13  20
ENDBRANCH   1  14
TORSDOF 6
ENDMDL
MODEL 7
REMARK VINA RESULT:      -6.6      2.225      3.022
REMARK  Name = 
REMARK  7 active torsions:
REMARK  status: ('A' for Active; 'I' for Inactive)
REMARK    1  A    between atoms: C_1  and  C_2
REMARK    2  A    between atoms: C_2  and  O_3
REMARK    3  A    between atoms: O_3  and  C_4
REMARK    4  A    between atoms: C_4  and  C_6
REMARK    5  A    between atoms: C_6  and  C_7
REMARK    6  A    between atoms: C_9  and  C_10
REMARK    7  A    between atoms: N_14  and  C_15
REMARK                            x       y       z     vdW  Elec       q    Type
REMARK                         _______ _______ _______ _____ _____    ______ ____
ROOT
ATOM      1  C   UNL     1       3.338   5.092  18.990  0.00  0.00    +0.000 A 
ATOM      2  C   UNL     1       3.434   3.872  19.636  0.00  0.00    +0.000 A 
ATOM      3  C   UNL     1       2.567   3.893  20.746  0.00  0.00    +0.000 A 
ATOM      4  C   UNL     1       1.969   5.131  20.765  0.00  0.00    +0.000 A 
ATOM      5  N   UNL     1       2.449   5.902  19.716  0.00  0.00    +0.000 N 
ENDROOT
BRANCH   5   6
ATOM      6  C   UNL     1       2.048   7.257  19.467  0.00  0.00    +0.000 A 
ATOM      7  C   UNL     1       2.224   7.849  18.209  0.00  0.00    +0.000 A 
ATOM      8  C   UNL     1       1.821   9.169  17.983  0.00  0.00    +0.000 A 
ATOM      9  C   UNL     1       1.259   9.911  19.015  0.00  0.00    +0.000 A 
ATOM     10 CL   UNL     1       0.783  11.539  18.735  0.00  0.00    +0.000 Cl
ATOM     11  C   UNL     1       1.089   9.343  20.274  0.00  0.00    +0.000 A 
ATOM     12  C   UNL     1       1.484   8.020  20.501  0.00  0.00    +0.000 A 
ENDBRANCH   5   6
BRANCH   1  14
ATOM     13  C   UNL     1       5.226   5.647  17.573  0.00  0.00    +0.000 C 
ATOM     14  C   UNL     1       3.894   5.505  17.743  0.00  0.00    +0.000 C 
BRANCH  13  15
ATOM     15  C   UNL     1       5.733   5.958  16.228  0.00  0.00    +0.000 C 
ATOM     16  O   UNL     1       5.256   6.823  15.507  0.00  0.00    +0.000 OA
BRANCH  15  17
ATOM     17  O   UNL     1       6.706   5.082  15.879  0.00  0.00    +0.000 OA
BRANCH  17  19
ATOM     18  C   UNL     1       6.060   3.983  13.867  0.00  0.00    +0.000 C 
ATOM     19  C   UNL     1       6.235   3.828  15.367  0.00  0.00    +0.000 C 
ENDBRANCH  17  19
ENDBRANCH  15  17
ENDBRANCH  13  15
BRANCH  13  20
ATOM     20  C   UNL     1       6.153   5.487  18.766  0.00  0.00    +0.000 C 
ATOM     21  N   UNL     1       6.922   5.353  19.757  0.00  0.00    +0.000 NA
ENDBRANCH  13  20
ENDBRANCH   1  14
TORSDOF 6
ENDMDL
MODEL 8
REMARK VINA RESULT:      -6.5      2.303      4.183
REMARK  Name = 
REMARK  7 active torsions:
REMARK  status: ('A' for Active; 'I' for Inactive)
REMARK    1  A    between atoms: C_1  and  C_2
REMARK    2  A    between atoms: C_2  and  O_3
REMARK    3  A    between atoms: O_3  and  C_4
REMARK    4  A    between atoms: C_4  and  C_6
REMARK    5  A    between atoms: C_6  and  C_7
REMARK    6  A    between atoms: C_9  and  C_10
REMARK    7  A    between atoms: N_14  and  C_15
REMARK                            x       y       z     vdW  Elec       q    Type
REMARK                         _______ _______ _______ _____ _____    ______ ____
ROOT
ATOM      1  C   UNL     1       5.195   4.682  17.404  0.00  0.00    +0.000 A 
ATOM      2  C   UNL     1       5.983   4.325  16.324  0.00  0.00    +0.000 A 
ATOM      3  C   UNL     1       5.913   5.358  15.369  0.00  0.00    +0.000 A 
ATOM      4  C   UNL     1       5.072   6.320  15.879  0.00  0.00    +0.000 A 
ATOM      5  N   UNL     1       4.588   5.915  17.114  0.00  0.00    +0.000 N 
ENDROOT
BRANCH   5   6
ATOM      6  C   UNL     1       3.665   6.678  17.904  0.00  0.00    +0.000 A 
ATOM      7  C   UNL     1       3.219   6.218  19.151  0.00  0.00    +0.000 A 
ATOM      8  C   UNL     1       2.323   6.979  19.910  0.00  0.00    +0.000 A 
ATOM      9  C   UNL     1       1.853   8.193  19.420  0.00  0.00    +0.000 A 
ATOM     10 CL   UNL     1       0.738   9.114  20.349  0.00  0.00    +0.000 Cl
ATOM     11  C   UNL     1       2.276   8.658  18.179  0.00  0.00    +0.000 A 
ATOM     12  C   UNL     1       3.177   7.903  17.421  0.00  0.00    +0.000 A 
ENDBRANCH   5   6
BRANCH   1  14
ATOM     13  C   UNL     1       4.141   3.082  18.892  0.00  0.00    +0.000 C 
ATOM     14  C   UNL     1       5.058   4.050  18.675  0.00  0.00    +0.000 C 
BRANCH  13  15
ATOM     15  C   UNL     1       4.140   2.393  20.191  0.00  0.00    +0.000 C 
ATOM     16  O   UNL     1       5.149   1.961  20.730  0.00  0.00    +0.000 OA
BRANCH  15  17
ATOM     17  O   UNL     1       2.869   2.212  20.624  0.00  0.00    +0.000 OA
BRANCH  17  19
ATOM     18  C   UNL     1       1.000   3.688  20.673  0.00  0.00    +0.000 C 
ATOM     19  C   UNL     1       2.312   3.321  21.343  0.00  0.00    +0.000 C 
ENDBRANCH  17  19
ENDBRANCH  15  17
ENDBRANCH  13  15
BRANCH  13  20
ATOM     20  C   UNL     1       3.144   2.741  17.798  0.00  0.00    +0.000 C 
ATOM     21  N   UNL     1       2.315   2.457  16.890  0.00  0.00    +0.000 NA
ENDBRANCH  13  20
ENDBRANCH   1  14
TORSDOF 6
ENDMDL
MODEL 9
REMARK VINA RESULT:      -6.5      2.897      5.105
REMARK  Name = 
REMARK  7 active torsions:
REMARK  status: ('A' for Active; 'I' for Inactive)
REMARK    1  A    between atoms: C_1  and  C_2
REMARK    2  A    between atoms: C_2  and  O_3
REMARK    3  A    between atoms: O_3  and  C_4
REMARK    4  A    between atoms: C_4  and  C_6
REMARK    5  A    between atoms: C_6  and  C_7
REMARK    6  A    between atoms: C_9  and  C_10
REMARK    7  A    between atoms: N_14  and  C_15
REMARK                            x       y       z     vdW  Elec       q    Type
REMARK                         _______ _______ _______ _____ _____    ______ ____
ROOT
ATOM      1  C   UNL     1       2.414   4.220  18.264  0.00  0.00    +0.000 A 
ATOM      2  C   UNL     1       1.731   3.027  18.112  0.00  0.00    +0.000 A 
ATOM      3  C   UNL     1       2.658   2.033  17.745  0.00  0.00    +0.000 A 
ATOM      4  C   UNL     1       3.889   2.642  17.666  0.00  0.00    +0.000 A 
ATOM      5  N   UNL     1       3.763   3.995  17.946  0.00  0.00    +0.000 N 
ENDROOT
BRANCH   5   6
ATOM      6  C   UNL     1       4.856   4.924  17.924  0.00  0.00    +0.000 A 
ATOM      7  C   UNL     1       5.864   4.889  18.897  0.00  0.00    +0.000 A 
ATOM      8  C   UNL     1       6.925   5.800  18.855  0.00  0.00    +0.000 A 
ATOM      9  C   UNL     1       6.975   6.762  17.852  0.00  0.00    +0.000 A 
ATOM     10 CL   UNL     1       8.272   7.890  17.817  0.00  0.00    +0.000 Cl
ATOM     11  C   UNL     1       5.976   6.819  16.885  0.00  0.00    +0.000 A 
ATOM     12  C   UNL     1       4.918   5.905  16.921  0.00  0.00    +0.000 A 
ENDBRANCH   5   6
BRANCH   1  14
ATOM     13  C   UNL     1       1.864   5.713  20.095  0.00  0.00    +0.000 C 
ATOM     14  C   UNL     1       1.953   5.472  18.769  0.00  0.00    +0.000 C 
BRANCH  13  15
ATOM     15  C   UNL     1       1.497   7.065  20.541  0.00  0.00    +0.000 C 
ATOM     16  O   UNL     1       0.746   7.288  21.480  0.00  0.00    +0.000 OA
BRANCH  15  17
ATOM     17  O   UNL     1       2.013   7.993  19.699  0.00  0.00    +0.000 OA
BRANCH  17  19
ATOM     18  C   UNL     1       1.267   9.575  18.082  0.00  0.00    +0.000 C 
ATOM     19  C   UNL     1       1.220   9.178  19.546  0.00  0.00    +0.000 C 
ENDBRANCH  17  19
ENDBRANCH  15  17
ENDBRANCH  13  15
BRANCH  13  20
ATOM     20  C   UNL     1       2.137   4.586  21.077  0.00  0.00    +0.000 C 
ATOM     21  N   UNL     1       2.364   3.651  21.892  0.00  0.00    +0.000 NA
ENDBRANCH  13  20
ENDBRANCH   1  14
TORSDOF 6
ENDMDL
