MODEL 1
REMARK VINA RESULT:      -6.5      0.000      0.000
REMARK  Name = 
REMARK  6 active torsions:
REMARK  status: ('A' for Active; 'I' for Inactive)
REMARK    1  A    between atoms: C_1  and  O_2
REMARK    2  A    between atoms: O_2  and  C_3
REMARK    3  A    between atoms: C_6  and  C_7
REMARK    4  A    between atoms: C_7  and  N_8
REMARK    5  A    between atoms: C_9  and  C_11
REMARK    6  A    between atoms: C_15  and  C_16
REMARK                            x       y       z     vdW  Elec       q    Type
REMARK                         _______ _______ _______ _____ _____    ______ ____
ROOT
ATOM      1  N   UNL     1       4.595   5.160  19.373  0.00  0.00    +0.000 N 
ATOM      2  C   UNL     1       4.326   3.817  19.540  0.00  0.00    +0.000 C 
ATOM      3  O   UNL     1       5.198   2.971  19.362  0.00  0.00    +0.000 OA
ATOM      4  H   UNL     1       3.862   5.823  19.590  0.00  0.00    +0.000 HD
ENDROOT
BRANCH   2   5
ATOM      5  C   UNL     1       2.949   3.497  19.935  0.00  0.00    +0.000 A 
ATOM      6  S   UNL     1       2.620   2.860  21.502  0.00  0.00    +0.000 S 
ATOM      7  C   UNL     1       0.944   2.801  21.218  0.00  0.00    +0.000 A 
ATOM      8  C   UNL     1       0.623   3.246  19.958  0.00  0.00    +0.000 A 
ATOM      9  C   UNL     1       1.774   3.647  19.198  0.00  0.00    +0.000 A 
ATOM     10  C   UNL     1       1.678   4.164  17.796  0.00  0.00    +0.000 C 
ENDBRANCH   2   5
BRANCH   1  11
ATOM     11  C   UNL     1       5.889   5.656  18.978  0.00  0.00    +0.000 C 
BRANCH  11  15
ATOM     12  C   UNL     1       6.548   4.982  14.752  0.00  0.00    +0.000 A 
ATOM     13  C   UNL     1       5.448   5.720  15.190  0.00  0.00    +0.000 A 
ATOM     14  C   UNL     1       5.242   5.948  16.555  0.00  0.00    +0.000 A 
ATOM     15  C   UNL     1       6.131   5.432  17.506  0.00  0.00    +0.000 A 
ATOM     16  C   UNL     1       7.219   4.669  17.061  0.00  0.00    +0.000 A 
ATOM     17  C   UNL     1       7.429   4.448  15.693  0.00  0.00    +0.000 A 
BRANCH  12  19
ATOM     18  C   UNL     1       6.215   3.547  12.897  0.00  0.00    +0.000 C 
ATOM     19  O   UNL     1       6.633   4.813  13.396  0.00  0.00    +0.000 OA
ENDBRANCH  12  19
ENDBRANCH  11  15
ENDBRANCH   1  11
TORSDOF 4
ENDMDL
MODEL 2
REMARK VINA RESULT:      -6.5      0.248      1.143
REMARK  Name = 
REMARK  6 active torsions:
REMARK  status: ('A' for Active; 'I' for Inactive)
REMARK    1  A    between atoms: C_1  and  O_2
REMARK    2  A    between atoms: O_2  and  C_3
REMARK    3  A    between atoms: C_6  and  C_7
REMARK    4  A    between atoms: C_7  and  N_8
REMARK    5  A    between atoms: C_9  and  C_11
REMARK    6  A    between atoms: C_15  and  C_16
REMARK                            x       y       z     vdW  Elec       q    Type
REMARK                         _______ _______ _______ _____ _____    ______ ____
ROOT
ATOM      1  N   UNL     1       4.452   5.273  19.221  0.00  0.00    +0.000 N 
ATOM      2  C   UNL     1       4.265   3.933  19.490  0.00  0.00    +0.000 C 
ATOM      3  O   UNL     1       5.186   3.130  19.372  0.00  0.00    +0.000 OA
ATOM      4  H   UNL     1       3.681   5.905  19.391  0.00  0.00    +0.000 HD
ENDROOT
BRANCH   2   5
ATOM      5  C   UNL     1       2.909   3.561  19.915  0.00  0.00    +0.000 A 
ATOM      6  S   UNL     1       2.638   2.923  21.492  0.00  0.00    +0.000 S 
ATOM      7  C   UNL     1       0.960   2.795  21.243  0.00  0.00    +0.000 A 
ATOM      8  C   UNL     1       0.597   3.219  19.988  0.00  0.00    +0.000 A 
ATOM      9  C   UNL     1       1.715   3.660  19.202  0.00  0.00    +0.000 A 
ATOM     10  C   UNL     1       1.570   4.164  17.800  0.00  0.00    +0.000 C 
ENDBRANCH   2   5
BRANCH   1  11
ATOM     11  C   UNL     1       5.714   5.815  18.783  0.00  0.00    +0.000 C 
BRANCH  11  15
ATOM     12  C   UNL     1       6.539   4.804  14.654  0.00  0.00    +0.000 A 
ATOM     13  C   UNL     1       7.514   4.629  15.637  0.00  0.00    +0.000 A 
ATOM     14  C   UNL     1       7.243   4.944  16.972  0.00  0.00    +0.000 A 
ATOM     15  C   UNL     1       5.992   5.449  17.346  0.00  0.00    +0.000 A 
ATOM     16  C   UNL     1       5.026   5.649  16.350  0.00  0.00    +0.000 A 
ATOM     17  C   UNL     1       5.296   5.325  15.013  0.00  0.00    +0.000 A 
BRANCH  12  19
ATOM     18  C   UNL     1       6.055   3.612  12.665  0.00  0.00    +0.000 C 
ATOM     19  O   UNL     1       6.928   4.477  13.383  0.00  0.00    +0.000 OA
ENDBRANCH  12  19
ENDBRANCH  11  15
ENDBRANCH   1  11
TORSDOF 4
ENDMDL
MODEL 3
REMARK VINA RESULT:      -6.4      1.262      1.715
REMARK  Name = 
REMARK  6 active torsions:
REMARK  status: ('A' for Active; 'I' for Inactive)
REMARK    1  A    between atoms: C_1  and  O_2
REMARK    2  A    between atoms: O_2  and  C_3
REMARK    3  A    between atoms: C_6  and  C_7
REMARK    4  A    between atoms: C_7  and  N_8
REMARK    5  A    between atoms: C_9  and  C_11
REMARK    6  A    between atoms: C_15  and  C_16
REMARK                            x       y       z     vdW  Elec       q    Type
REMARK                         _______ _______ _______ _____ _____    ______ ____
ROOT
ATOM      1  N   UNL     1       4.485   5.285  18.049  0.00  0.00    +0.000 N 
ATOM      2  C   UNL     1       4.415   4.286  18.998  0.00  0.00    +0.000 C 
ATOM      3  O   UNL     1       5.432   3.744  19.421  0.00  0.00    +0.000 OA
ATOM      4  H   UNL     1       3.626   5.744  17.776  0.00  0.00    +0.000 HD
ENDROOT
BRANCH   2   5
ATOM      5  C   UNL     1       3.060   3.937  19.443  0.00  0.00    +0.000 A 
ATOM      6  S   UNL     1       2.339   4.772  20.767  0.00  0.00    +0.000 S 
ATOM      7  C   UNL     1       0.890   3.889  20.643  0.00  0.00    +0.000 A 
ATOM      8  C   UNL     1       0.940   2.968  19.625  0.00  0.00    +0.000 A 
ATOM      9  C   UNL     1       2.193   2.977  18.923  0.00  0.00    +0.000 A 
ATOM     10  C   UNL     1       2.485   2.059  17.777  0.00  0.00    +0.000 C 
ENDBRANCH   2   5
BRANCH   1  11
ATOM     11  C   UNL     1       5.731   5.749  17.491  0.00  0.00    +0.000 C 
BRANCH  11  15
ATOM     12  C   UNL     1       6.411   4.082  13.553  0.00  0.00    +0.000 A 
ATOM     13  C   UNL     1       7.409   4.814  14.196  0.00  0.00    +0.000 A 
ATOM     14  C   UNL     1       7.194   5.342  15.473  0.00  0.00    +0.000 A 
ATOM     15  C   UNL     1       5.969   5.153  16.126  0.00  0.00    +0.000 A 
ATOM     16  C   UNL     1       4.961   4.440  15.463  0.00  0.00    +0.000 A 
ATOM     17  C   UNL     1       5.181   3.904  14.187  0.00  0.00    +0.000 A 
BRANCH  12  19
ATOM     18  C   UNL     1       5.876   2.637  11.754  0.00  0.00    +0.000 C 
ATOM     19  O   UNL     1       6.734   3.632  12.301  0.00  0.00    +0.000 OA
ENDBRANCH  12  19
ENDBRANCH  11  15
ENDBRANCH   1  11
TORSDOF 4
ENDMDL
MODEL 4
REMARK VINA RESULT:      -6.4      1.269      1.420
REMARK  Name = 
REMARK  6 active torsions:
REMARK  status: ('A' for Active; 'I' for Inactive)
REMARK    1  A    between atoms: C_1  and  O_2
REMARK    2  A    between atoms: O_2  and  C_3
REMARK    3  A    between atoms: C_6  and  C_7
REMARK    4  A    between atoms: C_7  and  N_8
REMARK    5  A    between atoms: C_9  and  C_11
REMARK    6  A    between atoms: C_15  and  C_16
REMARK                            x       y       z     vdW  Elec       q    Type
REMARK                         _______ _______ _______ _____ _____    ______ ____
ROOT
ATOM      1  N   UNL     1       4.332   5.503  18.338  0.00  0.00    +0.000 N 
ATOM      2  C   UNL     1       4.511   4.391  19.135  0.00  0.00    +0.000 C 
ATOM      3  O   UNL     1       5.633   3.941  19.350  0.00  0.00    +0.000 OA
ATOM      4  H   UNL     1       3.396   5.873  18.240  0.00  0.00    +0.000 HD
ENDROOT
BRANCH   2   5
ATOM      5  C   UNL     1       3.280   3.810  19.686  0.00  0.00    +0.000 A 
ATOM      6  S   UNL     1       2.350   4.683  20.844  0.00  0.00    +0.000 S 
ATOM      7  C   UNL     1       1.173   3.458  20.945  0.00  0.00    +0.000 A 
ATOM      8  C   UNL     1       1.471   2.396  20.126  0.00  0.00    +0.000 A 
ATOM      9  C   UNL     1       2.693   2.579  19.394  0.00  0.00    +0.000 A 
ATOM     10  C   UNL     1       3.226   1.556  18.441  0.00  0.00    +0.000 C 
ENDBRANCH   2   5
BRANCH   1  11
ATOM     11  C   UNL     1       5.426   6.198  17.707  0.00  0.00    +0.000 C 
BRANCH  11  15
ATOM     12  C   UNL     1       6.491   4.292  13.968  0.00  0.00    +0.000 A 
ATOM     13  C   UNL     1       5.173   4.272  14.424  0.00  0.00    +0.000 A 
ATOM     14  C   UNL     1       4.827   4.898  15.626  0.00  0.00    +0.000 A 
ATOM     15  C   UNL     1       5.798   5.548  16.397  0.00  0.00    +0.000 A 
ATOM     16  C   UNL     1       7.125   5.541  15.947  0.00  0.00    +0.000 A 
ATOM     17  C   UNL     1       7.470   4.921  14.737  0.00  0.00    +0.000 A 
BRANCH  12  19
ATOM     18  C   UNL     1       5.546   3.219  12.079  0.00  0.00    +0.000 C 
ATOM     19  O   UNL     1       6.709   3.631  12.788  0.00  0.00    +0.000 OA
ENDBRANCH  12  19
ENDBRANCH  11  15
ENDBRANCH   1  11
TORSDOF 4
ENDMDL
MODEL 5
REMARK VINA RESULT:      -6.3      4.461      6.824
REMARK  Name = 
REMARK  6 active torsions:
REMARK  status: ('A' for Active; 'I' for Inactive)
REMARK    1  A    between atoms: C_1  and  O_2
REMARK    2  A    between atoms: O_2  and  C_3
REMARK    3  A    between atoms: C_6  and  C_7
REMARK    4  A    between atoms: C_7  and  N_8
REMARK    5  A    between atoms: C_9  and  C_11
REMARK    6  A    between atoms: C_15  and  C_16
REMARK                            x       y       z     vdW  Elec       q    Type
REMARK                         _______ _______ _______ _____ _____    ______ ____
ROOT
ATOM      1  N   UNL     1       3.668   5.866  18.483  0.00  0.00    +0.000 N 
ATOM      2  C   UNL     1       4.968   5.422  18.604  0.00  0.00    +0.000 C 
ATOM      3  O   UNL     1       5.495   5.302  19.706  0.00  0.00    +0.000 OA
ATOM      4  H   UNL     1       3.256   5.891  17.559  0.00  0.00    +0.000 HD
ENDROOT
BRANCH   2   5
ATOM      5  C   UNL     1       5.646   5.115  17.338  0.00  0.00    +0.000 A 
ATOM      6  S   UNL     1       5.087   3.825  16.343  0.00  0.00    +0.000 S 
ATOM      7  C   UNL     1       6.269   4.117  15.155  0.00  0.00    +0.000 A 
ATOM      8  C   UNL     1       7.087   5.168  15.496  0.00  0.00    +0.000 A 
ATOM      9  C   UNL     1       6.745   5.754  16.762  0.00  0.00    +0.000 A 
ATOM     10  C   UNL     1       7.494   6.910  17.348  0.00  0.00    +0.000 C 
ENDBRANCH   2   5
BRANCH   1  11
ATOM     11  C   UNL     1       2.854   6.223  19.618  0.00  0.00    +0.000 C 
BRANCH  11  15
ATOM     12  C   UNL     1       0.856  10.014  18.998  0.00  0.00    +0.000 A 
ATOM     13  C   UNL     1       0.836   9.397  20.249  0.00  0.00    +0.000 A 
ATOM     14  C   UNL     1       1.492   8.179  20.453  0.00  0.00    +0.000 A 
ATOM     15  C   UNL     1       2.172   7.551  19.402  0.00  0.00    +0.000 A 
ATOM     16  C   UNL     1       2.165   8.162  18.141  0.00  0.00    +0.000 A 
ATOM     17  C   UNL     1       1.515   9.388  17.940  0.00  0.00    +0.000 A 
BRANCH  12  19
ATOM     18  C   UNL     1      -1.246  11.083  18.768  0.00  0.00    +0.000 C 
ATOM     19  O   UNL     1       0.165  11.193  18.919  0.00  0.00    +0.000 OA
ENDBRANCH  12  19
ENDBRANCH  11  15
ENDBRANCH   1  11
TORSDOF 4
ENDMDL
MODEL 6
REMARK VINA RESULT:      -6.3      1.419      1.506
REMARK  Name = 
REMARK  6 active torsions:
REMARK  status: ('A' for Active; 'I' for Inactive)
REMARK    1  A    between atoms: C_1  and  O_2
REMARK    2  A    between atoms: O_2  and  C_3
REMARK    3  A    between atoms: C_6  and  C_7
REMARK    4  A    between atoms: C_7  and  N_8
REMARK    5  A    between atoms: C_9  and  C_11
REMARK    6  A    between atoms: C_15  and  C_16
REMARK                            x       y       z     vdW  Elec       q    Type
REMARK                         _______ _______ _______ _____ _____    ______ ____
ROOT
ATOM      1  N   UNL     1       5.123   4.136  18.753  0.00  0.00    +0.000 N 
ATOM      2  C   UNL     1       3.951   4.780  19.092  0.00  0.00    +0.000 C 
ATOM      3  O   UNL     1       3.830   5.993  18.944  0.00  0.00    +0.000 OA
ATOM      4  H   UNL     1       5.155   3.129  18.835  0.00  0.00    +0.000 HD
ENDROOT
BRANCH   2   5
ATOM      5  C   UNL     1       2.894   3.915  19.631  0.00  0.00    +0.000 A 
ATOM      6  S   UNL     1       2.314   4.149  21.236  0.00  0.00    +0.000 S 
ATOM      7  C   UNL     1       1.178   2.890  21.098  0.00  0.00    +0.000 A 
ATOM      8  C   UNL     1       1.230   2.288  19.864  0.00  0.00    +0.000 A 
ATOM      9  C   UNL     1       2.224   2.865  19.003  0.00  0.00    +0.000 A 
ATOM     10  C   UNL     1       2.471   2.376  17.610  0.00  0.00    +0.000 C 
ENDBRANCH   2   5
BRANCH   1  11
ATOM     11  C   UNL     1       6.270   4.828  18.219  0.00  0.00    +0.000 C 
BRANCH  11  15
ATOM     12  C   UNL     1       6.534   4.309  13.928  0.00  0.00    +0.000 A 
ATOM     13  C   UNL     1       5.523   3.683  14.658  0.00  0.00    +0.000 A 
ATOM     14  C   UNL     1       5.430   3.860  16.042  0.00  0.00    +0.000 A 
ATOM     15  C   UNL     1       6.355   4.662  16.722  0.00  0.00    +0.000 A 
ATOM     16  C   UNL     1       7.385   5.266  15.987  0.00  0.00    +0.000 A 
ATOM     17  C   UNL     1       7.471   5.095  14.598  0.00  0.00    +0.000 A 
BRANCH  12  19
ATOM     18  C   UNL     1       5.683   2.984  12.158  0.00  0.00    +0.000 C 
ATOM     19  O   UNL     1       6.530   4.046  12.584  0.00  0.00    +0.000 OA
ENDBRANCH  12  19
ENDBRANCH  11  15
ENDBRANCH   1  11
TORSDOF 4
ENDMDL
MODEL 7
REMARK VINA RESULT:      -6.2      2.701      3.526
REMARK  Name = 
REMARK  6 active torsions:
REMARK  status: ('A' for Active; 'I' for Inactive)
REMARK    1  A    between atoms: C_1  and  O_2
REMARK    2  A    between atoms: O_2  and  C_3
REMARK    3  A    between atoms: C_6  and  C_7
REMARK    4  A    between atoms: C_7  and  N_8
REMARK    5  A    between atoms: C_9  and  C_11
REMARK    6  A    between atoms: C_15  and  C_16
REMARK                            x       y       z     vdW  Elec       q    Type
REMARK                         _______ _______ _______ _____ _____    ______ ____
ROOT
ATOM      1  N   UNL     1       4.304   3.938  17.457  0.00  0.00    +0.000 N 
ATOM      2  C   UNL     1       3.243   4.684  17.927  0.00  0.00    +0.000 C 
ATOM      3  O   UNL     1       3.064   5.838  17.548  0.00  0.00    +0.000 OA
ATOM      4  H   UNL     1       4.375   2.973  17.751  0.00  0.00    +0.000 HD
ENDROOT
BRANCH   2   5
ATOM      5  C   UNL     1       2.373   3.999  18.892  0.00  0.00    +0.000 A 
ATOM      6  S   UNL     1       1.958   2.343  18.664  0.00  0.00    +0.000 S 
ATOM      7  C   UNL     1       1.041   2.289  20.096  0.00  0.00    +0.000 A 
ATOM      8  C   UNL     1       1.034   3.501  20.743  0.00  0.00    +0.000 A 
ATOM      9  C   UNL     1       1.796   4.506  20.056  0.00  0.00    +0.000 A 
ATOM     10  C   UNL     1       1.934   5.907  20.565  0.00  0.00    +0.000 C 
ENDBRANCH   2   5
BRANCH   1  11
ATOM     11  C   UNL     1       5.264   4.452  16.512  0.00  0.00    +0.000 C 
BRANCH  11  15
ATOM     12  C   UNL     1       7.955   7.300  18.355  0.00  0.00    +0.000 A 
ATOM     13  C   UNL     1       7.170   7.669  17.261  0.00  0.00    +0.000 A 
ATOM     14  C   UNL     1       6.292   6.753  16.674  0.00  0.00    +0.000 A 
ATOM     15  C   UNL     1       6.191   5.446  17.166  0.00  0.00    +0.000 A 
ATOM     16  C   UNL     1       7.002   5.073  18.247  0.00  0.00    +0.000 A 
ATOM     17  C   UNL     1       7.875   5.995  18.841  0.00  0.00    +0.000 A 
BRANCH  12  19
ATOM     18  C   UNL     1       8.573   9.587  18.314  0.00  0.00    +0.000 C 
ATOM     19  O   UNL     1       8.786   8.278  18.831  0.00  0.00    +0.000 OA
ENDBRANCH  12  19
ENDBRANCH  11  15
ENDBRANCH   1  11
TORSDOF 4
ENDMDL
MODEL 8
REMARK VINA RESULT:      -6.2      3.677      3.992
REMARK  Name = 
REMARK  6 active torsions:
REMARK  status: ('A' for Active; 'I' for Inactive)
REMARK    1  A    between atoms: C_1  and  O_2
REMARK    2  A    between atoms: O_2  and  C_3
REMARK    3  A    between atoms: C_6  and  C_7
REMARK    4  A    between atoms: C_7  and  N_8
REMARK    5  A    between atoms: C_9  and  C_11
REMARK    6  A    between atoms: C_15  and  C_16
REMARK                            x       y       z     vdW  Elec       q    Type
REMARK                         _______ _______ _______ _____ _____    ______ ____
ROOT
ATOM      1  N   UNL     1       3.284   6.423  19.770  0.00  0.00    +0.000 N 
ATOM      2  C   UNL     1       2.017   6.637  20.273  0.00  0.00    +0.000 C 
ATOM      3  O   UNL     1       1.334   5.703  20.684  0.00  0.00    +0.000 OA
ATOM      4  H   UNL     1       3.832   7.229  19.500  0.00  0.00    +0.000 HD
ENDROOT
BRANCH   2   5
ATOM      5  C   UNL     1       1.570   8.035  20.272  0.00  0.00    +0.000 A 
ATOM      6  S   UNL     1       1.083   8.792  21.742  0.00  0.00    +0.000 S 
ATOM      7  C   UNL     1       0.774  10.278  20.972  0.00  0.00    +0.000 A 
ATOM      8  C   UNL     1       1.025  10.215  19.622  0.00  0.00    +0.000 A 
ATOM      9  C   UNL     1       1.480   8.920  19.198  0.00  0.00    +0.000 A 
ATOM     10  C   UNL     1       1.813   8.606  17.773  0.00  0.00    +0.000 C 
ENDBRANCH   2   5
BRANCH   1  11
ATOM     11  C   UNL     1       3.881   5.114  19.685  0.00  0.00    +0.000 C 
BRANCH  11  15
ATOM     12  C   UNL     1       6.778   4.882  16.476  0.00  0.00    +0.000 A 
ATOM     13  C   UNL     1       5.417   4.717  16.217  0.00  0.00    +0.000 A 
ATOM     14  C   UNL     1       4.480   4.804  17.252  0.00  0.00    +0.000 A 
ATOM     15  C   UNL     1       4.892   5.049  18.567  0.00  0.00    +0.000 A 
ATOM     16  C   UNL     1       6.263   5.186  18.825  0.00  0.00    +0.000 A 
ATOM     17  C   UNL     1       7.200   5.108  17.786  0.00  0.00    +0.000 A 
BRANCH  12  19
ATOM     18  C   UNL     1       6.956   4.780  14.116  0.00  0.00    +0.000 C 
ATOM     19  O   UNL     1       7.597   4.759  15.386  0.00  0.00    +0.000 OA
ENDBRANCH  12  19
ENDBRANCH  11  15
ENDBRANCH   1  11
TORSDOF 4
ENDMDL
MODEL 9
REMARK VINA RESULT:      -6.2      4.797      6.817
REMARK  Name = 
REMARK  6 active torsions:
REMARK  status: ('A' for Active; 'I' for Inactive)
REMARK    1  A    between atoms: C_1  and  O_2
REMARK    2  A    between atoms: O_2  and  C_3
REMARK    3  A    between atoms: C_6  and  C_7
REMARK    4  A    between atoms: C_7  and  N_8
REMARK    5  A    between atoms: C_9  and  C_11
REMARK    6  A    between atoms: C_15  and  C_16
REMARK                            x       y       z     vdW  Elec       q    Type
REMARK                         _______ _______ _______ _____ _____    ______ ____
ROOT
ATOM      1  N   UNL     1       2.424   6.395  18.225  0.00  0.00    +0.000 N 
ATOM      2  C   UNL     1       3.367   5.518  18.719  0.00  0.00    +0.000 C 
ATOM      3  O   UNL     1       4.458   5.919  19.115  0.00  0.00    +0.000 OA
ATOM      4  H   UNL     1       1.518   6.026  17.968  0.00  0.00    +0.000 HD
ENDROOT
BRANCH   2   5
ATOM      5  C   UNL     1       2.965   4.105  18.729  0.00  0.00    +0.000 A 
ATOM      6  S   UNL     1       3.797   2.959  17.749  0.00  0.00    +0.000 S 
ATOM      7  C   UNL     1       2.843   1.665  18.306  0.00  0.00    +0.000 A 
ATOM      8  C   UNL     1       1.900   2.081  19.215  0.00  0.00    +0.000 A 
ATOM      9  C   UNL     1       1.952   3.494  19.466  0.00  0.00    +0.000 A 
ATOM     10  C   UNL     1       1.021   4.181  20.416  0.00  0.00    +0.000 C 
ENDBRANCH   2   5
BRANCH   1  11
ATOM     11  C   UNL     1       2.649   7.816  18.132  0.00  0.00    +0.000 C 
BRANCH  11  15
ATOM     12  C   UNL     1       0.033   9.954  20.840  0.00  0.00    +0.000 A 
ATOM     13  C   UNL     1       0.717   8.814  21.265  0.00  0.00    +0.000 A 
ATOM     14  C   UNL     1       1.572   8.131  20.394  0.00  0.00    +0.000 A 
ATOM     15  C   UNL     1       1.749   8.572  19.077  0.00  0.00    +0.000 A 
ATOM     16  C   UNL     1       1.038   9.701  18.648  0.00  0.00    +0.000 A 
ATOM     17  C   UNL     1       0.188  10.391  19.524  0.00  0.00    +0.000 A 
BRANCH  12  19
ATOM     18  C   UNL     1      -0.592  10.097  23.120  0.00  0.00    +0.000 C 
ATOM     19  O   UNL     1      -0.786  10.525  21.777  0.00  0.00    +0.000 OA
ENDBRANCH  12  19
ENDBRANCH  11  15
ENDBRANCH   1  11
TORSDOF 4
ENDMDL
