MODEL 1
REMARK VINA RESULT:      -7.8      0.000      0.000
REMARK  Name = 
REMARK  6 active torsions:
REMARK  status: ('A' for Active; 'I' for Inactive)
REMARK    1  A    between atoms: C_1  and  C_2
REMARK    2  A    between atoms: C_6  and  N_7
REMARK    3  A    between atoms: N_7  and  C_8
REMARK    4  A    between atoms: C_19  and  N_20
REMARK    5  A    between atoms: C_23  and  C_24
REMARK    6  A    between atoms: C_24  and  C_26
REMARK                            x       y       z     vdW  Elec       q    Type
REMARK                         _______ _______ _______ _____ _____    ______ ____
ROOT
ATOM      1  C   UNL     1       2.770   7.044  18.806  0.00  0.00    +0.000 C 
ATOM      2  C   UNL     1       1.815   8.166  19.088  0.00  0.00    +0.000 A 
ATOM      3  C   UNL     1       1.242   8.885  18.036  0.00  0.00    +0.000 A 
ATOM      4  C   UNL     1       0.347   9.930  18.285  0.00  0.00    +0.000 A 
ATOM      5  C   UNL     1       0.001  10.259  19.613  0.00  0.00    +0.000 A 
ATOM      6  C   UNL     1      -0.867  11.218  20.221  0.00  0.00    +0.000 A 
ATOM      7  C   UNL     1      -0.719  11.134  21.597  0.00  0.00    +0.000 A 
ATOM      8  N   UNL     1       0.143  10.080  21.825  0.00  0.00    +0.000 N 
ATOM      9  C   UNL     1       0.611   9.552  20.644  0.00  0.00    +0.000 A 
ATOM     10  C   UNL     1       1.517   8.508  20.418  0.00  0.00    +0.000 A 
ATOM     11  H   UNL     1       0.408   9.736  22.737  0.00  0.00    +0.000 HD
ENDROOT
BRANCH   6  12
ATOM     12  N   UNL     1      -1.657  12.129  19.592  0.00  0.00    +0.000 N 
ATOM     13  H   UNL     1      -1.340  13.102  19.612  0.00  0.00    +0.000 HD
BRANCH  12  14
ATOM     14  C   UNL     1      -3.064  12.082  19.453  0.00  0.00    +0.000 A 
ATOM     15  N   UNL     1      -3.809  12.620  20.450  0.00  0.00    +0.000 NA
ATOM     16  C   UNL     1      -5.147  12.560  20.425  0.00  0.00    +0.000 A 
ATOM     17  N   UNL     1      -5.852  13.080  21.472  0.00  0.00    +0.000 N 
ATOM     18  C   UNL     1      -5.188  13.709  22.614  0.00  0.00    +0.000 C 
ATOM     19  C   UNL     1      -5.622  13.015  23.915  0.00  0.00    +0.000 C 
ATOM     20  O   UNL     1      -7.056  12.966  24.039  0.00  0.00    +0.000 OA
ATOM     21  C   UNL     1      -7.629  12.246  22.934  0.00  0.00    +0.000 C 
ATOM     22  C   UNL     1      -7.296  12.915  21.590  0.00  0.00    +0.000 C 
ATOM     23  N   UNL     1      -5.803  11.984  19.412  0.00  0.00    +0.000 NA
ATOM     24  C   UNL     1      -5.068  11.458  18.409  0.00  0.00    +0.000 A 
ATOM     25  C   UNL     1      -3.692  11.476  18.385  0.00  0.00    +0.000 A 
BRANCH  25  26
ATOM     26  N   UNL     1      -2.999  10.834  17.287  0.00  0.00    +0.000 N 
ATOM     27  O   UNL     1      -3.196   9.630  17.078  0.00  0.00    +0.000 OA
ATOM     28  O   UNL     1      -2.224  11.532  16.616  0.00  0.00    +0.000 OA
ENDBRANCH  25  26
ENDBRANCH  12  14
ENDBRANCH   6  12
BRANCH   7  29
ATOM     29  C   UNL     1      -1.373  11.918  22.630  0.00  0.00    +0.000 C 
ATOM     30  O   UNL     1      -2.264  11.466  23.346  0.00  0.00    +0.000 OA
BRANCH  29  31
ATOM     31  C   UNL     1      -0.983  13.346  22.827  0.00  0.00    +0.000 A 
ATOM     32  C   UNL     1       0.072  13.880  22.074  0.00  0.00    +0.000 A 
ATOM     33  C   UNL     1       0.471  15.205  22.270  0.00  0.00    +0.000 A 
ATOM     34  C   UNL     1      -0.174  15.992  23.222  0.00  0.00    +0.000 A 
ATOM     35 CL   UNL     1       0.323  17.619  23.471  0.00  0.00    +0.000 Cl
ATOM     36  C   UNL     1      -1.215  15.465  23.987  0.00  0.00    +0.000 A 
ATOM     37  C   UNL     1      -1.615  14.141  23.796  0.00  0.00    +0.000 A 
ENDBRANCH  29  31
ENDBRANCH   7  29
TORSDOF 5
ENDMDL
MODEL 2
REMARK VINA RESULT:      -7.8      3.110      6.518
REMARK  Name = 
REMARK  6 active torsions:
REMARK  status: ('A' for Active; 'I' for Inactive)
REMARK    1  A    between atoms: C_1  and  C_2
REMARK    2  A    between atoms: C_6  and  N_7
REMARK    3  A    between atoms: N_7  and  C_8
REMARK    4  A    between atoms: C_19  and  N_20
REMARK    5  A    between atoms: C_23  and  C_24
REMARK    6  A    between atoms: C_24  and  C_26
REMARK                            x       y       z     vdW  Elec       q    Type
REMARK                         _______ _______ _______ _____ _____    ______ ____
ROOT
ATOM      1  C   UNL     1       3.436   6.273  18.084  0.00  0.00    +0.000 C 
ATOM      2  C   UNL     1       2.547   7.328  18.672  0.00  0.00    +0.000 A 
ATOM      3  C   UNL     1       2.290   7.350  20.045  0.00  0.00    +0.000 A 
ATOM      4  C   UNL     1       1.467   8.330  20.606  0.00  0.00    +0.000 A 
ATOM      5  C   UNL     1       0.895   9.324  19.784  0.00  0.00    +0.000 A 
ATOM      6  C   UNL     1       0.052  10.456  20.007  0.00  0.00    +0.000 A 
ATOM      7  C   UNL     1      -0.267  11.016  18.780  0.00  0.00    +0.000 A 
ATOM      8  N   UNL     1       0.448  10.304  17.838  0.00  0.00    +0.000 N 
ATOM      9  C   UNL     1       1.137   9.262  18.415  0.00  0.00    +0.000 A 
ATOM     10  C   UNL     1       1.951   8.284  17.830  0.00  0.00    +0.000 A 
ATOM     11  H   UNL     1       0.466  10.508  16.849  0.00  0.00    +0.000 HD
ENDROOT
BRANCH   6  12
ATOM     12  N   UNL     1      -0.442  10.893  21.197  0.00  0.00    +0.000 N 
ATOM     13  H   UNL     1      -1.300  10.445  21.529  0.00  0.00    +0.000 HD
BRANCH  12  14
ATOM     14  C   UNL     1      -0.341  12.199  21.733  0.00  0.00    +0.000 A 
ATOM     15  N   UNL     1       0.742  12.935  21.381  0.00  0.00    +0.000 NA
ATOM     16  C   UNL     1       0.945  14.156  21.895  0.00  0.00    +0.000 A 
ATOM     17  N   UNL     1       2.070  14.844  21.542  0.00  0.00    +0.000 N 
ATOM     18  C   UNL     1       3.054  14.289  20.612  0.00  0.00    +0.000 C 
ATOM     19  C   UNL     1       4.440  14.262  21.277  0.00  0.00    +0.000 C 
ATOM     20  O   UNL     1       4.806  15.555  21.797  0.00  0.00    +0.000 OA
ATOM     21  C   UNL     1       3.846  15.988  22.777  0.00  0.00    +0.000 C 
ATOM     22  C   UNL     1       2.436  16.106  22.175  0.00  0.00    +0.000 C 
ATOM     23  N   UNL     1       0.083  14.704  22.759  0.00  0.00    +0.000 NA
ATOM     24  C   UNL     1      -1.004  13.981  23.103  0.00  0.00    +0.000 A 
ATOM     25  C   UNL     1      -1.259  12.717  22.621  0.00  0.00    +0.000 A 
BRANCH  25  26
ATOM     26  N   UNL     1      -2.427  12.006  23.097  0.00  0.00    +0.000 N 
ATOM     27  O   UNL     1      -2.306  10.825  23.450  0.00  0.00    +0.000 OA
ATOM     28  O   UNL     1      -3.503  12.622  23.112  0.00  0.00    +0.000 OA
ENDBRANCH  25  26
ENDBRANCH  12  14
ENDBRANCH   6  12
BRANCH   7  29
ATOM     29  C   UNL     1      -1.111  12.164  18.497  0.00  0.00    +0.000 C 
ATOM     30  O   UNL     1      -0.661  13.292  18.307  0.00  0.00    +0.000 OA
BRANCH  29  31
ATOM     31  C   UNL     1      -2.594  11.995  18.461  0.00  0.00    +0.000 A 
ATOM     32  C   UNL     1      -3.362  12.426  19.552  0.00  0.00    +0.000 A 
ATOM     33  C   UNL     1      -4.748  12.245  19.548  0.00  0.00    +0.000 A 
ATOM     34  C   UNL     1      -5.364  11.625  18.463  0.00  0.00    +0.000 A 
ATOM     35 CL   UNL     1      -7.069  11.393  18.463  0.00  0.00    +0.000 Cl
ATOM     36  C   UNL     1      -4.608  11.178  17.380  0.00  0.00    +0.000 A 
ATOM     37  C   UNL     1      -3.223  11.355  17.382  0.00  0.00    +0.000 A 
ENDBRANCH  29  31
ENDBRANCH   7  29
TORSDOF 5
ENDMDL
MODEL 3
REMARK VINA RESULT:      -7.8      3.459      6.611
REMARK  Name = 
REMARK  6 active torsions:
REMARK  status: ('A' for Active; 'I' for Inactive)
REMARK    1  A    between atoms: C_1  and  C_2
REMARK    2  A    between atoms: C_6  and  N_7
REMARK    3  A    between atoms: N_7  and  C_8
REMARK    4  A    between atoms: C_19  and  N_20
REMARK    5  A    between atoms: C_23  and  C_24
REMARK    6  A    between atoms: C_24  and  C_26
REMARK                            x       y       z     vdW  Elec       q    Type
REMARK                         _______ _______ _______ _____ _____    ______ ____
ROOT
ATOM      1  C   UNL     1      -5.395  11.567  17.252  0.00  0.00    +0.000 C 
ATOM      2  C   UNL     1      -4.039  11.441  17.878  0.00  0.00    +0.000 A 
ATOM      3  C   UNL     1      -3.757  12.083  19.087  0.00  0.00    +0.000 A 
ATOM      4  C   UNL     1      -2.498  11.969  19.683  0.00  0.00    +0.000 A 
ATOM      5  C   UNL     1      -1.496  11.186  19.071  0.00  0.00    +0.000 A 
ATOM      6  C   UNL     1      -0.149  10.837  19.395  0.00  0.00    +0.000 A 
ATOM      7  C   UNL     1       0.379  10.101  18.346  0.00  0.00    +0.000 A 
ATOM      8  N   UNL     1      -0.654   9.919  17.449  0.00  0.00    +0.000 N 
ATOM      9  C   UNL     1      -1.789  10.584  17.851  0.00  0.00    +0.000 A 
ATOM     10  C   UNL     1      -3.040  10.692  17.230  0.00  0.00    +0.000 A 
ATOM     11  H   UNL     1      -0.595   9.374  16.600  0.00  0.00    +0.000 HD
ENDROOT
BRANCH   6  12
ATOM     12  N   UNL     1       0.556  11.212  20.496  0.00  0.00    +0.000 N 
ATOM     13  H   UNL     1       0.897  10.459  21.100  0.00  0.00    +0.000 HD
BRANCH  12  14
ATOM     14  C   UNL     1       0.391  12.397  21.250  0.00  0.00    +0.000 A 
ATOM     15  N   UNL     1      -0.684  12.469  22.073  0.00  0.00    +0.000 NA
ATOM     16  C   UNL     1      -0.948  13.580  22.772  0.00  0.00    +0.000 A 
ATOM     17  N   UNL     1      -2.065  13.619  23.558  0.00  0.00    +0.000 N 
ATOM     18  C   UNL     1      -2.973  12.478  23.663  0.00  0.00    +0.000 C 
ATOM     19  C   UNL     1      -4.398  12.910  23.282  0.00  0.00    +0.000 C 
ATOM     20  O   UNL     1      -4.826  14.059  24.038  0.00  0.00    +0.000 OA
ATOM     21  C   UNL     1      -3.943  15.169  23.804  0.00  0.00    +0.000 C 
ATOM     22  C   UNL     1      -2.500  14.841  24.224  0.00  0.00    +0.000 C 
ATOM     23  N   UNL     1      -0.157  14.656  22.702  0.00  0.00    +0.000 NA
ATOM     24  C   UNL     1       0.923  14.587  21.893  0.00  0.00    +0.000 A 
ATOM     25  C   UNL     1       1.237  13.480  21.139  0.00  0.00    +0.000 A 
BRANCH  25  26
ATOM     26  N   UNL     1       2.389  13.530  20.263  0.00  0.00    +0.000 N 
ATOM     27  O   UNL     1       3.477  13.899  20.725  0.00  0.00    +0.000 OA
ATOM     28  O   UNL     1       2.218  13.211  19.077  0.00  0.00    +0.000 OA
ENDBRANCH  25  26
ENDBRANCH  12  14
ENDBRANCH   6  12
BRANCH   7  29
ATOM     29  C   UNL     1       1.715   9.546  18.207  0.00  0.00    +0.000 C 
ATOM     30  O   UNL     1       2.625  10.138  17.630  0.00  0.00    +0.000 OA
BRANCH  29  31
ATOM     31  C   UNL     1       2.008   8.189  18.755  0.00  0.00    +0.000 A 
ATOM     32  C   UNL     1       2.521   7.200  17.903  0.00  0.00    +0.000 A 
ATOM     33  C   UNL     1       2.770   5.915  18.393  0.00  0.00    +0.000 A 
ATOM     34  C   UNL     1       2.498   5.615  19.726  0.00  0.00    +0.000 A 
ATOM     35 CL   UNL     1       2.795   4.030  20.327  0.00  0.00    +0.000 Cl
ATOM     36  C   UNL     1       1.974   6.587  20.577  0.00  0.00    +0.000 A 
ATOM     37  C   UNL     1       1.721   7.871  20.091  0.00  0.00    +0.000 A 
ENDBRANCH  29  31
ENDBRANCH   7  29
TORSDOF 5
ENDMDL
MODEL 4
REMARK VINA RESULT:      -7.7      3.664      6.921
REMARK  Name = 
REMARK  6 active torsions:
REMARK  status: ('A' for Active; 'I' for Inactive)
REMARK    1  A    between atoms: C_1  and  C_2
REMARK    2  A    between atoms: C_6  and  N_7
REMARK    3  A    between atoms: N_7  and  C_8
REMARK    4  A    between atoms: C_19  and  N_20
REMARK    5  A    between atoms: C_23  and  C_24
REMARK    6  A    between atoms: C_24  and  C_26
REMARK                            x       y       z     vdW  Elec       q    Type
REMARK                         _______ _______ _______ _____ _____    ______ ____
ROOT
ATOM      1  C   UNL     1      -4.282  10.089  14.007  0.00  0.00    +0.000 C 
ATOM      2  C   UNL     1      -3.669  10.420  15.335  0.00  0.00    +0.000 A 
ATOM      3  C   UNL     1      -4.340  11.253  16.234  0.00  0.00    +0.000 A 
ATOM      4  C   UNL     1      -3.782  11.566  17.477  0.00  0.00    +0.000 A 
ATOM      5  C   UNL     1      -2.530  11.026  17.843  0.00  0.00    +0.000 A 
ATOM      6  C   UNL     1      -1.696  11.107  19.000  0.00  0.00    +0.000 A 
ATOM      7  C   UNL     1      -0.515  10.428  18.739  0.00  0.00    +0.000 A 
ATOM      8  N   UNL     1      -0.669   9.861  17.490  0.00  0.00    +0.000 N 
ATOM      9  C   UNL     1      -1.865  10.227  16.918  0.00  0.00    +0.000 A 
ATOM     10  C   UNL     1      -2.401   9.908  15.663  0.00  0.00    +0.000 A 
ATOM     11  H   UNL     1       0.006   9.259  17.041  0.00  0.00    +0.000 HD
ENDROOT
BRANCH   6  12
ATOM     12  N   UNL     1      -1.946  11.791  20.149  0.00  0.00    +0.000 N 
ATOM     13  H   UNL     1      -2.563  11.336  20.827  0.00  0.00    +0.000 HD
BRANCH  12  14
ATOM     14  C   UNL     1      -2.006  13.195  20.307  0.00  0.00    +0.000 A 
ATOM     15  N   UNL     1      -0.967  13.923  19.829  0.00  0.00    +0.000 NA
ATOM     16  C   UNL     1      -0.917  15.251  19.995  0.00  0.00    +0.000 A 
ATOM     17  N   UNL     1       0.169  15.936  19.531  0.00  0.00    +0.000 N 
ATOM     18  C   UNL     1       1.273  15.261  18.849  0.00  0.00    +0.000 C 
ATOM     19  C   UNL     1       2.595  15.564  19.572  0.00  0.00    +0.000 C 
ATOM     20  O   UNL     1       2.800  16.981  19.735  0.00  0.00    +0.000 OA
ATOM     21  C   UNL     1       1.727  17.555  20.501  0.00  0.00    +0.000 C 
ATOM     22  C   UNL     1       0.368  17.353  19.810  0.00  0.00    +0.000 C 
ATOM     23  N   UNL     1      -1.893  15.915  20.624  0.00  0.00    +0.000 NA
ATOM     24  C   UNL     1      -2.937  15.198  21.092  0.00  0.00    +0.000 A 
ATOM     25  C   UNL     1      -3.038  13.831  20.964  0.00  0.00    +0.000 A 
BRANCH  25  26
ATOM     26  N   UNL     1      -4.174  13.153  21.551  0.00  0.00    +0.000 N 
ATOM     27  O   UNL     1      -3.975  12.297  22.424  0.00  0.00    +0.000 OA
ATOM     28  O   UNL     1      -5.301  13.458  21.131  0.00  0.00    +0.000 OA
ENDBRANCH  25  26
ENDBRANCH  12  14
ENDBRANCH   6  12
BRANCH   7  29
ATOM     29  C   UNL     1       0.642  10.256  19.600  0.00  0.00    +0.000 C 
ATOM     30  O   UNL     1       1.094  11.161  20.298  0.00  0.00    +0.000 OA
BRANCH  29  31
ATOM     31  C   UNL     1       1.346   8.940  19.630  0.00  0.00    +0.000 A 
ATOM     32  C   UNL     1       2.067   8.520  18.503  0.00  0.00    +0.000 A 
ATOM     33  C   UNL     1       2.705   7.276  18.503  0.00  0.00    +0.000 A 
ATOM     34  C   UNL     1       2.615   6.450  19.622  0.00  0.00    +0.000 A 
ATOM     35 CL   UNL     1       3.391   4.915  19.618  0.00  0.00    +0.000 Cl
ATOM     36  C   UNL     1       1.887   6.851  20.741  0.00  0.00    +0.000 A 
ATOM     37  C   UNL     1       1.247   8.092  20.744  0.00  0.00    +0.000 A 
ENDBRANCH  29  31
ENDBRANCH   7  29
TORSDOF 5
ENDMDL
MODEL 5
REMARK VINA RESULT:      -7.6      3.038      5.369
REMARK  Name = 
REMARK  6 active torsions:
REMARK  status: ('A' for Active; 'I' for Inactive)
REMARK    1  A    between atoms: C_1  and  C_2
REMARK    2  A    between atoms: C_6  and  N_7
REMARK    3  A    between atoms: N_7  and  C_8
REMARK    4  A    between atoms: C_19  and  N_20
REMARK    5  A    between atoms: C_23  and  C_24
REMARK    6  A    between atoms: C_24  and  C_26
REMARK                            x       y       z     vdW  Elec       q    Type
REMARK                         _______ _______ _______ _____ _____    ______ ____
ROOT
ATOM      1  C   UNL     1       3.283  17.156  19.919  0.00  0.00    +0.000 C 
ATOM      2  C   UNL     1       2.392  15.978  19.660  0.00  0.00    +0.000 A 
ATOM      3  C   UNL     1       1.305  16.093  18.790  0.00  0.00    +0.000 A 
ATOM      4  C   UNL     1       0.470  15.001  18.537  0.00  0.00    +0.000 A 
ATOM      5  C   UNL     1       0.729  13.758  19.153  0.00  0.00    +0.000 A 
ATOM      6  C   UNL     1       0.122  12.465  19.112  0.00  0.00    +0.000 A 
ATOM      7  C   UNL     1       0.771  11.645  20.021  0.00  0.00    +0.000 A 
ATOM      8  N   UNL     1       1.815  12.391  20.531  0.00  0.00    +0.000 N 
ATOM      9  C   UNL     1       1.796  13.677  20.043  0.00  0.00    +0.000 A 
ATOM     10  C   UNL     1       2.641  14.760  20.318  0.00  0.00    +0.000 A 
ATOM     11  H   UNL     1       2.505  12.050  21.184  0.00  0.00    +0.000 HD
ENDROOT
BRANCH   6  12
ATOM     12  N   UNL     1      -0.960  12.087  18.380  0.00  0.00    +0.000 N 
ATOM     13  H   UNL     1      -0.886  12.194  17.364  0.00  0.00    +0.000 HD
BRANCH  12  14
ATOM     14  C   UNL     1      -2.318  12.149  18.773  0.00  0.00    +0.000 A 
ATOM     15  N   UNL     1      -2.617  12.881  19.874  0.00  0.00    +0.000 NA
ATOM     16  C   UNL     1      -3.868  12.937  20.350  0.00  0.00    +0.000 A 
ATOM     17  N   UNL     1      -4.112  13.655  21.485  0.00  0.00    +0.000 N 
ATOM     18  C   UNL     1      -3.049  14.371  22.190  0.00  0.00    +0.000 C 
ATOM     19  C   UNL     1      -2.986  13.901  23.652  0.00  0.00    +0.000 C 
ATOM     20  O   UNL     1      -4.270  13.997  24.298  0.00  0.00    +0.000 OA
ATOM     21  C   UNL     1      -5.239  13.189  23.607  0.00  0.00    +0.000 C 
ATOM     22  C   UNL     1      -5.412  13.638  22.147  0.00  0.00    +0.000 C 
ATOM     23  N   UNL     1      -4.874  12.291  19.751  0.00  0.00    +0.000 NA
ATOM     24  C   UNL     1      -4.586  11.571  18.646  0.00  0.00    +0.000 A 
ATOM     25  C   UNL     1      -3.319  11.462  18.119  0.00  0.00    +0.000 A 
BRANCH  25  26
ATOM     26  N   UNL     1      -3.110  10.619  16.961  0.00  0.00    +0.000 N 
ATOM     27  O   UNL     1      -2.691  11.133  15.915  0.00  0.00    +0.000 OA
ATOM     28  O   UNL     1      -3.378   9.414  17.076  0.00  0.00    +0.000 OA
ENDBRANCH  25  26
ENDBRANCH  12  14
ENDBRANCH   6  12
BRANCH   7  29
ATOM     29  C   UNL     1       0.497  10.257  20.349  0.00  0.00    +0.000 C 
ATOM     30  O   UNL     1      -0.348   9.922  21.177  0.00  0.00    +0.000 OA
BRANCH  29  31
ATOM     31  C   UNL     1       1.284   9.175  19.686  0.00  0.00    +0.000 A 
ATOM     32  C   UNL     1       1.620   9.301  18.331  0.00  0.00    +0.000 A 
ATOM     33  C   UNL     1       2.329   8.282  17.688  0.00  0.00    +0.000 A 
ATOM     34  C   UNL     1       2.692   7.137  18.392  0.00  0.00    +0.000 A 
ATOM     35 CL   UNL     1       3.555   5.878  17.598  0.00  0.00    +0.000 Cl
ATOM     36  C   UNL     1       2.349   6.995  19.736  0.00  0.00    +0.000 A 
ATOM     37  C   UNL     1       1.639   8.009  20.382  0.00  0.00    +0.000 A 
ENDBRANCH  29  31
ENDBRANCH   7  29
TORSDOF 5
ENDMDL
MODEL 6
REMARK VINA RESULT:      -7.5      3.353      6.313
REMARK  Name = 
REMARK  6 active torsions:
REMARK  status: ('A' for Active; 'I' for Inactive)
REMARK    1  A    between atoms: C_1  and  C_2
REMARK    2  A    between atoms: C_6  and  N_7
REMARK    3  A    between atoms: N_7  and  C_8
REMARK    4  A    between atoms: C_19  and  N_20
REMARK    5  A    between atoms: C_23  and  C_24
REMARK    6  A    between atoms: C_24  and  C_26
REMARK                            x       y       z     vdW  Elec       q    Type
REMARK                         _______ _______ _______ _____ _____    ______ ____
ROOT
ATOM      1  C   UNL     1       3.843  16.787  18.384  0.00  0.00    +0.000 C 
ATOM      2  C   UNL     1       2.927  15.702  18.865  0.00  0.00    +0.000 A 
ATOM      3  C   UNL     1       2.206  15.862  20.052  0.00  0.00    +0.000 A 
ATOM      4  C   UNL     1       1.345  14.860  20.508  0.00  0.00    +0.000 A 
ATOM      5  C   UNL     1       1.184  13.674  19.760  0.00  0.00    +0.000 A 
ATOM      6  C   UNL     1       0.400  12.488  19.905  0.00  0.00    +0.000 A 
ATOM      7  C   UNL     1       0.737  11.611  18.886  0.00  0.00    +0.000 A 
ATOM      8  N   UNL     1       1.633  12.286  18.081  0.00  0.00    +0.000 N 
ATOM      9  C   UNL     1       1.937  13.523  18.600  0.00  0.00    +0.000 A 
ATOM     10  C   UNL     1       2.813  14.510  18.128  0.00  0.00    +0.000 A 
ATOM     11  H   UNL     1       2.025  11.926  17.223  0.00  0.00    +0.000 HD
ENDROOT
BRANCH   6  12
ATOM     12  N   UNL     1      -0.479  12.199  20.902  0.00  0.00    +0.000 N 
ATOM     13  H   UNL     1      -0.416  11.263  21.311  0.00  0.00    +0.000 HD
BRANCH  12  14
ATOM     14  C   UNL     1      -1.792  12.703  21.053  0.00  0.00    +0.000 A 
ATOM     15  N   UNL     1      -2.736  12.254  20.190  0.00  0.00    +0.000 NA
ATOM     16  C   UNL     1      -3.988  12.730  20.224  0.00  0.00    +0.000 A 
ATOM     17  N   UNL     1      -4.894  12.276  19.309  0.00  0.00    +0.000 N 
ATOM     18  C   UNL     1      -4.538  11.278  18.300  0.00  0.00    +0.000 C 
ATOM     19  C   UNL     1      -4.839  11.828  16.896  0.00  0.00    +0.000 C 
ATOM     20  O   UNL     1      -6.196  12.297  16.788  0.00  0.00    +0.000 OA
ATOM     21  C   UNL     1      -6.441  13.344  17.742  0.00  0.00    +0.000 C 
ATOM     22  C   UNL     1      -6.226  12.856  19.185  0.00  0.00    +0.000 C 
ATOM     23  N   UNL     1      -4.363  13.652  21.118  0.00  0.00    +0.000 NA
ATOM     24  C   UNL     1      -3.430  14.094  21.989  0.00  0.00    +0.000 A 
ATOM     25  C   UNL     1      -2.126  13.655  21.993  0.00  0.00    +0.000 A 
BRANCH  25  26
ATOM     26  N   UNL     1      -1.192  14.235  22.935  0.00  0.00    +0.000 N 
ATOM     27  O   UNL     1      -0.364  13.499  23.488  0.00  0.00    +0.000 OA
ATOM     28  O   UNL     1      -1.282  15.453  23.151  0.00  0.00    +0.000 OA
ENDBRANCH  25  26
ENDBRANCH  12  14
ENDBRANCH   6  12
BRANCH   7  29
ATOM     29  C   UNL     1       0.226  10.275  18.632  0.00  0.00    +0.000 C 
ATOM     30  O   UNL     1      -0.908  10.066  18.207  0.00  0.00    +0.000 OA
BRANCH  29  31
ATOM     31  C   UNL     1       1.087   9.091  18.920  0.00  0.00    +0.000 A 
ATOM     32  C   UNL     1       1.833   8.513  17.883  0.00  0.00    +0.000 A 
ATOM     33  C   UNL     1       2.619   7.384  18.129  0.00  0.00    +0.000 A 
ATOM     34  C   UNL     1       2.652   6.826  19.406  0.00  0.00    +0.000 A 
ATOM     35 CL   UNL     1       3.611   5.430  19.707  0.00  0.00    +0.000 Cl
ATOM     36  C   UNL     1       1.902   7.383  20.441  0.00  0.00    +0.000 A 
ATOM     37  C   UNL     1       1.114   8.510  20.198  0.00  0.00    +0.000 A 
ENDBRANCH  29  31
ENDBRANCH   7  29
TORSDOF 5
ENDMDL
MODEL 7
REMARK VINA RESULT:      -7.4      3.220      4.712
REMARK  Name = 
REMARK  6 active torsions:
REMARK  status: ('A' for Active; 'I' for Inactive)
REMARK    1  A    between atoms: C_1  and  C_2
REMARK    2  A    between atoms: C_6  and  N_7
REMARK    3  A    between atoms: N_7  and  C_8
REMARK    4  A    between atoms: C_19  and  N_20
REMARK    5  A    between atoms: C_23  and  C_24
REMARK    6  A    between atoms: C_24  and  C_26
REMARK                            x       y       z     vdW  Elec       q    Type
REMARK                         _______ _______ _______ _____ _____    ______ ____
ROOT
ATOM      1  C   UNL     1       2.485   5.776  17.980  0.00  0.00    +0.000 C 
ATOM      2  C   UNL     1       2.125   7.095  18.598  0.00  0.00    +0.000 A 
ATOM      3  C   UNL     1       1.967   7.207  19.981  0.00  0.00    +0.000 A 
ATOM      4  C   UNL     1       1.637   8.431  20.569  0.00  0.00    +0.000 A 
ATOM      5  C   UNL     1       1.474   9.578  19.764  0.00  0.00    +0.000 A 
ATOM      6  C   UNL     1       1.169  10.952  20.014  0.00  0.00    +0.000 A 
ATOM      7  C   UNL     1       1.043  11.603  18.797  0.00  0.00    +0.000 A 
ATOM      8  N   UNL     1       1.363  10.671  17.830  0.00  0.00    +0.000 N 
ATOM      9  C   UNL     1       1.602   9.436  18.386  0.00  0.00    +0.000 A 
ATOM     10  C   UNL     1       1.924   8.217  17.774  0.00  0.00    +0.000 A 
ATOM     11  H   UNL     1       1.413  10.859  16.839  0.00  0.00    +0.000 HD
ENDROOT
BRANCH   6  12
ATOM     12  N   UNL     1       0.952  11.540  21.221  0.00  0.00    +0.000 N 
ATOM     13  H   UNL     1       1.659  11.378  21.944  0.00  0.00    +0.000 HD
BRANCH  12  14
ATOM     14  C   UNL     1      -0.299  11.812  21.823  0.00  0.00    +0.000 A 
ATOM     15  N   UNL     1      -0.871  13.012  21.561  0.00  0.00    +0.000 NA
ATOM     16  C   UNL     1      -2.023  13.372  22.142  0.00  0.00    +0.000 A 
ATOM     17  N   UNL     1      -2.540  14.608  21.877  0.00  0.00    +0.000 N 
ATOM     18  C   UNL     1      -1.876  15.544  20.970  0.00  0.00    +0.000 C 
ATOM     19  C   UNL     1      -1.607  16.871  21.698  0.00  0.00    +0.000 C 
ATOM     20  O   UNL     1      -2.805  17.401  22.297  0.00  0.00    +0.000 OA
ATOM     21  C   UNL     1      -3.343  16.468  23.250  0.00  0.00    +0.000 C 
ATOM     22  C   UNL     1      -3.703  15.128  22.586  0.00  0.00    +0.000 C 
ATOM     23  N   UNL     1      -2.664  12.559  22.988  0.00  0.00    +0.000 NA
ATOM     24  C   UNL     1      -2.106  11.356  23.244  0.00  0.00    +0.000 A 
ATOM     25  C   UNL     1      -0.918  10.937  22.691  0.00  0.00    +0.000 A 
BRANCH  25  26
ATOM     26  N   UNL     1      -0.380   9.649  23.075  0.00  0.00    +0.000 N 
ATOM     27  O   UNL     1      -0.932   8.621  22.660  0.00  0.00    +0.000 OA
ATOM     28  O   UNL     1       0.611   9.644  23.822  0.00  0.00    +0.000 OA
ENDBRANCH  25  26
ENDBRANCH  12  14
ENDBRANCH   6  12
BRANCH   7  29
ATOM     29  C   UNL     1       0.719  12.996  18.542  0.00  0.00    +0.000 C 
ATOM     30  O   UNL     1      -0.399  13.365  18.187  0.00  0.00    +0.000 OA
BRANCH  29  31
ATOM     31  C   UNL     1       1.781  14.035  18.680  0.00  0.00    +0.000 A 
ATOM     32  C   UNL     1       3.085  13.747  18.251  0.00  0.00    +0.000 A 
ATOM     33  C   UNL     1       4.098  14.698  18.404  0.00  0.00    +0.000 A 
ATOM     34  C   UNL     1       3.813  15.929  18.992  0.00  0.00    +0.000 A 
ATOM     35 CL   UNL     1       5.062  17.095  19.189  0.00  0.00    +0.000 Cl
ATOM     36  C   UNL     1       2.523  16.219  19.436  0.00  0.00    +0.000 A 
ATOM     37  C   UNL     1       1.509  15.271  19.287  0.00  0.00    +0.000 A 
ENDBRANCH  29  31
ENDBRANCH   7  29
TORSDOF 5
ENDMDL
MODEL 8
REMARK VINA RESULT:      -7.3      3.734      6.384
REMARK  Name = 
REMARK  6 active torsions:
REMARK  status: ('A' for Active; 'I' for Inactive)
REMARK    1  A    between atoms: C_1  and  C_2
REMARK    2  A    between atoms: C_6  and  N_7
REMARK    3  A    between atoms: N_7  and  C_8
REMARK    4  A    between atoms: C_19  and  N_20
REMARK    5  A    between atoms: C_23  and  C_24
REMARK    6  A    between atoms: C_24  and  C_26
REMARK                            x       y       z     vdW  Elec       q    Type
REMARK                         _______ _______ _______ _____ _____    ______ ____
ROOT
ATOM      1  C   UNL     1       3.677  16.760  17.577  0.00  0.00    +0.000 C 
ATOM      2  C   UNL     1       3.045  15.663  18.380  0.00  0.00    +0.000 A 
ATOM      3  C   UNL     1       2.929  15.781  19.768  0.00  0.00    +0.000 A 
ATOM      4  C   UNL     1       2.338  14.767  20.527  0.00  0.00    +0.000 A 
ATOM      5  C   UNL     1       1.837  13.611  19.891  0.00  0.00    +0.000 A 
ATOM      6  C   UNL     1       1.173  12.425  20.331  0.00  0.00    +0.000 A 
ATOM      7  C   UNL     1       1.006  11.585  19.242  0.00  0.00    +0.000 A 
ATOM      8  N   UNL     1       1.466  12.285  18.145  0.00  0.00    +0.000 N 
ATOM      9  C   UNL     1       1.995  13.500  18.513  0.00  0.00    +0.000 A 
ATOM     10  C   UNL     1       2.592  14.500  17.733  0.00  0.00    +0.000 A 
ATOM     11  H   UNL     1       1.429  11.956  17.190  0.00  0.00    +0.000 HD
ENDROOT
BRANCH   6  12
ATOM     12  N   UNL     1       0.822  12.102  21.605  0.00  0.00    +0.000 N 
ATOM     13  H   UNL     1       1.354  11.350  22.051  0.00  0.00    +0.000 HD
BRANCH  12  14
ATOM     14  C   UNL     1      -0.469  12.185  22.179  0.00  0.00    +0.000 A 
ATOM     15  N   UNL     1      -1.118  13.372  22.087  0.00  0.00    +0.000 NA
ATOM     16  C   UNL     1      -2.316  13.552  22.659  0.00  0.00    +0.000 A 
ATOM     17  N   UNL     1      -2.913  14.777  22.574  0.00  0.00    +0.000 N 
ATOM     18  C   UNL     1      -2.285  15.893  21.867  0.00  0.00    +0.000 C 
ATOM     19  C   UNL     1      -2.144  17.096  22.814  0.00  0.00    +0.000 C 
ATOM     20  O   UNL     1      -3.401  17.438  23.430  0.00  0.00    +0.000 OA
ATOM     21  C   UNL     1      -3.904  16.325  24.189  0.00  0.00    +0.000 C 
ATOM     22  C   UNL     1      -4.138  15.093  23.299  0.00  0.00    +0.000 C 
ATOM     23  N   UNL     1      -2.927  12.568  23.328  0.00  0.00    +0.000 NA
ATOM     24  C   UNL     1      -2.291  11.380  23.413  0.00  0.00    +0.000 A 
ATOM     25  C   UNL     1      -1.054  11.139  22.859  0.00  0.00    +0.000 A 
BRANCH  25  26
ATOM     26  N   UNL     1      -0.437   9.844  23.055  0.00  0.00    +0.000 N 
ATOM     27  O   UNL     1      -0.931   8.855  22.498  0.00  0.00    +0.000 OA
ATOM     28  O   UNL     1       0.559   9.792  23.793  0.00  0.00    +0.000 OA
ENDBRANCH  25  26
ENDBRANCH  12  14
ENDBRANCH   6  12
BRANCH   7  29
ATOM     29  C   UNL     1       0.406  10.262  19.198  0.00  0.00    +0.000 C 
ATOM     30  O   UNL     1      -0.808  10.079  19.259  0.00  0.00    +0.000 OA
BRANCH  29  31
ATOM     31  C   UNL     1       1.285   9.059  19.107  0.00  0.00    +0.000 A 
ATOM     32  C   UNL     1       1.936   8.773  17.899  0.00  0.00    +0.000 A 
ATOM     33  C   UNL     1       2.736   7.632  17.787  0.00  0.00    +0.000 A 
ATOM     34  C   UNL     1       2.877   6.774  18.876  0.00  0.00    +0.000 A 
ATOM     35 CL   UNL     1       3.854   5.364  18.736  0.00  0.00    +0.000 Cl
ATOM     36  C   UNL     1       2.221   7.041  20.077  0.00  0.00    +0.000 A 
ATOM     37  C   UNL     1       1.419   8.178  20.191  0.00  0.00    +0.000 A 
ENDBRANCH  29  31
ENDBRANCH   7  29
TORSDOF 5
ENDMDL
MODEL 9
REMARK VINA RESULT:      -7.2      3.348      5.833
REMARK  Name = 
REMARK  6 active torsions:
REMARK  status: ('A' for Active; 'I' for Inactive)
REMARK    1  A    between atoms: C_1  and  C_2
REMARK    2  A    between atoms: C_6  and  N_7
REMARK    3  A    between atoms: N_7  and  C_8
REMARK    4  A    between atoms: C_19  and  N_20
REMARK    5  A    between atoms: C_23  and  C_24
REMARK    6  A    between atoms: C_24  and  C_26
REMARK                            x       y       z     vdW  Elec       q    Type
REMARK                         _______ _______ _______ _____ _____    ______ ____
ROOT
ATOM      1  C   UNL     1      -4.260  10.317  14.271  0.00  0.00    +0.000 C 
ATOM      2  C   UNL     1      -3.581  10.521  15.593  0.00  0.00    +0.000 A 
ATOM      3  C   UNL     1      -4.176  11.315  16.576  0.00  0.00    +0.000 A 
ATOM      4  C   UNL     1      -3.555  11.510  17.814  0.00  0.00    +0.000 A 
ATOM      5  C   UNL     1      -2.319  10.887  18.088  0.00  0.00    +0.000 A 
ATOM      6  C   UNL     1      -1.438  10.844  19.212  0.00  0.00    +0.000 A 
ATOM      7  C   UNL     1      -0.304  10.132  18.855  0.00  0.00    +0.000 A 
ATOM      8  N   UNL     1      -0.532   9.666  17.576  0.00  0.00    +0.000 N 
ATOM      9  C   UNL     1      -1.730  10.128  17.081  0.00  0.00    +0.000 A 
ATOM     10  C   UNL     1      -2.329   9.927  15.831  0.00  0.00    +0.000 A 
ATOM     11  H   UNL     1       0.094   9.067  17.057  0.00  0.00    +0.000 HD
ENDROOT
BRANCH   6  12
ATOM     12  N   UNL     1      -1.610  11.452  20.417  0.00  0.00    +0.000 N 
ATOM     13  H   UNL     1      -1.870  10.848  21.202  0.00  0.00    +0.000 HD
BRANCH  12  14
ATOM     14  C   UNL     1      -2.074  12.768  20.647  0.00  0.00    +0.000 A 
ATOM     15  N   UNL     1      -3.286  12.909  21.238  0.00  0.00    +0.000 NA
ATOM     16  C   UNL     1      -3.825  14.120  21.432  0.00  0.00    +0.000 A 
ATOM     17  N   UNL     1      -5.066  14.210  21.995  0.00  0.00    +0.000 N 
ATOM     18  C   UNL     1      -5.817  13.021  22.400  0.00  0.00    +0.000 C 
ATOM     19  C   UNL     1      -7.188  13.011  21.704  0.00  0.00    +0.000 C 
ATOM     20  O   UNL     1      -7.902  14.243  21.916  0.00  0.00    +0.000 OA
ATOM     21  C   UNL     1      -7.146  15.354  21.402  0.00  0.00    +0.000 C 
ATOM     22  C   UNL     1      -5.780  15.477  22.097  0.00  0.00    +0.000 C 
ATOM     23  N   UNL     1      -3.186  15.237  21.069  0.00  0.00    +0.000 NA
ATOM     24  C   UNL     1      -1.973  15.105  20.491  0.00  0.00    +0.000 A 
ATOM     25  C   UNL     1      -1.374  13.889  20.252  0.00  0.00    +0.000 A 
BRANCH  25  26
ATOM     26  N   UNL     1      -0.094  13.856  19.576  0.00  0.00    +0.000 N 
ATOM     27  O   UNL     1      -0.057  14.055  18.354  0.00  0.00    +0.000 OA
ATOM     28  O   UNL     1       0.909  13.614  20.265  0.00  0.00    +0.000 OA
ENDBRANCH  25  26
ENDBRANCH  12  14
ENDBRANCH   6  12
BRANCH   7  29
ATOM     29  C   UNL     1       0.876   9.843  19.652  0.00  0.00    +0.000 C 
ATOM     30  O   UNL     1       1.227  10.543  20.599  0.00  0.00    +0.000 OA
BRANCH  29  31
ATOM     31  C   UNL     1       1.728   8.668  19.305  0.00  0.00    +0.000 A 
ATOM     32  C   UNL     1       2.410   8.651  18.080  0.00  0.00    +0.000 A 
ATOM     33  C   UNL     1       3.186   7.544  17.725  0.00  0.00    +0.000 A 
ATOM     34  C   UNL     1       3.273   6.452  18.586  0.00  0.00    +0.000 A 
ATOM     35 CL   UNL     1       4.220   5.085  18.146  0.00  0.00    +0.000 Cl
ATOM     36  C   UNL     1       2.586   6.452  19.800  0.00  0.00    +0.000 A 
ATOM     37  C   UNL     1       1.808   7.555  20.156  0.00  0.00    +0.000 A 
ENDBRANCH  29  31
ENDBRANCH   7  29
TORSDOF 5
ENDMDL
