MODEL 1
REMARK VINA RESULT:      -7.8      0.000      0.000
REMARK  Name = 
REMARK  5 active torsions:
REMARK  status: ('A' for Active; 'I' for Inactive)
REMARK    1  A    between atoms: C_2  and  C_3
REMARK    2  A    between atoms: N_5  and  C_6
REMARK    3  A    between atoms: C_6  and  C_7
REMARK    4  A    between atoms: N_9  and  C_10
REMARK    5  A    between atoms: C_16  and  C_17
REMARK                            x       y       z     vdW  Elec       q    Type
REMARK                         _______ _______ _______ _____ _____    ______ ____
ROOT
ATOM      1  C   UNL     1       6.674   5.503  15.829  0.00  0.00    +0.000 C 
ATOM      2  O   UNL     1       7.728   5.659  15.214  0.00  0.00    +0.000 OA
ATOM      3  N   UNL     1       6.457   6.076  17.076  0.00  0.00    +0.000 N 
ATOM      4  C   UNL     1       5.218   5.959  17.667  0.00  0.00    +0.000 A 
ATOM      5  N   UNL     1       4.797   4.958  18.397  0.00  0.00    +0.000 NA
ATOM      6  C   UNL     1       3.465   5.171  18.736  0.00  0.00    +0.000 A 
ATOM      7  C   UNL     1       2.919   6.333  18.218  0.00  0.00    +0.000 A 
ATOM      8  S   UNL     1       4.104   7.208  17.341  0.00  0.00    +0.000 S 
ENDROOT
BRANCH   6   9
ATOM      9  C   UNL     1       2.722   4.221  19.561  0.00  0.00    +0.000 A 
ATOM     10  C   UNL     1       1.985   3.176  18.983  0.00  0.00    +0.000 A 
ATOM     11  C   UNL     1       1.250   2.295  19.780  0.00  0.00    +0.000 A 
ATOM     12  C   UNL     1       1.244   2.445  21.163  0.00  0.00    +0.000 A 
ATOM     13  C   UNL     1       1.977   3.473  21.752  0.00  0.00    +0.000 A 
ATOM     14  C   UNL     1       2.711   4.358  20.956  0.00  0.00    +0.000 A 
ENDBRANCH   6   9
BRANCH   1  16
ATOM     15  C   UNL     1       5.709   4.145  14.009  0.00  0.00    +0.000 C 
ATOM     16  C   UNL     1       5.565   4.709  15.214  0.00  0.00    +0.000 C 
ENDBRANCH   1  16
BRANCH   3  17
ATOM     17  C   UNL     1       7.592   6.571  17.844  0.00  0.00    +0.000 C 
BRANCH  17  18
ATOM     18  C   UNL     1       7.800   8.087  17.787  0.00  0.00    +0.000 C 
ATOM     19  O   UNL     1       7.132   8.788  17.025  0.00  0.00    +0.000 OA
ATOM     20  N   UNL     1       8.647   8.643  18.723  0.00  0.00    +0.000 N 
ATOM     21  H   UNL     1       9.129   8.016  19.361  0.00  0.00    +0.000 HD
BRANCH  20  22
ATOM     22  C   UNL     1       8.761  10.116  18.858  0.00  0.00    +0.000 C 
ATOM     23  C   UNL     1       9.527  10.646  20.075  0.00  0.00    +0.000 C 
ATOM     24  O   UNL     1      10.338  11.505  19.231  0.00  0.00    +0.000 OA
ATOM     25  C   UNL     1       9.893  10.773  18.058  0.00  0.00    +0.000 C 
ENDBRANCH  20  22
ENDBRANCH  17  18
ENDBRANCH   3  17
TORSDOF 5
ENDMDL
MODEL 2
REMARK VINA RESULT:      -7.7      0.381      1.031
REMARK  Name = 
REMARK  5 active torsions:
REMARK  status: ('A' for Active; 'I' for Inactive)
REMARK    1  A    between atoms: C_2  and  C_3
REMARK    2  A    between atoms: N_5  and  C_6
REMARK    3  A    between atoms: C_6  and  C_7
REMARK    4  A    between atoms: N_9  and  C_10
REMARK    5  A    between atoms: C_16  and  C_17
REMARK                            x       y       z     vdW  Elec       q    Type
REMARK                         _______ _______ _______ _____ _____    ______ ____
ROOT
ATOM      1  C   UNL     1       6.673   5.672  15.945  0.00  0.00    +0.000 C 
ATOM      2  O   UNL     1       7.751   5.795  15.363  0.00  0.00    +0.000 OA
ATOM      3  N   UNL     1       6.431   6.260  17.180  0.00  0.00    +0.000 N 
ATOM      4  C   UNL     1       5.171   6.179  17.731  0.00  0.00    +0.000 A 
ATOM      5  N   UNL     1       4.699   5.195  18.453  0.00  0.00    +0.000 NA
ATOM      6  C   UNL     1       3.363   5.447  18.746  0.00  0.00    +0.000 A 
ATOM      7  C   UNL     1       2.866   6.619  18.203  0.00  0.00    +0.000 A 
ATOM      8  S   UNL     1       4.102   7.456  17.361  0.00  0.00    +0.000 S 
ENDROOT
BRANCH   6   9
ATOM      9  C   UNL     1       2.568   4.523  19.552  0.00  0.00    +0.000 A 
ATOM     10  C   UNL     1       2.809   4.363  20.925  0.00  0.00    +0.000 A 
ATOM     11  C   UNL     1       2.066   3.452  21.680  0.00  0.00    +0.000 A 
ATOM     12  C   UNL     1       1.071   2.692  21.072  0.00  0.00    +0.000 A 
ATOM     13  C   UNL     1       0.814   2.845  19.712  0.00  0.00    +0.000 A 
ATOM     14  C   UNL     1       1.559   3.755  18.954  0.00  0.00    +0.000 A 
ENDBRANCH   6   9
BRANCH   1  16
ATOM     15  C   UNL     1       5.681   3.592  15.064  0.00  0.00    +0.000 C 
ATOM     16  C   UNL     1       5.564   4.904  15.298  0.00  0.00    +0.000 C 
ENDBRANCH   1  16
BRANCH   3  17
ATOM     17  C   UNL     1       7.554   6.729  17.982  0.00  0.00    +0.000 C 
BRANCH  17  18
ATOM     18  C   UNL     1       7.839   8.230  17.879  0.00  0.00    +0.000 C 
ATOM     19  O   UNL     1       7.218   8.938  17.084  0.00  0.00    +0.000 OA
ATOM     20  N   UNL     1       8.700   8.774  18.809  0.00  0.00    +0.000 N 
ATOM     21  H   UNL     1       9.141   8.145  19.474  0.00  0.00    +0.000 HD
BRANCH  20  22
ATOM     22  C   UNL     1       8.886  10.243  18.898  0.00  0.00    +0.000 C 
ATOM     23  C   UNL     1       9.714  10.769  20.075  0.00  0.00    +0.000 C 
ATOM     24  O   UNL     1      10.537  11.565  19.183  0.00  0.00    +0.000 OA
ATOM     25  C   UNL     1      10.021  10.824  18.045  0.00  0.00    +0.000 C 
ENDBRANCH  20  22
ENDBRANCH  17  18
ENDBRANCH   3  17
TORSDOF 5
ENDMDL
MODEL 3
REMARK VINA RESULT:      -7.3      3.509      5.844
REMARK  Name = 
REMARK  5 active torsions:
REMARK  status: ('A' for Active; 'I' for Inactive)
REMARK    1  A    between atoms: C_2  and  C_3
REMARK    2  A    between atoms: N_5  and  C_6
REMARK    3  A    between atoms: C_6  and  C_7
REMARK    4  A    between atoms: N_9  and  C_10
REMARK    5  A    between atoms: C_16  and  C_17
REMARK                            x       y       z     vdW  Elec       q    Type
REMARK                         _______ _______ _______ _____ _____    ______ ____
ROOT
ATOM      1  C   UNL     1       3.046   3.996  18.701  0.00  0.00    +0.000 C 
ATOM      2  O   UNL     1       3.609   2.910  18.567  0.00  0.00    +0.000 OA
ATOM      3  N   UNL     1       3.754   5.169  18.935  0.00  0.00    +0.000 N 
ATOM      4  C   UNL     1       3.080   6.369  18.966  0.00  0.00    +0.000 A 
ATOM      5  N   UNL     1       2.473   6.894  20.000  0.00  0.00    +0.000 NA
ATOM      6  C   UNL     1       1.838   8.067  19.607  0.00  0.00    +0.000 A 
ATOM      7  C   UNL     1       1.973   8.372  18.263  0.00  0.00    +0.000 A 
ATOM      8  S   UNL     1       2.961   7.207  17.485  0.00  0.00    +0.000 S 
ENDROOT
BRANCH   6   9
ATOM      9  C   UNL     1       1.083   8.884  20.554  0.00  0.00    +0.000 A 
ATOM     10  C   UNL     1       1.119   8.622  21.932  0.00  0.00    +0.000 A 
ATOM     11  C   UNL     1       0.366   9.388  22.825  0.00  0.00    +0.000 A 
ATOM     12  C   UNL     1      -0.430  10.427  22.353  0.00  0.00    +0.000 A 
ATOM     13  C   UNL     1      -0.470  10.706  20.989  0.00  0.00    +0.000 A 
ATOM     14  C   UNL     1       0.281   9.938  20.093  0.00  0.00    +0.000 A 
ENDBRANCH   6   9
BRANCH   1  16
ATOM     15  C   UNL     1       0.778   3.047  18.895  0.00  0.00    +0.000 C 
ATOM     16  C   UNL     1       1.559   4.083  18.570  0.00  0.00    +0.000 C 
ENDBRANCH   1  16
BRANCH   3  17
ATOM     17  C   UNL     1       5.137   5.092  19.387  0.00  0.00    +0.000 C 
BRANCH  17  18
ATOM     18  C   UNL     1       6.161   4.797  18.287  0.00  0.00    +0.000 C 
ATOM     19  O   UNL     1       7.344   4.593  18.563  0.00  0.00    +0.000 OA
ATOM     20  N   UNL     1       5.678   4.619  17.007  0.00  0.00    +0.000 N 
ATOM     21  H   UNL     1       4.683   4.748  16.851  0.00  0.00    +0.000 HD
BRANCH  20  22
ATOM     22  C   UNL     1       6.572   4.149  15.920  0.00  0.00    +0.000 C 
ATOM     23  C   UNL     1       5.915   3.802  14.580  0.00  0.00    +0.000 C 
ATOM     24  O   UNL     1       6.868   4.629  13.862  0.00  0.00    +0.000 OA
ATOM     25  C   UNL     1       7.274   5.248  15.112  0.00  0.00    +0.000 C 
ENDBRANCH  20  22
ENDBRANCH  17  18
ENDBRANCH   3  17
TORSDOF 5
ENDMDL
MODEL 4
REMARK VINA RESULT:      -6.8      3.798      6.902
REMARK  Name = 
REMARK  5 active torsions:
REMARK  status: ('A' for Active; 'I' for Inactive)
REMARK    1  A    between atoms: C_2  and  C_3
REMARK    2  A    between atoms: N_5  and  C_6
REMARK    3  A    between atoms: C_6  and  C_7
REMARK    4  A    between atoms: N_9  and  C_10
REMARK    5  A    between atoms: C_16  and  C_17
REMARK                            x       y       z     vdW  Elec       q    Type
REMARK                         _______ _______ _______ _____ _____    ______ ____
ROOT
ATOM      1  C   UNL     1       3.084   3.609  19.015  0.00  0.00    +0.000 C 
ATOM      2  O   UNL     1       2.159   3.424  19.805  0.00  0.00    +0.000 OA
ATOM      3  N   UNL     1       3.228   4.801  18.314  0.00  0.00    +0.000 N 
ATOM      4  C   UNL     1       4.342   4.992  17.529  0.00  0.00    +0.000 A 
ATOM      5  N   UNL     1       4.496   4.604  16.288  0.00  0.00    +0.000 NA
ATOM      6  C   UNL     1       5.788   4.905  15.874  0.00  0.00    +0.000 A 
ATOM      7  C   UNL     1       6.580   5.497  16.844  0.00  0.00    +0.000 A 
ATOM      8  S   UNL     1       5.678   5.738  18.282  0.00  0.00    +0.000 S 
ENDROOT
BRANCH   6   9
ATOM      9  C   UNL     1       6.252   4.597  14.524  0.00  0.00    +0.000 A 
ATOM     10  C   UNL     1       7.366   5.247  13.970  0.00  0.00    +0.000 A 
ATOM     11  C   UNL     1       7.780   4.970  12.665  0.00  0.00    +0.000 A 
ATOM     12  C   UNL     1       7.088   4.038  11.898  0.00  0.00    +0.000 A 
ATOM     13  C   UNL     1       5.985   3.378  12.435  0.00  0.00    +0.000 A 
ATOM     14  C   UNL     1       5.567   3.656  13.740  0.00  0.00    +0.000 A 
ENDBRANCH   6   9
BRANCH   1  16
ATOM     15  C   UNL     1       3.773   1.306  18.460  0.00  0.00    +0.000 C 
ATOM     16  C   UNL     1       4.120   2.547  18.821  0.00  0.00    +0.000 C 
ENDBRANCH   1  16
BRANCH   3  17
ATOM     17  C   UNL     1       2.097   5.716  18.221  0.00  0.00    +0.000 C 
BRANCH  17  18
ATOM     18  C   UNL     1       2.334   7.100  18.831  0.00  0.00    +0.000 C 
ATOM     19  O   UNL     1       2.898   7.986  18.188  0.00  0.00    +0.000 OA
ATOM     20  N   UNL     1       1.759   7.354  20.059  0.00  0.00    +0.000 N 
ATOM     21  H   UNL     1       1.260   6.598  20.517  0.00  0.00    +0.000 HD
BRANCH  20  22
ATOM     22  C   UNL     1       1.781   8.722  20.635  0.00  0.00    +0.000 C 
ATOM     23  C   UNL     1       0.624   9.653  20.258  0.00  0.00    +0.000 C 
ATOM     24  O   UNL     1       0.389   9.979  21.654  0.00  0.00    +0.000 OA
ATOM     25  C   UNL     1       1.218   8.855  22.056  0.00  0.00    +0.000 C 
ENDBRANCH  20  22
ENDBRANCH  17  18
ENDBRANCH   3  17
TORSDOF 5
ENDMDL
MODEL 5
REMARK VINA RESULT:      -6.8      2.919      7.540
REMARK  Name = 
REMARK  5 active torsions:
REMARK  status: ('A' for Active; 'I' for Inactive)
REMARK    1  A    between atoms: C_2  and  C_3
REMARK    2  A    between atoms: N_5  and  C_6
REMARK    3  A    between atoms: C_6  and  C_7
REMARK    4  A    between atoms: N_9  and  C_10
REMARK    5  A    between atoms: C_16  and  C_17
REMARK                            x       y       z     vdW  Elec       q    Type
REMARK                         _______ _______ _______ _____ _____    ______ ____
ROOT
ATOM      1  C   UNL     1       7.301   5.658  19.309  0.00  0.00    +0.000 C 
ATOM      2  O   UNL     1       7.570   5.595  20.508  0.00  0.00    +0.000 OA
ATOM      3  N   UNL     1       6.162   5.068  18.777  0.00  0.00    +0.000 N 
ATOM      4  C   UNL     1       5.856   5.266  17.449  0.00  0.00    +0.000 A 
ATOM      5  N   UNL     1       6.311   4.575  16.435  0.00  0.00    +0.000 NA
ATOM      6  C   UNL     1       5.840   5.136  15.253  0.00  0.00    +0.000 A 
ATOM      7  C   UNL     1       5.054   6.263  15.426  0.00  0.00    +0.000 A 
ATOM      8  S   UNL     1       4.848   6.595  17.095  0.00  0.00    +0.000 S 
ENDROOT
BRANCH   6   9
ATOM      9  C   UNL     1       6.175   4.572  13.948  0.00  0.00    +0.000 A 
ATOM     10  C   UNL     1       7.337   4.959  13.264  0.00  0.00    +0.000 A 
ATOM     11  C   UNL     1       7.630   4.438  12.001  0.00  0.00    +0.000 A 
ATOM     12  C   UNL     1       6.767   3.523  11.408  0.00  0.00    +0.000 A 
ATOM     13  C   UNL     1       5.613   3.122  12.077  0.00  0.00    +0.000 A 
ATOM     14  C   UNL     1       5.316   3.644  13.340  0.00  0.00    +0.000 A 
ENDBRANCH   6   9
BRANCH   1  16
ATOM     15  C   UNL     1       8.190   7.763  18.378  0.00  0.00    +0.000 C 
ATOM     16  C   UNL     1       8.195   6.425  18.386  0.00  0.00    +0.000 C 
ENDBRANCH   1  16
BRANCH   3  17
ATOM     17  C   UNL     1       5.450   4.059  19.551  0.00  0.00    +0.000 C 
BRANCH  17  18
ATOM     18  C   UNL     1       3.933   4.252  19.624  0.00  0.00    +0.000 C 
ATOM     19  O   UNL     1       3.448   5.284  20.090  0.00  0.00    +0.000 OA
ATOM     20  N   UNL     1       3.146   3.298  19.012  0.00  0.00    +0.000 N 
ATOM     21  H   UNL     1       3.608   2.494  18.597  0.00  0.00    +0.000 HD
BRANCH  20  22
ATOM     22  C   UNL     1       1.682   3.501  18.873  0.00  0.00    +0.000 C 
ATOM     23  C   UNL     1       0.838   2.267  18.538  0.00  0.00    +0.000 C 
ATOM     24  O   UNL     1      -0.076   2.557  19.629  0.00  0.00    +0.000 OA
ATOM     25  C   UNL     1       0.882   3.499  20.182  0.00  0.00    +0.000 C 
ENDBRANCH  20  22
ENDBRANCH  17  18
ENDBRANCH   3  17
TORSDOF 5
ENDMDL
MODEL 6
REMARK VINA RESULT:      -6.8      3.180      5.871
REMARK  Name = 
REMARK  5 active torsions:
REMARK  status: ('A' for Active; 'I' for Inactive)
REMARK    1  A    between atoms: C_2  and  C_3
REMARK    2  A    between atoms: N_5  and  C_6
REMARK    3  A    between atoms: C_6  and  C_7
REMARK    4  A    between atoms: N_9  and  C_10
REMARK    5  A    between atoms: C_16  and  C_17
REMARK                            x       y       z     vdW  Elec       q    Type
REMARK                         _______ _______ _______ _____ _____    ______ ____
ROOT
ATOM      1  C   UNL     1       7.103   4.794  17.756  0.00  0.00    +0.000 C 
ATOM      2  O   UNL     1       8.049   4.246  17.192  0.00  0.00    +0.000 OA
ATOM      3  N   UNL     1       5.793   4.365  17.583  0.00  0.00    +0.000 N 
ATOM      4  C   UNL     1       4.788   4.945  18.325  0.00  0.00    +0.000 A 
ATOM      5  N   UNL     1       4.140   6.043  18.032  0.00  0.00    +0.000 NA
ATOM      6  C   UNL     1       3.267   6.347  19.070  0.00  0.00    +0.000 A 
ATOM      7  C   UNL     1       3.310   5.463  20.135  0.00  0.00    +0.000 A 
ATOM      8  S   UNL     1       4.417   4.195  19.811  0.00  0.00    +0.000 S 
ENDROOT
BRANCH   6   9
ATOM      9  C   UNL     1       2.396   7.519  19.022  0.00  0.00    +0.000 A 
ATOM     10  C   UNL     1       2.200   8.232  17.829  0.00  0.00    +0.000 A 
ATOM     11  C   UNL     1       1.393   9.372  17.802  0.00  0.00    +0.000 A 
ATOM     12  C   UNL     1       0.769   9.812  18.965  0.00  0.00    +0.000 A 
ATOM     13  C   UNL     1       0.947   9.111  20.156  0.00  0.00    +0.000 A 
ATOM     14  C   UNL     1       1.757   7.971  20.186  0.00  0.00    +0.000 A 
ENDBRANCH   6   9
BRANCH   1  16
ATOM     15  C   UNL     1       7.895   7.076  18.256  0.00  0.00    +0.000 C 
ATOM     16  C   UNL     1       7.355   5.933  18.693  0.00  0.00    +0.000 C 
ENDBRANCH   1  16
BRANCH   3  17
ATOM     17  C   UNL     1       5.467   3.496  16.459  0.00  0.00    +0.000 C 
BRANCH  17  18
ATOM     18  C   UNL     1       5.517   4.171  15.085  0.00  0.00    +0.000 C 
ATOM     19  O   UNL     1       5.349   5.387  14.972  0.00  0.00    +0.000 OA
ATOM     20  N   UNL     1       5.904   3.394  14.014  0.00  0.00    +0.000 N 
ATOM     21  H   UNL     1       6.081   2.408  14.181  0.00  0.00    +0.000 HD
BRANCH  20  22
ATOM     22  C   UNL     1       6.159   4.008  12.687  0.00  0.00    +0.000 C 
ATOM     23  C   UNL     1       7.517   4.688  12.485  0.00  0.00    +0.000 C 
ATOM     24  O   UNL     1       7.736   3.955  11.250  0.00  0.00    +0.000 OA
ATOM     25  C   UNL     1       6.652   3.051  11.594  0.00  0.00    +0.000 C 
ENDBRANCH  20  22
ENDBRANCH  17  18
ENDBRANCH   3  17
TORSDOF 5
ENDMDL
MODEL 7
REMARK VINA RESULT:      -6.7      9.063     11.315
REMARK  Name = 
REMARK  5 active torsions:
REMARK  status: ('A' for Active; 'I' for Inactive)
REMARK    1  A    between atoms: C_2  and  C_3
REMARK    2  A    between atoms: N_5  and  C_6
REMARK    3  A    between atoms: C_6  and  C_7
REMARK    4  A    between atoms: N_9  and  C_10
REMARK    5  A    between atoms: C_16  and  C_17
REMARK                            x       y       z     vdW  Elec       q    Type
REMARK                         _______ _______ _______ _____ _____    ______ ____
ROOT
ATOM      1  C   UNL     1      -0.224  10.016  22.703  0.00  0.00    +0.000 C 
ATOM      2  O   UNL     1      -0.060   9.871  23.914  0.00  0.00    +0.000 OA
ATOM      3  N   UNL     1      -0.661  11.216  22.156  0.00  0.00    +0.000 N 
ATOM      4  C   UNL     1      -0.720  11.353  20.787  0.00  0.00    +0.000 A 
ATOM      5  N   UNL     1      -1.712  10.996  20.012  0.00  0.00    +0.000 NA
ATOM      6  C   UNL     1      -1.355  11.217  18.686  0.00  0.00    +0.000 A 
ATOM      7  C   UNL     1      -0.076  11.718  18.511  0.00  0.00    +0.000 A 
ATOM      8  S   UNL     1       0.676  11.976  20.030  0.00  0.00    +0.000 S 
ENDROOT
BRANCH   6   9
ATOM      9  C   UNL     1      -2.270  10.922  17.586  0.00  0.00    +0.000 A 
ATOM     10  C   UNL     1      -1.928  10.004  16.582  0.00  0.00    +0.000 A 
ATOM     11  C   UNL     1      -2.795   9.754  15.516  0.00  0.00    +0.000 A 
ATOM     12  C   UNL     1      -4.016  10.418  15.441  0.00  0.00    +0.000 A 
ATOM     13  C   UNL     1      -4.374  11.326  16.435  0.00  0.00    +0.000 A 
ATOM     14  C   UNL     1      -3.506  11.579  17.501  0.00  0.00    +0.000 A 
ENDBRANCH   6   9
BRANCH   1  16
ATOM     15  C   UNL     1       1.353   8.490  21.576  0.00  0.00    +0.000 C 
ATOM     16  C   UNL     1       0.091   8.889  21.771  0.00  0.00    +0.000 C 
ENDBRANCH   1  16
BRANCH   3  17
ATOM     17  C   UNL     1      -1.280  12.213  23.021  0.00  0.00    +0.000 C 
BRANCH  17  18
ATOM     18  C   UNL     1      -2.810  12.169  23.066  0.00  0.00    +0.000 C 
ATOM     19  O   UNL     1      -3.401  11.757  24.066  0.00  0.00    +0.000 OA
ATOM     20  N   UNL     1      -3.489  12.746  22.013  0.00  0.00    +0.000 N 
ATOM     21  H   UNL     1      -2.943  13.118  21.241  0.00  0.00    +0.000 HD
BRANCH  20  22
ATOM     22  C   UNL     1      -4.963  12.913  22.065  0.00  0.00    +0.000 C 
ATOM     23  C   UNL     1      -5.516  14.305  21.741  0.00  0.00    +0.000 C 
ATOM     24  O   UNL     1      -6.458  13.743  20.788  0.00  0.00    +0.000 OA
ATOM     25  C   UNL     1      -5.726  12.488  20.804  0.00  0.00    +0.000 C 
ENDBRANCH  20  22
ENDBRANCH  17  18
ENDBRANCH   3  17
TORSDOF 5
ENDMDL
MODEL 8
REMARK VINA RESULT:      -6.6      3.350      5.794
REMARK  Name = 
REMARK  5 active torsions:
REMARK  status: ('A' for Active; 'I' for Inactive)
REMARK    1  A    between atoms: C_2  and  C_3
REMARK    2  A    between atoms: N_5  and  C_6
REMARK    3  A    between atoms: C_6  and  C_7
REMARK    4  A    between atoms: N_9  and  C_10
REMARK    5  A    between atoms: C_16  and  C_17
REMARK                            x       y       z     vdW  Elec       q    Type
REMARK                         _______ _______ _______ _____ _____    ______ ____
ROOT
ATOM      1  C   UNL     1       4.105   3.661  19.733  0.00  0.00    +0.000 C 
ATOM      2  O   UNL     1       4.886   2.714  19.823  0.00  0.00    +0.000 OA
ATOM      3  N   UNL     1       4.525   4.927  19.343  0.00  0.00    +0.000 N 
ATOM      4  C   UNL     1       3.589   5.920  19.154  0.00  0.00    +0.000 A 
ATOM      5  N   UNL     1       3.092   6.706  20.074  0.00  0.00    +0.000 NA
ATOM      6  C   UNL     1       2.114   7.513  19.504  0.00  0.00    +0.000 A 
ATOM      7  C   UNL     1       1.891   7.282  18.157  0.00  0.00    +0.000 A 
ATOM      8  S   UNL     1       2.963   6.077  17.575  0.00  0.00    +0.000 S 
ENDROOT
BRANCH   6   9
ATOM      9  C   UNL     1       1.385   8.506  20.289  0.00  0.00    +0.000 A 
ATOM     10  C   UNL     1       0.800   9.628  19.681  0.00  0.00    +0.000 A 
ATOM     11  C   UNL     1       0.135  10.589  20.446  0.00  0.00    +0.000 A 
ATOM     12  C   UNL     1       0.045  10.442  21.826  0.00  0.00    +0.000 A 
ATOM     13  C   UNL     1       0.614   9.330  22.444  0.00  0.00    +0.000 A 
ATOM     14  C   UNL     1       1.282   8.368  21.680  0.00  0.00    +0.000 A 
ENDBRANCH   6   9
BRANCH   1  16
ATOM     15  C   UNL     1       2.211   3.220  21.250  0.00  0.00    +0.000 C 
ATOM     16  C   UNL     1       2.650   3.453  20.008  0.00  0.00    +0.000 C 
ENDBRANCH   1  16
BRANCH   3  17
ATOM     17  C   UNL     1       5.944   5.254  19.381  0.00  0.00    +0.000 C 
BRANCH  17  18
ATOM     18  C   UNL     1       6.743   4.810  18.153  0.00  0.00    +0.000 C 
ATOM     19  O   UNL     1       7.897   4.393  18.266  0.00  0.00    +0.000 OA
ATOM     20  N   UNL     1       6.070   4.753  16.950  0.00  0.00    +0.000 N 
ATOM     21  H   UNL     1       5.102   5.060  16.930  0.00  0.00    +0.000 HD
BRANCH  20  22
ATOM     22  C   UNL     1       6.713   4.159  15.751  0.00  0.00    +0.000 C 
ATOM     23  C   UNL     1       5.787   3.697  14.622  0.00  0.00    +0.000 C 
ATOM     24  O   UNL     1       6.566   4.429  13.640  0.00  0.00    +0.000 OA
ATOM     25  C   UNL     1       7.228   5.158  14.708  0.00  0.00    +0.000 C 
ENDBRANCH  20  22
ENDBRANCH  17  18
ENDBRANCH   3  17
TORSDOF 5
ENDMDL
MODEL 9
REMARK VINA RESULT:      -6.6      3.037      4.736
REMARK  Name = 
REMARK  5 active torsions:
REMARK  status: ('A' for Active; 'I' for Inactive)
REMARK    1  A    between atoms: C_2  and  C_3
REMARK    2  A    between atoms: N_5  and  C_6
REMARK    3  A    between atoms: C_6  and  C_7
REMARK    4  A    between atoms: N_9  and  C_10
REMARK    5  A    between atoms: C_16  and  C_17
REMARK                            x       y       z     vdW  Elec       q    Type
REMARK                         _______ _______ _______ _____ _____    ______ ____
ROOT
ATOM      1  C   UNL     1       3.128   3.368  18.467  0.00  0.00    +0.000 C 
ATOM      2  O   UNL     1       3.595   2.232  18.379  0.00  0.00    +0.000 OA
ATOM      3  N   UNL     1       3.912   4.462  18.810  0.00  0.00    +0.000 N 
ATOM      4  C   UNL     1       3.360   5.724  18.783  0.00  0.00    +0.000 A 
ATOM      5  N   UNL     1       2.685   6.297  19.747  0.00  0.00    +0.000 NA
ATOM      6  C   UNL     1       2.220   7.531  19.304  0.00  0.00    +0.000 A 
ATOM      7  C   UNL     1       2.549   7.833  17.993  0.00  0.00    +0.000 A 
ATOM      8  S   UNL     1       3.508   6.583  17.317  0.00  0.00    +0.000 S 
ENDROOT
BRANCH   6   9
ATOM      9  C   UNL     1       1.437   8.410  20.169  0.00  0.00    +0.000 A 
ATOM     10  C   UNL     1       1.204   8.089  21.514  0.00  0.00    +0.000 A 
ATOM     11  C   UNL     1       0.425   8.920  22.323  0.00  0.00    +0.000 A 
ATOM     12  C   UNL     1      -0.128  10.084  21.798  0.00  0.00    +0.000 A 
ATOM     13  C   UNL     1       0.101  10.422  20.466  0.00  0.00    +0.000 A 
ATOM     14  C   UNL     1       0.878   9.589  19.654  0.00  0.00    +0.000 A 
ENDBRANCH   6   9
BRANCH   1  16
ATOM     15  C   UNL     1       0.721   2.999  18.862  0.00  0.00    +0.000 C 
ATOM     16  C   UNL     1       1.684   3.604  18.156  0.00  0.00    +0.000 C 
ENDBRANCH   1  16
BRANCH   3  17
ATOM     17  C   UNL     1       5.215   4.244  19.425  0.00  0.00    +0.000 C 
BRANCH  17  18
ATOM     18  C   UNL     1       6.403   4.814  18.644  0.00  0.00    +0.000 C 
ATOM     19  O   UNL     1       6.807   4.264  17.618  0.00  0.00    +0.000 OA
ATOM     20  N   UNL     1       6.894   6.038  19.047  0.00  0.00    +0.000 N 
ATOM     21  H   UNL     1       6.483   6.469  19.870  0.00  0.00    +0.000 HD
BRANCH  20  22
ATOM     22  C   UNL     1       7.915   6.747  18.237  0.00  0.00    +0.000 C 
ATOM     23  C   UNL     1       7.403   7.684  17.138  0.00  0.00    +0.000 C 
ATOM     24  O   UNL     1       8.253   8.761  17.615  0.00  0.00    +0.000 OA
ATOM     25  C   UNL     1       8.479   8.034  18.853  0.00  0.00    +0.000 C 
ENDBRANCH  20  22
ENDBRANCH  17  18
ENDBRANCH   3  17
TORSDOF 5
ENDMDL
