MODEL 1
REMARK VINA RESULT:      -8.1      0.000      0.000
REMARK  Name = 
REMARK  4 active torsions:
REMARK  status: ('A' for Active; 'I' for Inactive)
REMARK    1  A    between atoms: C_1  and  C_2
REMARK    2  A    between atoms: C_4  and  N_5
REMARK    3  A    between atoms: N_5  and  C_6
REMARK    4  A    between atoms: C_9  and  C_10
REMARK                            x       y       z     vdW  Elec       q    Type
REMARK                         _______ _______ _______ _____ _____    ______ ____
ROOT
ATOM      1  C   UNL     1       8.224   8.006  18.258  0.00  0.00    +0.000 C 
ATOM      2  C   UNL     1       7.582   6.791  17.639  0.00  0.00    +0.000 A 
ATOM      3  C   UNL     1       6.960   5.814  18.579  0.00  0.00    +0.000 A 
ATOM      4  C   UNL     1       6.393   4.717  18.045  0.00  0.00    +0.000 A 
ATOM      5  N   UNL     1       6.448   4.571  16.642  0.00  0.00    +0.000 N 
ATOM      6  N   UNL     1       5.973   3.557  15.866  0.00  0.00    +0.000 NA
ATOM      7  C   UNL     1       6.271   3.988  14.641  0.00  0.00    +0.000 A 
ATOM      8  N   UNL     1       6.919   5.181  14.569  0.00  0.00    +0.000 NA
ATOM      9  C   UNL     1       7.037   5.546  15.826  0.00  0.00    +0.000 A 
ATOM     10  N   UNL     1       7.613   6.669  16.345  0.00  0.00    +0.000 NA
ENDROOT
BRANCH   4  11
ATOM     11  N   UNL     1       5.813   3.696  18.791  0.00  0.00    +0.000 N 
ATOM     12  H   UNL     1       6.338   2.819  18.765  0.00  0.00    +0.000 HD
BRANCH  11  13
ATOM     13  C   UNL     1       4.439   3.525  19.064  0.00  0.00    +0.000 A 
ATOM     14  C   UNL     1       3.835   2.307  18.740  0.00  0.00    +0.000 A 
ATOM     15  C   UNL     1       2.490   2.065  19.043  0.00  0.00    +0.000 A 
ATOM     16  C   UNL     1       1.707   3.045  19.668  0.00  0.00    +0.000 A 
ATOM     17  C   UNL     1       0.263   2.763  19.975  0.00  0.00    +0.000 C 
ATOM     18  C   UNL     1       2.308   4.271  19.983  0.00  0.00    +0.000 A 
ATOM     19 CL   UNL     1       1.420   5.540  20.753  0.00  0.00    +0.000 Cl
ATOM     20  C   UNL     1       3.656   4.505  19.687  0.00  0.00    +0.000 A 
ENDBRANCH  11  13
ENDBRANCH   4  11
TORSDOF 2
ENDMDL
MODEL 2
REMARK VINA RESULT:      -7.9      1.805      2.142
REMARK  Name = 
REMARK  4 active torsions:
REMARK  status: ('A' for Active; 'I' for Inactive)
REMARK    1  A    between atoms: C_1  and  C_2
REMARK    2  A    between atoms: C_4  and  N_5
REMARK    3  A    between atoms: N_5  and  C_6
REMARK    4  A    between atoms: C_9  and  C_10
REMARK                            x       y       z     vdW  Elec       q    Type
REMARK                         _______ _______ _______ _____ _____    ______ ____
ROOT
ATOM      1  C   UNL     1       7.840   8.577  17.783  0.00  0.00    +0.000 C 
ATOM      2  C   UNL     1       7.039   7.427  17.229  0.00  0.00    +0.000 A 
ATOM      3  C   UNL     1       5.592   7.386  17.590  0.00  0.00    +0.000 A 
ATOM      4  C   UNL     1       4.863   6.360  17.113  0.00  0.00    +0.000 A 
ATOM      5  N   UNL     1       5.530   5.398  16.325  0.00  0.00    +0.000 N 
ATOM      6  N   UNL     1       5.033   4.269  15.748  0.00  0.00    +0.000 NA
ATOM      7  C   UNL     1       6.101   3.797  15.105  0.00  0.00    +0.000 A 
ATOM      8  N   UNL     1       7.247   4.515  15.244  0.00  0.00    +0.000 NA
ATOM      9  C   UNL     1       6.892   5.518  16.016  0.00  0.00    +0.000 A 
ATOM     10  N   UNL     1       7.649   6.554  16.483  0.00  0.00    +0.000 NA
ENDROOT
BRANCH   4  11
ATOM     11  N   UNL     1       3.517   6.161  17.398  0.00  0.00    +0.000 N 
ATOM     12  H   UNL     1       2.930   6.975  17.199  0.00  0.00    +0.000 HD
BRANCH  11  13
ATOM     13  C   UNL     1       2.978   5.303  18.379  0.00  0.00    +0.000 A 
ATOM     14  C   UNL     1       3.245   5.567  19.725  0.00  0.00    +0.000 A 
ATOM     15  C   UNL     1       2.688   4.780  20.740  0.00  0.00    +0.000 A 
ATOM     16  C   UNL     1       1.857   3.694  20.432  0.00  0.00    +0.000 A 
ATOM     17  C   UNL     1       1.278   2.860  21.541  0.00  0.00    +0.000 C 
ATOM     18  C   UNL     1       1.598   3.420  19.083  0.00  0.00    +0.000 A 
ATOM     19 CL   UNL     1       0.585   2.101  18.608  0.00  0.00    +0.000 Cl
ATOM     20  C   UNL     1       2.149   4.216  18.072  0.00  0.00    +0.000 A 
ENDBRANCH  11  13
ENDBRANCH   4  11
TORSDOF 2
ENDMDL
MODEL 3
REMARK VINA RESULT:      -7.9      1.042      1.089
REMARK  Name = 
REMARK  4 active torsions:
REMARK  status: ('A' for Active; 'I' for Inactive)
REMARK    1  A    between atoms: C_1  and  C_2
REMARK    2  A    between atoms: C_4  and  N_5
REMARK    3  A    between atoms: N_5  and  C_6
REMARK    4  A    between atoms: C_9  and  C_10
REMARK                            x       y       z     vdW  Elec       q    Type
REMARK                         _______ _______ _______ _____ _____    ______ ____
ROOT
ATOM      1  C   UNL     1       8.240   8.060  18.490  0.00  0.00    +0.000 C 
ATOM      2  C   UNL     1       7.661   6.857  17.790  0.00  0.00    +0.000 A 
ATOM      3  C   UNL     1       7.047   5.812  18.659  0.00  0.00    +0.000 A 
ATOM      4  C   UNL     1       6.534   4.725  18.052  0.00  0.00    +0.000 A 
ATOM      5  N   UNL     1       6.637   4.655  16.646  0.00  0.00    +0.000 N 
ATOM      6  N   UNL     1       6.222   3.667  15.805  0.00  0.00    +0.000 NA
ATOM      7  C   UNL     1       6.541   4.170  14.613  0.00  0.00    +0.000 A 
ATOM      8  N   UNL     1       7.149   5.387  14.622  0.00  0.00    +0.000 NA
ATOM      9  C   UNL     1       7.215   5.690  15.899  0.00  0.00    +0.000 A 
ATOM     10  N   UNL     1       7.735   6.804  16.494  0.00  0.00    +0.000 NA
ENDROOT
BRANCH   4  11
ATOM     11  N   UNL     1       5.969   3.649  18.726  0.00  0.00    +0.000 N 
ATOM     12  H   UNL     1       6.493   2.777  18.621  0.00  0.00    +0.000 HD
BRANCH  11  13
ATOM     13  C   UNL     1       4.601   3.455  19.013  0.00  0.00    +0.000 A 
ATOM     14  C   UNL     1       4.248   2.763  20.175  0.00  0.00    +0.000 A 
ATOM     15  C   UNL     1       2.906   2.594  20.535  0.00  0.00    +0.000 A 
ATOM     16  C   UNL     1       1.877   3.102  19.730  0.00  0.00    +0.000 A 
ATOM     17  C   UNL     1       0.444   2.900  20.135  0.00  0.00    +0.000 C 
ATOM     18  C   UNL     1       2.229   3.786  18.559  0.00  0.00    +0.000 A 
ATOM     19 CL   UNL     1       1.028   4.446  17.504  0.00  0.00    +0.000 Cl
ATOM     20  C   UNL     1       3.572   3.961  18.208  0.00  0.00    +0.000 A 
ENDBRANCH  11  13
ENDBRANCH   4  11
TORSDOF 2
ENDMDL
MODEL 4
REMARK VINA RESULT:      -7.7      1.744      2.017
REMARK  Name = 
REMARK  4 active torsions:
REMARK  status: ('A' for Active; 'I' for Inactive)
REMARK    1  A    between atoms: C_1  and  C_2
REMARK    2  A    between atoms: C_4  and  N_5
REMARK    3  A    between atoms: N_5  and  C_6
REMARK    4  A    between atoms: C_9  and  C_10
REMARK                            x       y       z     vdW  Elec       q    Type
REMARK                         _______ _______ _______ _____ _____    ______ ____
ROOT
ATOM      1  C   UNL     1       7.866   7.945  17.980  0.00  0.00    +0.000 C 
ATOM      2  C   UNL     1       7.095   6.922  17.186  0.00  0.00    +0.000 A 
ATOM      3  C   UNL     1       5.685   6.677  17.605  0.00  0.00    +0.000 A 
ATOM      4  C   UNL     1       4.983   5.759  16.915  0.00  0.00    +0.000 A 
ATOM      5  N   UNL     1       5.645   5.090  15.863  0.00  0.00    +0.000 N 
ATOM      6  N   UNL     1       5.173   4.116  15.035  0.00  0.00    +0.000 NA
ATOM      7  C   UNL     1       6.215   3.911  14.231  0.00  0.00    +0.000 A 
ATOM      8  N   UNL     1       7.324   4.653  14.491  0.00  0.00    +0.000 NA
ATOM      9  C   UNL     1       6.970   5.390  15.520  0.00  0.00    +0.000 A 
ATOM     10  N   UNL     1       7.698   6.323  16.202  0.00  0.00    +0.000 NA
ENDROOT
BRANCH   4  11
ATOM     11  N   UNL     1       3.676   5.390  17.212  0.00  0.00    +0.000 N 
ATOM     12  H   UNL     1       2.972   6.018  16.817  0.00  0.00    +0.000 HD
BRANCH  11  13
ATOM     13  C   UNL     1       3.233   4.695  18.357  0.00  0.00    +0.000 A 
ATOM     14  C   UNL     1       1.962   4.975  18.866  0.00  0.00    +0.000 A 
ATOM     15  C   UNL     1       1.453   4.273  19.965  0.00  0.00    +0.000 A 
ATOM     16  C   UNL     1       2.212   3.277  20.594  0.00  0.00    +0.000 A 
ATOM     17  C   UNL     1       1.646   2.543  21.777  0.00  0.00    +0.000 C 
ATOM     18  C   UNL     1       3.492   3.002  20.093  0.00  0.00    +0.000 A 
ATOM     19 CL   UNL     1       4.500   1.792  20.806  0.00  0.00    +0.000 Cl
ATOM     20  C   UNL     1       3.992   3.700  18.988  0.00  0.00    +0.000 A 
ENDBRANCH  11  13
ENDBRANCH   4  11
TORSDOF 2
ENDMDL
MODEL 5
REMARK VINA RESULT:      -7.6      1.291      1.449
REMARK  Name = 
REMARK  4 active torsions:
REMARK  status: ('A' for Active; 'I' for Inactive)
REMARK    1  A    between atoms: C_1  and  C_2
REMARK    2  A    between atoms: C_4  and  N_5
REMARK    3  A    between atoms: N_5  and  C_6
REMARK    4  A    between atoms: C_9  and  C_10
REMARK                            x       y       z     vdW  Elec       q    Type
REMARK                         _______ _______ _______ _____ _____    ______ ____
ROOT
ATOM      1  C   UNL     1       7.634   6.793  18.186  0.00  0.00    +0.000 C 
ATOM      2  C   UNL     1       7.003   6.000  17.071  0.00  0.00    +0.000 A 
ATOM      3  C   UNL     1       5.720   5.308  17.387  0.00  0.00    +0.000 A 
ATOM      4  C   UNL     1       5.148   4.586  16.406  0.00  0.00    +0.000 A 
ATOM      5  N   UNL     1       5.817   4.528  15.165  0.00  0.00    +0.000 N 
ATOM      6  N   UNL     1       5.464   3.859  14.032  0.00  0.00    +0.000 NA
ATOM      7  C   UNL     1       6.438   4.210  13.192  0.00  0.00    +0.000 A 
ATOM      8  N   UNL     1       7.398   5.027  13.701  0.00  0.00    +0.000 NA
ATOM      9  C   UNL     1       7.013   5.223  14.942  0.00  0.00    +0.000 A 
ATOM     10  N   UNL     1       7.608   5.967  15.921  0.00  0.00    +0.000 NA
ENDROOT
BRANCH   4  11
ATOM     11  N   UNL     1       3.978   3.851  16.560  0.00  0.00    +0.000 N 
ATOM     12  H   UNL     1       3.379   3.853  15.731  0.00  0.00    +0.000 HD
BRANCH  11  13
ATOM     13  C   UNL     1       3.276   3.621  17.762  0.00  0.00    +0.000 A 
ATOM     14  C   UNL     1       3.071   2.303  18.181  0.00  0.00    +0.000 A 
ATOM     15  C   UNL     1       2.432   2.022  19.394  0.00  0.00    +0.000 A 
ATOM     16  C   UNL     1       1.965   3.056  20.216  0.00  0.00    +0.000 A 
ATOM     17  C   UNL     1       1.274   2.727  21.510  0.00  0.00    +0.000 C 
ATOM     18  C   UNL     1       2.158   4.378  19.792  0.00  0.00    +0.000 A 
ATOM     19 CL   UNL     1       1.615   5.718  20.741  0.00  0.00    +0.000 Cl
ATOM     20  C   UNL     1       2.807   4.654  18.583  0.00  0.00    +0.000 A 
ENDBRANCH  11  13
ENDBRANCH   4  11
TORSDOF 2
ENDMDL
MODEL 6
REMARK VINA RESULT:      -7.4      1.463      2.953
REMARK  Name = 
REMARK  4 active torsions:
REMARK  status: ('A' for Active; 'I' for Inactive)
REMARK    1  A    between atoms: C_1  and  C_2
REMARK    2  A    between atoms: C_4  and  N_5
REMARK    3  A    between atoms: N_5  and  C_6
REMARK    4  A    between atoms: C_9  and  C_10
REMARK                            x       y       z     vdW  Elec       q    Type
REMARK                         _______ _______ _______ _____ _____    ______ ____
ROOT
ATOM      1  C   UNL     1       6.708   4.271  12.747  0.00  0.00    +0.000 C 
ATOM      2  C   UNL     1       6.635   4.516  14.232  0.00  0.00    +0.000 A 
ATOM      3  C   UNL     1       5.834   3.543  15.030  0.00  0.00    +0.000 A 
ATOM      4  C   UNL     1       5.748   3.752  16.357  0.00  0.00    +0.000 A 
ATOM      5  N   UNL     1       6.407   4.883  16.882  0.00  0.00    +0.000 N 
ATOM      6  N   UNL     1       6.458   5.325  18.170  0.00  0.00    +0.000 NA
ATOM      7  C   UNL     1       7.250   6.391  18.063  0.00  0.00    +0.000 A 
ATOM      8  N   UNL     1       7.690   6.684  16.810  0.00  0.00    +0.000 NA
ATOM      9  C   UNL     1       7.157   5.741  16.066  0.00  0.00    +0.000 A 
ATOM     10  N   UNL     1       7.262   5.545  14.719  0.00  0.00    +0.000 NA
ENDROOT
BRANCH   4  11
ATOM     11  N   UNL     1       5.004   2.960  17.225  0.00  0.00    +0.000 N 
ATOM     12  H   UNL     1       4.907   1.990  16.915  0.00  0.00    +0.000 HD
BRANCH  11  13
ATOM     13  C   UNL     1       3.965   3.386  18.078  0.00  0.00    +0.000 A 
ATOM     14  C   UNL     1       3.039   4.317  17.599  0.00  0.00    +0.000 A 
ATOM     15  C   UNL     1       1.957   4.729  18.385  0.00  0.00    +0.000 A 
ATOM     16  C   UNL     1       1.781   4.230  19.683  0.00  0.00    +0.000 A 
ATOM     17  C   UNL     1       0.615   4.696  20.510  0.00  0.00    +0.000 C 
ATOM     18  C   UNL     1       2.715   3.306  20.170  0.00  0.00    +0.000 A 
ATOM     19 CL   UNL     1       2.579   2.638  21.759  0.00  0.00    +0.000 Cl
ATOM     20  C   UNL     1       3.790   2.889  19.376  0.00  0.00    +0.000 A 
ENDBRANCH  11  13
ENDBRANCH   4  11
TORSDOF 2
ENDMDL
MODEL 7
REMARK VINA RESULT:      -7.3      2.183      3.628
REMARK  Name = 
REMARK  4 active torsions:
REMARK  status: ('A' for Active; 'I' for Inactive)
REMARK    1  A    between atoms: C_1  and  C_2
REMARK    2  A    between atoms: C_4  and  N_5
REMARK    3  A    between atoms: N_5  and  C_6
REMARK    4  A    between atoms: C_9  and  C_10
REMARK                            x       y       z     vdW  Elec       q    Type
REMARK                         _______ _______ _______ _____ _____    ______ ____
ROOT
ATOM      1  C   UNL     1       6.125   3.871  13.645  0.00  0.00    +0.000 C 
ATOM      2  C   UNL     1       6.096   4.179  15.121  0.00  0.00    +0.000 A 
ATOM      3  C   UNL     1       4.811   3.919  15.831  0.00  0.00    +0.000 A 
ATOM      4  C   UNL     1       4.763   4.199  17.147  0.00  0.00    +0.000 A 
ATOM      5  N   UNL     1       5.927   4.731  17.743  0.00  0.00    +0.000 N 
ATOM      6  N   UNL     1       6.130   5.113  19.034  0.00  0.00    +0.000 NA
ATOM      7  C   UNL     1       7.410   5.485  19.011  0.00  0.00    +0.000 A 
ATOM      8  N   UNL     1       8.035   5.397  17.807  0.00  0.00    +0.000 NA
ATOM      9  C   UNL     1       7.103   4.929  17.007  0.00  0.00    +0.000 A 
ATOM     10  N   UNL     1       7.175   4.647  15.673  0.00  0.00    +0.000 NA
ENDROOT
BRANCH   4  11
ATOM     11  N   UNL     1       3.627   4.052  17.935  0.00  0.00    +0.000 N 
ATOM     12  H   UNL     1       3.001   3.307  17.620  0.00  0.00    +0.000 HD
BRANCH  11  13
ATOM     13  C   UNL     1       2.975   5.062  18.674  0.00  0.00    +0.000 A 
ATOM     14  C   UNL     1       2.427   4.739  19.919  0.00  0.00    +0.000 A 
ATOM     15  C   UNL     1       1.820   5.716  20.717  0.00  0.00    +0.000 A 
ATOM     16  C   UNL     1       1.733   7.045  20.282  0.00  0.00    +0.000 A 
ATOM     17  C   UNL     1       1.070   8.074  21.154  0.00  0.00    +0.000 C 
ATOM     18  C   UNL     1       2.272   7.370  19.029  0.00  0.00    +0.000 A 
ATOM     19 CL   UNL     1       2.210   8.983  18.411  0.00  0.00    +0.000 Cl
ATOM     20  C   UNL     1       2.886   6.391  18.239  0.00  0.00    +0.000 A 
ENDBRANCH  11  13
ENDBRANCH   4  11
TORSDOF 2
ENDMDL
MODEL 8
REMARK VINA RESULT:      -7.3      3.863      5.669
REMARK  Name = 
REMARK  4 active torsions:
REMARK  status: ('A' for Active; 'I' for Inactive)
REMARK    1  A    between atoms: C_1  and  C_2
REMARK    2  A    between atoms: C_4  and  N_5
REMARK    3  A    between atoms: N_5  and  C_6
REMARK    4  A    between atoms: C_9  and  C_10
REMARK                            x       y       z     vdW  Elec       q    Type
REMARK                         _______ _______ _______ _____ _____    ______ ____
ROOT
ATOM      1  C   UNL     1       0.702   2.219  18.800  0.00  0.00    +0.000 C 
ATOM      2  C   UNL     1       1.812   3.209  18.555  0.00  0.00    +0.000 A 
ATOM      3  C   UNL     1       1.804   4.441  19.396  0.00  0.00    +0.000 A 
ATOM      4  C   UNL     1       2.781   5.342  19.184  0.00  0.00    +0.000 A 
ATOM      5  N   UNL     1       3.722   5.057  18.172  0.00  0.00    +0.000 N 
ATOM      6  N   UNL     1       4.782   5.803  17.751  0.00  0.00    +0.000 NA
ATOM      7  C   UNL     1       5.319   5.015  16.820  0.00  0.00    +0.000 A 
ATOM      8  N   UNL     1       4.678   3.838  16.592  0.00  0.00    +0.000 NA
ATOM      9  C   UNL     1       3.671   3.865  17.436  0.00  0.00    +0.000 A 
ATOM     10  N   UNL     1       2.692   2.934  17.639  0.00  0.00    +0.000 NA
ENDROOT
BRANCH   4  11
ATOM     11  N   UNL     1       2.883   6.556  19.855  0.00  0.00    +0.000 N 
ATOM     12  H   UNL     1       3.202   6.464  20.823  0.00  0.00    +0.000 HD
BRANCH  11  13
ATOM     13  C   UNL     1       2.120   7.719  19.620  0.00  0.00    +0.000 A 
ATOM     14  C   UNL     1       2.088   8.253  18.328  0.00  0.00    +0.000 A 
ATOM     15  C   UNL     1       1.302   9.372  18.029  0.00  0.00    +0.000 A 
ATOM     16  C   UNL     1       0.535   9.997  19.022  0.00  0.00    +0.000 A 
ATOM     17  C   UNL     1      -0.295  11.201  18.676  0.00  0.00    +0.000 C 
ATOM     18  C   UNL     1       0.574   9.470  20.319  0.00  0.00    +0.000 A 
ATOM     19 CL   UNL     1      -0.339  10.174  21.608  0.00  0.00    +0.000 Cl
ATOM     20  C   UNL     1       1.354   8.345  20.612  0.00  0.00    +0.000 A 
ENDBRANCH  11  13
ENDBRANCH   4  11
TORSDOF 2
ENDMDL
MODEL 9
REMARK VINA RESULT:      -7.2      1.159      1.590
REMARK  Name = 
REMARK  4 active torsions:
REMARK  status: ('A' for Active; 'I' for Inactive)
REMARK    1  A    between atoms: C_1  and  C_2
REMARK    2  A    between atoms: C_4  and  N_5
REMARK    3  A    between atoms: N_5  and  C_6
REMARK    4  A    between atoms: C_9  and  C_10
REMARK                            x       y       z     vdW  Elec       q    Type
REMARK                         _______ _______ _______ _____ _____    ______ ____
ROOT
ATOM      1  C   UNL     1       8.258   8.211  18.101  0.00  0.00    +0.000 C 
ATOM      2  C   UNL     1       7.637   6.967  17.518  0.00  0.00    +0.000 A 
ATOM      3  C   UNL     1       7.031   6.008  18.487  0.00  0.00    +0.000 A 
ATOM      4  C   UNL     1       6.482   4.886  17.987  0.00  0.00    +0.000 A 
ATOM      5  N   UNL     1       6.540   4.699  16.589  0.00  0.00    +0.000 N 
ATOM      6  N   UNL     1       6.083   3.654  15.844  0.00  0.00    +0.000 NA
ATOM      7  C   UNL     1       6.374   4.053  14.606  0.00  0.00    +0.000 A 
ATOM      8  N   UNL     1       7.002   5.254  14.498  0.00  0.00    +0.000 NA
ATOM      9  C   UNL     1       7.113   5.659  15.743  0.00  0.00    +0.000 A 
ATOM     10  N   UNL     1       7.670   6.807  16.229  0.00  0.00    +0.000 NA
ENDROOT
BRANCH   4  11
ATOM     11  N   UNL     1       5.919   3.879  18.763  0.00  0.00    +0.000 N 
ATOM     12  H   UNL     1       6.385   2.974  18.664  0.00  0.00    +0.000 HD
BRANCH  11  13
ATOM     13  C   UNL     1       4.572   3.778  19.170  0.00  0.00    +0.000 A 
ATOM     14  C   UNL     1       4.028   4.797  19.958  0.00  0.00    +0.000 A 
ATOM     15  C   UNL     1       2.682   4.774  20.340  0.00  0.00    +0.000 A 
ATOM     16  C   UNL     1       1.844   3.719  19.953  0.00  0.00    +0.000 A 
ATOM     17  C   UNL     1       0.403   3.714  20.383  0.00  0.00    +0.000 C 
ATOM     18  C   UNL     1       2.390   2.691  19.173  0.00  0.00    +0.000 A 
ATOM     19 CL   UNL     1       1.432   1.349  18.650  0.00  0.00    +0.000 Cl
ATOM     20  C   UNL     1       3.734   2.723  18.785  0.00  0.00    +0.000 A 
ENDBRANCH  11  13
ENDBRANCH   4  11
TORSDOF 2
ENDMDL
