MODEL 1
REMARK VINA RESULT:      -6.1      0.000      0.000
REMARK  Name = 
REMARK  8 active torsions:
REMARK  status: ('A' for Active; 'I' for Inactive)
REMARK    1  A    between atoms: C_1  and  N_2
REMARK    2  A    between atoms: N_2  and  C_3
REMARK    3  A    between atoms: N_2  and  C_4
REMARK    4  A    between atoms: C_5  and  C_6
REMARK    5  A    between atoms: C_8  and  C_9
REMARK    6  A    between atoms: C_9  and  O_10
REMARK    7  A    between atoms: C_14  and  C_15
REMARK    8  A    between atoms: C_18  and  O_19
REMARK                            x       y       z     vdW  Elec       q    Type
REMARK                         _______ _______ _______ _____ _____    ______ ____
ROOT
ATOM      1  C   UNL     1       3.545   6.878  17.408  0.00  0.00    +0.000 A 
ATOM      2  C   UNL     1       3.266   8.265  17.328  0.00  0.00    +0.000 A 
ATOM      3  C   UNL     1       2.382   8.888  18.209  0.00  0.00    +0.000 A 
ATOM      4  C   UNL     1       1.803   8.106  19.207  0.00  0.00    +0.000 A 
ATOM      5  C   UNL     1       2.086   6.731  19.321  0.00  0.00    +0.000 A 
ATOM      6 BR   UNL     1       1.320   5.924  20.879  0.00  0.00    +0.000 Br
ATOM      7  C   UNL     1       2.944   6.056  18.409  0.00  0.00    +0.000 A 
ENDROOT
BRANCH   7   8
ATOM      8  C   UNL     1       3.220   4.578  18.500  0.00  0.00    +0.000 A 
ATOM      9  C   UNL     1       4.181   4.046  19.385  0.00  0.00    +0.000 A 
ATOM     10  C   UNL     1       4.489   2.678  19.420  0.00  0.00    +0.000 A 
ATOM     11  C   UNL     1       3.760   1.794  18.642  0.00  0.00    +0.000 A 
ATOM     12  C   UNL     1       2.756   2.262  17.812  0.00  0.00    +0.000 A 
ATOM     13  C   UNL     1       2.531   3.639  17.708  0.00  0.00    +0.000 A 
BRANCH  11  14
ATOM     14  O   UNL     1       4.014   0.459  18.646  0.00  0.00    +0.000 OA
ATOM     15  H   UNL     1       4.473   0.226  17.824  0.00  0.00    +0.000 HD
ENDBRANCH  11  14
ENDBRANCH   7   8
BRANCH   1  17
ATOM     16  C   UNL     1       5.357   5.898  15.754  0.00  0.00    +0.000 C 
ATOM     17  C   UNL     1       4.528   6.402  16.471  0.00  0.00    +0.000 C 
BRANCH  16  19
ATOM     18  C   UNL     1       7.551   4.771  15.623  0.00  0.00    +0.000 C 
ATOM     19  N   UNL     1       6.336   5.184  14.926  0.00  0.00    +0.000 N 
ATOM     20  C   UNL     1       5.770   4.232  13.986  0.00  0.00    +0.000 C 
ENDBRANCH  16  19
ENDBRANCH   1  17
BRANCH   3  21
ATOM     21  C   UNL     1       2.168  10.378  18.159  0.00  0.00    +0.000 C 
BRANCH  21  22
ATOM     22  O   UNL     1       0.786  10.705  18.085  0.00  0.00    +0.000 OA
ATOM     23  H   UNL     1       0.705  11.647  18.308  0.00  0.00    +0.000 HD
ENDBRANCH  21  22
ENDBRANCH   3  21
TORSDOF 6
ENDMDL
MODEL 2
REMARK VINA RESULT:      -6.0      0.080      1.048
REMARK  Name = 
REMARK  8 active torsions:
REMARK  status: ('A' for Active; 'I' for Inactive)
REMARK    1  A    between atoms: C_1  and  N_2
REMARK    2  A    between atoms: N_2  and  C_3
REMARK    3  A    between atoms: N_2  and  C_4
REMARK    4  A    between atoms: C_5  and  C_6
REMARK    5  A    between atoms: C_8  and  C_9
REMARK    6  A    between atoms: C_9  and  O_10
REMARK    7  A    between atoms: C_14  and  C_15
REMARK    8  A    between atoms: C_18  and  O_19
REMARK                            x       y       z     vdW  Elec       q    Type
REMARK                         _______ _______ _______ _____ _____    ______ ____
ROOT
ATOM      1  C   UNL     1       3.550   6.829  17.380  0.00  0.00    +0.000 A 
ATOM      2  C   UNL     1       3.267   8.216  17.319  0.00  0.00    +0.000 A 
ATOM      3  C   UNL     1       2.396   8.828  18.222  0.00  0.00    +0.000 A 
ATOM      4  C   UNL     1       1.836   8.035  19.221  0.00  0.00    +0.000 A 
ATOM      5  C   UNL     1       2.123   6.659  19.315  0.00  0.00    +0.000 A 
ATOM      6 BR   UNL     1       1.385   5.834  20.878  0.00  0.00    +0.000 Br
ATOM      7  C   UNL     1       2.967   5.995  18.382  0.00  0.00    +0.000 A 
ENDROOT
BRANCH   7   8
ATOM      8  C   UNL     1       3.247   4.518  18.453  0.00  0.00    +0.000 A 
ATOM      9  C   UNL     1       2.548   3.581  17.662  0.00  0.00    +0.000 A 
ATOM     10  C   UNL     1       2.758   2.199  17.779  0.00  0.00    +0.000 A 
ATOM     11  C   UNL     1       3.755   1.728  18.616  0.00  0.00    +0.000 A 
ATOM     12  C   UNL     1       4.518   2.614  19.356  0.00  0.00    +0.000 A 
ATOM     13  C   UNL     1       4.228   3.982  19.311  0.00  0.00    +0.000 A 
BRANCH  11  14
ATOM     14  O   UNL     1       4.003   0.399  18.758  0.00  0.00    +0.000 OA
ATOM     15  H   UNL     1       3.818   0.144  19.675  0.00  0.00    +0.000 HD
ENDBRANCH  11  14
ENDBRANCH   7   8
BRANCH   1  17
ATOM     16  C   UNL     1       5.353   5.881  15.697  0.00  0.00    +0.000 C 
ATOM     17  C   UNL     1       4.517   6.365  16.421  0.00  0.00    +0.000 C 
BRANCH  16  19
ATOM     18  C   UNL     1       7.592   4.849  15.565  0.00  0.00    +0.000 C 
ATOM     19  N   UNL     1       6.354   5.196  14.873  0.00  0.00    +0.000 N 
ATOM     20  C   UNL     1       5.821   4.201  13.955  0.00  0.00    +0.000 C 
ENDBRANCH  16  19
ENDBRANCH   1  17
BRANCH   3  21
ATOM     21  C   UNL     1       2.179  10.318  18.190  0.00  0.00    +0.000 C 
BRANCH  21  22
ATOM     22  O   UNL     1       0.801  10.641  18.049  0.00  0.00    +0.000 OA
ATOM     23  H   UNL     1       0.724  11.605  18.151  0.00  0.00    +0.000 HD
ENDBRANCH  21  22
ENDBRANCH   3  21
TORSDOF 6
ENDMDL
MODEL 3
REMARK VINA RESULT:      -5.7      3.403      5.390
REMARK  Name = 
REMARK  8 active torsions:
REMARK  status: ('A' for Active; 'I' for Inactive)
REMARK    1  A    between atoms: C_1  and  N_2
REMARK    2  A    between atoms: N_2  and  C_3
REMARK    3  A    between atoms: N_2  and  C_4
REMARK    4  A    between atoms: C_5  and  C_6
REMARK    5  A    between atoms: C_8  and  C_9
REMARK    6  A    between atoms: C_9  and  O_10
REMARK    7  A    between atoms: C_14  and  C_15
REMARK    8  A    between atoms: C_18  and  O_19
REMARK                            x       y       z     vdW  Elec       q    Type
REMARK                         _______ _______ _______ _____ _____    ______ ____
ROOT
ATOM      1  C   UNL     1       3.783   5.582  17.830  0.00  0.00    +0.000 A 
ATOM      2  C   UNL     1       4.568   6.027  16.739  0.00  0.00    +0.000 A 
ATOM      3  C   UNL     1       5.303   5.138  15.953  0.00  0.00    +0.000 A 
ATOM      4  C   UNL     1       5.210   3.780  16.250  0.00  0.00    +0.000 A 
ATOM      5  C   UNL     1       4.415   3.314  17.315  0.00  0.00    +0.000 A 
ATOM      6 BR   UNL     1       4.304   1.404  17.401  0.00  0.00    +0.000 Br
ATOM      7  C   UNL     1       3.693   4.197  18.166  0.00  0.00    +0.000 A 
ENDROOT
BRANCH   7   8
ATOM      8  C   UNL     1       2.874   3.709  19.331  0.00  0.00    +0.000 A 
ATOM      9  C   UNL     1       1.463   3.727  19.318  0.00  0.00    +0.000 A 
ATOM     10  C   UNL     1       0.699   3.340  20.429  0.00  0.00    +0.000 A 
ATOM     11  C   UNL     1       1.333   2.820  21.544  0.00  0.00    +0.000 A 
ATOM     12  C   UNL     1       2.712   2.713  21.575  0.00  0.00    +0.000 A 
ATOM     13  C   UNL     1       3.467   3.201  20.503  0.00  0.00    +0.000 A 
BRANCH  11  14
ATOM     14  O   UNL     1       0.638   2.423  22.643  0.00  0.00    +0.000 OA
ATOM     15  H   UNL     1       0.771   3.074  23.349  0.00  0.00    +0.000 HD
ENDBRANCH  11  14
ENDBRANCH   7   8
BRANCH   1  17
ATOM     16  C   UNL     1       2.450   7.557  18.972  0.00  0.00    +0.000 C 
ATOM     17  C   UNL     1       3.035   6.613  18.499  0.00  0.00    +0.000 C 
BRANCH  16  19
ATOM     18  C   UNL     1       1.023   9.495  18.416  0.00  0.00    +0.000 C 
ATOM     19  N   UNL     1       1.750   8.757  19.445  0.00  0.00    +0.000 N 
ATOM     20  C   UNL     1       1.091   8.617  20.733  0.00  0.00    +0.000 C 
ENDBRANCH  16  19
ENDBRANCH   1  17
BRANCH   3  21
ATOM     21  C   UNL     1       6.061   5.625  14.746  0.00  0.00    +0.000 C 
BRANCH  21  22
ATOM     22  O   UNL     1       7.464   5.464  14.910  0.00  0.00    +0.000 OA
ATOM     23  H   UNL     1       7.614   5.208  15.836  0.00  0.00    +0.000 HD
ENDBRANCH  21  22
ENDBRANCH   3  21
TORSDOF 6
ENDMDL
MODEL 4
REMARK VINA RESULT:      -5.6      3.431      5.337
REMARK  Name = 
REMARK  8 active torsions:
REMARK  status: ('A' for Active; 'I' for Inactive)
REMARK    1  A    between atoms: C_1  and  N_2
REMARK    2  A    between atoms: N_2  and  C_3
REMARK    3  A    between atoms: N_2  and  C_4
REMARK    4  A    between atoms: C_5  and  C_6
REMARK    5  A    between atoms: C_8  and  C_9
REMARK    6  A    between atoms: C_9  and  O_10
REMARK    7  A    between atoms: C_14  and  C_15
REMARK    8  A    between atoms: C_18  and  O_19
REMARK                            x       y       z     vdW  Elec       q    Type
REMARK                         _______ _______ _______ _____ _____    ______ ____
ROOT
ATOM      1  C   UNL     1       3.866   5.586  17.848  0.00  0.00    +0.000 A 
ATOM      2  C   UNL     1       4.635   5.997  16.732  0.00  0.00    +0.000 A 
ATOM      3  C   UNL     1       5.294   5.077  15.916  0.00  0.00    +0.000 A 
ATOM      4  C   UNL     1       5.141   3.724  16.209  0.00  0.00    +0.000 A 
ATOM      5  C   UNL     1       4.361   3.292  17.299  0.00  0.00    +0.000 A 
ATOM      6 BR   UNL     1       4.153   1.390  17.378  0.00  0.00    +0.000 Br
ATOM      7  C   UNL     1       3.716   4.205  18.179  0.00  0.00    +0.000 A 
ENDROOT
BRANCH   7   8
ATOM      8  C   UNL     1       2.913   3.752  19.369  0.00  0.00    +0.000 A 
ATOM      9  C   UNL     1       3.517   3.193  20.515  0.00  0.00    +0.000 A 
ATOM     10  C   UNL     1       2.765   2.705  21.594  0.00  0.00    +0.000 A 
ATOM     11  C   UNL     1       1.390   2.866  21.597  0.00  0.00    +0.000 A 
ATOM     12  C   UNL     1       0.759   3.476  20.526  0.00  0.00    +0.000 A 
ATOM     13  C   UNL     1       1.509   3.862  19.410  0.00  0.00    +0.000 A 
BRANCH  11  14
ATOM     14  O   UNL     1       0.618   2.418  22.622  0.00  0.00    +0.000 OA
ATOM     15  H   UNL     1      -0.295   2.328  22.308  0.00  0.00    +0.000 HD
ENDBRANCH  11  14
ENDBRANCH   7   8
BRANCH   1  17
ATOM     16  C   UNL     1       2.553   7.455  19.175  0.00  0.00    +0.000 C 
ATOM     17  C   UNL     1       3.196   6.650  18.548  0.00  0.00    +0.000 C 
BRANCH  16  19
ATOM     18  C   UNL     1       0.977   9.355  19.254  0.00  0.00    +0.000 C 
ATOM     19  N   UNL     1       1.728   8.348  19.998  0.00  0.00    +0.000 N 
ATOM     20  C   UNL     1       1.037   7.704  21.103  0.00  0.00    +0.000 C 
ENDBRANCH  16  19
ENDBRANCH   1  17
BRANCH   3  21
ATOM     21  C   UNL     1       6.035   5.533  14.685  0.00  0.00    +0.000 C 
BRANCH  21  22
ATOM     22  O   UNL     1       7.443   5.482  14.875  0.00  0.00    +0.000 OA
ATOM     23  H   UNL     1       7.698   4.544  14.858  0.00  0.00    +0.000 HD
ENDBRANCH  21  22
ENDBRANCH   3  21
TORSDOF 6
ENDMDL
MODEL 5
REMARK VINA RESULT:      -5.3      3.240      4.980
REMARK  Name = 
REMARK  8 active torsions:
REMARK  status: ('A' for Active; 'I' for Inactive)
REMARK    1  A    between atoms: C_1  and  N_2
REMARK    2  A    between atoms: N_2  and  C_3
REMARK    3  A    between atoms: N_2  and  C_4
REMARK    4  A    between atoms: C_5  and  C_6
REMARK    5  A    between atoms: C_8  and  C_9
REMARK    6  A    between atoms: C_9  and  O_10
REMARK    7  A    between atoms: C_14  and  C_15
REMARK    8  A    between atoms: C_18  and  O_19
REMARK                            x       y       z     vdW  Elec       q    Type
REMARK                         _______ _______ _______ _____ _____    ______ ____
ROOT
ATOM      1  C   UNL     1       1.694   6.986  20.690  0.00  0.00    +0.000 A 
ATOM      2  C   UNL     1       0.894   7.698  21.618  0.00  0.00    +0.000 A 
ATOM      3  C   UNL     1       0.481   9.009  21.377  0.00  0.00    +0.000 A 
ATOM      4  C   UNL     1       0.849   9.592  20.166  0.00  0.00    +0.000 A 
ATOM      5  C   UNL     1       1.622   8.894  19.218  0.00  0.00    +0.000 A 
ATOM      6 BR   UNL     1       1.833   9.837  17.566  0.00  0.00    +0.000 Br
ATOM      7  C   UNL     1       2.101   7.575  19.454  0.00  0.00    +0.000 A 
ENDROOT
BRANCH   7   8
ATOM      8  C   UNL     1       2.961   6.837  18.464  0.00  0.00    +0.000 A 
ATOM      9  C   UNL     1       2.645   5.537  18.014  0.00  0.00    +0.000 A 
ATOM     10  C   UNL     1       3.483   4.821  17.146  0.00  0.00    +0.000 A 
ATOM     11  C   UNL     1       4.606   5.435  16.621  0.00  0.00    +0.000 A 
ATOM     12  C   UNL     1       4.918   6.736  16.976  0.00  0.00    +0.000 A 
ATOM     13  C   UNL     1       4.133   7.402  17.923  0.00  0.00    +0.000 A 
BRANCH  11  14
ATOM     14  O   UNL     1       5.446   4.787  15.770  0.00  0.00    +0.000 OA
ATOM     15  H   UNL     1       5.524   3.863  16.053  0.00  0.00    +0.000 HD
ENDBRANCH  11  14
ENDBRANCH   7   8
BRANCH   1  17
ATOM     16  C   UNL     1       2.217   4.455  21.240  0.00  0.00    +0.000 C 
ATOM     17  C   UNL     1       1.979   5.624  21.056  0.00  0.00    +0.000 C 
BRANCH  16  19
ATOM     18  C   UNL     1       1.435   2.179  21.794  0.00  0.00    +0.000 C 
ATOM     19  N   UNL     1       2.539   3.029  21.355  0.00  0.00    +0.000 N 
ATOM     20  C   UNL     1       3.385   2.501  20.297  0.00  0.00    +0.000 C 
ENDBRANCH  16  19
ENDBRANCH   1  17
BRANCH   3  21
ATOM     21  C   UNL     1      -0.439   9.714  22.338  0.00  0.00    +0.000 C 
BRANCH  21  22
ATOM     22  O   UNL     1       0.185   9.928  23.598  0.00  0.00    +0.000 OA
ATOM     23  H   UNL     1      -0.137  10.781  23.933  0.00  0.00    +0.000 HD
ENDBRANCH  21  22
ENDBRANCH   3  21
TORSDOF 6
ENDMDL
MODEL 6
REMARK VINA RESULT:      -5.3      3.235      4.918
REMARK  Name = 
REMARK  8 active torsions:
REMARK  status: ('A' for Active; 'I' for Inactive)
REMARK    1  A    between atoms: C_1  and  N_2
REMARK    2  A    between atoms: N_2  and  C_3
REMARK    3  A    between atoms: N_2  and  C_4
REMARK    4  A    between atoms: C_5  and  C_6
REMARK    5  A    between atoms: C_8  and  C_9
REMARK    6  A    between atoms: C_9  and  O_10
REMARK    7  A    between atoms: C_14  and  C_15
REMARK    8  A    between atoms: C_18  and  O_19
REMARK                            x       y       z     vdW  Elec       q    Type
REMARK                         _______ _______ _______ _____ _____    ______ ____
ROOT
ATOM      1  C   UNL     1       1.644   6.949  20.656  0.00  0.00    +0.000 A 
ATOM      2  C   UNL     1       0.846   7.672  21.576  0.00  0.00    +0.000 A 
ATOM      3  C   UNL     1       0.495   9.004  21.356  0.00  0.00    +0.000 A 
ATOM      4  C   UNL     1       0.925   9.600  20.172  0.00  0.00    +0.000 A 
ATOM      5  C   UNL     1       1.698   8.892  19.231  0.00  0.00    +0.000 A 
ATOM      6 BR   UNL     1       2.000   9.865  17.610  0.00  0.00    +0.000 Br
ATOM      7  C   UNL     1       2.114   7.549  19.448  0.00  0.00    +0.000 A 
ENDROOT
BRANCH   7   8
ATOM      8  C   UNL     1       2.974   6.799  18.466  0.00  0.00    +0.000 A 
ATOM      9  C   UNL     1       4.151   7.353  17.921  0.00  0.00    +0.000 A 
ATOM     10  C   UNL     1       4.914   6.684  16.952  0.00  0.00    +0.000 A 
ATOM     11  C   UNL     1       4.573   5.393  16.587  0.00  0.00    +0.000 A 
ATOM     12  C   UNL     1       3.468   4.780  17.150  0.00  0.00    +0.000 A 
ATOM     13  C   UNL     1       2.655   5.496  18.035  0.00  0.00    +0.000 A 
BRANCH  11  14
ATOM     14  O   UNL     1       5.284   4.700  15.659  0.00  0.00    +0.000 OA
ATOM     15  H   UNL     1       5.925   5.299  15.245  0.00  0.00    +0.000 HD
ENDBRANCH  11  14
ENDBRANCH   7   8
BRANCH   1  17
ATOM     16  C   UNL     1       2.144   4.414  21.205  0.00  0.00    +0.000 C 
ATOM     17  C   UNL     1       1.861   5.568  20.996  0.00  0.00    +0.000 C 
BRANCH  16  19
ATOM     18  C   UNL     1       1.569   2.123  21.927  0.00  0.00    +0.000 C 
ATOM     19  N   UNL     1       2.593   3.034  21.423  0.00  0.00    +0.000 N 
ATOM     20  C   UNL     1       3.487   2.509  20.404  0.00  0.00    +0.000 C 
ENDBRANCH  16  19
ENDBRANCH   1  17
BRANCH   3  21
ATOM     21  C   UNL     1      -0.425   9.725  22.306  0.00  0.00    +0.000 C 
BRANCH  21  22
ATOM     22  O   UNL     1       0.171   9.890  23.586  0.00  0.00    +0.000 OA
ATOM     23  H   UNL     1       0.881  10.546  23.486  0.00  0.00    +0.000 HD
ENDBRANCH  21  22
ENDBRANCH   3  21
TORSDOF 6
ENDMDL
MODEL 7
REMARK VINA RESULT:      -5.3      2.190      2.647
REMARK  Name = 
REMARK  8 active torsions:
REMARK  status: ('A' for Active; 'I' for Inactive)
REMARK    1  A    between atoms: C_1  and  N_2
REMARK    2  A    between atoms: N_2  and  C_3
REMARK    3  A    between atoms: N_2  and  C_4
REMARK    4  A    between atoms: C_5  and  C_6
REMARK    5  A    between atoms: C_8  and  C_9
REMARK    6  A    between atoms: C_9  and  O_10
REMARK    7  A    between atoms: C_14  and  C_15
REMARK    8  A    between atoms: C_18  and  O_19
REMARK                            x       y       z     vdW  Elec       q    Type
REMARK                         _______ _______ _______ _____ _____    ______ ____
ROOT
ATOM      1  C   UNL     1       2.773   7.248  18.365  0.00  0.00    +0.000 A 
ATOM      2  C   UNL     1       2.831   8.535  17.776  0.00  0.00    +0.000 A 
ATOM      3  C   UNL     1       2.085   9.604  18.273  0.00  0.00    +0.000 A 
ATOM      4  C   UNL     1       1.301   9.377  19.402  0.00  0.00    +0.000 A 
ATOM      5  C   UNL     1       1.247   8.112  20.019  0.00  0.00    +0.000 A 
ATOM      6 BR   UNL     1       0.253   8.105  21.655  0.00  0.00    +0.000 Br
ATOM      7  C   UNL     1       1.957   6.989  19.508  0.00  0.00    +0.000 A 
ENDROOT
BRANCH   7   8
ATOM      8  C   UNL     1       1.874   5.625  20.138  0.00  0.00    +0.000 A 
ATOM      9  C   UNL     1       1.022   4.616  19.638  0.00  0.00    +0.000 A 
ATOM     10  C   UNL     1       0.891   3.369  20.266  0.00  0.00    +0.000 A 
ATOM     11  C   UNL     1       1.695   3.063  21.351  0.00  0.00    +0.000 A 
ATOM     12  C   UNL     1       2.599   3.994  21.832  0.00  0.00    +0.000 A 
ATOM     13  C   UNL     1       2.644   5.271  21.263  0.00  0.00    +0.000 A 
BRANCH  11  14
ATOM     14  O   UNL     1       1.612   1.866  21.989  0.00  0.00    +0.000 OA
ATOM     15  H   UNL     1       0.761   1.455  21.771  0.00  0.00    +0.000 HD
ENDBRANCH  11  14
ENDBRANCH   7   8
BRANCH   1  17
ATOM     16  C   UNL     1       4.463   5.470  17.383  0.00  0.00    +0.000 C 
ATOM     17  C   UNL     1       3.652   6.272  17.776  0.00  0.00    +0.000 C 
BRANCH  16  19
ATOM     18  C   UNL     1       5.495   4.105  15.602  0.00  0.00    +0.000 C 
ATOM     19  N   UNL     1       5.488   4.488  17.011  0.00  0.00    +0.000 N 
ATOM     20  C   UNL     1       6.785   4.683  17.639  0.00  0.00    +0.000 C 
ENDBRANCH  16  19
ENDBRANCH   1  17
BRANCH   3  21
ATOM     21  C   UNL     1       2.229  10.983  17.684  0.00  0.00    +0.000 C 
BRANCH  21  22
ATOM     22  O   UNL     1       1.241  11.872  18.188  0.00  0.00    +0.000 OA
ATOM     23  H   UNL     1       1.652  12.371  18.914  0.00  0.00    +0.000 HD
ENDBRANCH  21  22
ENDBRANCH   3  21
TORSDOF 6
ENDMDL
MODEL 8
REMARK VINA RESULT:      -5.2      7.757     10.034
REMARK  Name = 
REMARK  8 active torsions:
REMARK  status: ('A' for Active; 'I' for Inactive)
REMARK    1  A    between atoms: C_1  and  N_2
REMARK    2  A    between atoms: N_2  and  C_3
REMARK    3  A    between atoms: N_2  and  C_4
REMARK    4  A    between atoms: C_5  and  C_6
REMARK    5  A    between atoms: C_8  and  C_9
REMARK    6  A    between atoms: C_9  and  O_10
REMARK    7  A    between atoms: C_14  and  C_15
REMARK    8  A    between atoms: C_18  and  O_19
REMARK                            x       y       z     vdW  Elec       q    Type
REMARK                         _______ _______ _______ _____ _____    ______ ____
ROOT
ATOM      1  C   UNL     1      -3.325  12.576  20.008  0.00  0.00    +0.000 A 
ATOM      2  C   UNL     1      -3.757  13.103  21.250  0.00  0.00    +0.000 A 
ATOM      3  C   UNL     1      -5.064  12.929  21.706  0.00  0.00    +0.000 A 
ATOM      4  C   UNL     1      -5.933  12.182  20.915  0.00  0.00    +0.000 A 
ATOM      5  C   UNL     1      -5.518  11.628  19.688  0.00  0.00    +0.000 A 
ATOM      6 BR   UNL     1      -6.832  10.491  18.884  0.00  0.00    +0.000 Br
ATOM      7  C   UNL     1      -4.207  11.827  19.171  0.00  0.00    +0.000 A 
ENDROOT
BRANCH   7   8
ATOM      8  C   UNL     1      -3.768  11.272  17.843  0.00  0.00    +0.000 A 
ATOM      9  C   UNL     1      -2.754  10.297  17.733  0.00  0.00    +0.000 A 
ATOM     10  C   UNL     1      -2.295   9.831  16.492  0.00  0.00    +0.000 A 
ATOM     11  C   UNL     1      -2.919  10.254  15.331  0.00  0.00    +0.000 A 
ATOM     12  C   UNL     1      -3.968  11.155  15.393  0.00  0.00    +0.000 A 
ATOM     13  C   UNL     1      -4.346  11.692  16.628  0.00  0.00    +0.000 A 
BRANCH  11  14
ATOM     14  O   UNL     1      -2.517   9.826  14.105  0.00  0.00    +0.000 OA
ATOM     15  H   UNL     1      -1.694   9.324  14.204  0.00  0.00    +0.000 HD
ENDBRANCH  11  14
ENDBRANCH   7   8
BRANCH   1  17
ATOM     16  C   UNL     1      -0.740  12.861  19.541  0.00  0.00    +0.000 C 
ATOM     17  C   UNL     1      -1.932  12.784  19.713  0.00  0.00    +0.000 C 
BRANCH  16  19
ATOM     18  C   UNL     1       1.274  11.574  18.923  0.00  0.00    +0.000 C 
ATOM     19  N   UNL     1       0.717  12.848  19.368  0.00  0.00    +0.000 N 
ATOM     20  C   UNL     1       1.278  14.048  18.770  0.00  0.00    +0.000 C 
ENDBRANCH  16  19
ENDBRANCH   1  17
BRANCH   3  21
ATOM     21  C   UNL     1      -5.475  13.424  23.068  0.00  0.00    +0.000 C 
BRANCH  21  22
ATOM     22  O   UNL     1      -5.347  12.407  24.054  0.00  0.00    +0.000 OA
ATOM     23  H   UNL     1      -5.230  11.566  23.581  0.00  0.00    +0.000 HD
ENDBRANCH  21  22
ENDBRANCH   3  21
TORSDOF 6
ENDMDL
MODEL 9
REMARK VINA RESULT:      -5.2      8.298     11.192
REMARK  Name = 
REMARK  8 active torsions:
REMARK  status: ('A' for Active; 'I' for Inactive)
REMARK    1  A    between atoms: C_1  and  N_2
REMARK    2  A    between atoms: N_2  and  C_3
REMARK    3  A    between atoms: N_2  and  C_4
REMARK    4  A    between atoms: C_5  and  C_6
REMARK    5  A    between atoms: C_8  and  C_9
REMARK    6  A    between atoms: C_9  and  O_10
REMARK    7  A    between atoms: C_14  and  C_15
REMARK    8  A    between atoms: C_18  and  O_19
REMARK                            x       y       z     vdW  Elec       q    Type
REMARK                         _______ _______ _______ _____ _____    ______ ____
ROOT
ATOM      1  C   UNL     1      -3.333  11.746  18.815  0.00  0.00    +0.000 A 
ATOM      2  C   UNL     1      -3.619  11.072  17.602  0.00  0.00    +0.000 A 
ATOM      3  C   UNL     1      -2.637  10.369  16.904  0.00  0.00    +0.000 A 
ATOM      4  C   UNL     1      -1.360  10.313  17.461  0.00  0.00    +0.000 A 
ATOM      5  C   UNL     1      -1.061  10.954  18.679  0.00  0.00    +0.000 A 
ATOM      6 BR   UNL     1       0.701  10.572  19.324  0.00  0.00    +0.000 Br
ATOM      7  C   UNL     1      -2.026  11.720  19.389  0.00  0.00    +0.000 A 
ENDROOT
BRANCH   7   8
ATOM      8  C   UNL     1      -1.702  12.441  20.671  0.00  0.00    +0.000 A 
ATOM      9  C   UNL     1      -1.776  11.807  21.930  0.00  0.00    +0.000 A 
ATOM     10  C   UNL     1      -1.545  12.497  23.129  0.00  0.00    +0.000 A 
ATOM     11  C   UNL     1      -1.125  13.815  23.088  0.00  0.00    +0.000 A 
ATOM     12  C   UNL     1      -0.967  14.458  21.873  0.00  0.00    +0.000 A 
ATOM     13  C   UNL     1      -1.303  13.792  20.690  0.00  0.00    +0.000 A 
BRANCH  11  14
ATOM     14  O   UNL     1      -0.880  14.524  24.222  0.00  0.00    +0.000 OA
ATOM     15  H   UNL     1      -1.708  14.616  24.718  0.00  0.00    +0.000 HD
ENDBRANCH  11  14
ENDBRANCH   7   8
BRANCH   1  17
ATOM     16  C   UNL     1      -5.484  12.788  19.942  0.00  0.00    +0.000 C 
ATOM     17  C   UNL     1      -4.467  12.369  19.445  0.00  0.00    +0.000 C 
BRANCH  16  19
ATOM     18  C   UNL     1      -7.535  12.099  21.132  0.00  0.00    +0.000 C 
ATOM     19  N   UNL     1      -6.757  13.189  20.551  0.00  0.00    +0.000 N 
ATOM     20  C   UNL     1      -6.714  14.433  21.304  0.00  0.00    +0.000 C 
ENDBRANCH  16  19
ENDBRANCH   1  17
BRANCH   3  21
ATOM     21  C   UNL     1      -2.984   9.590  15.663  0.00  0.00    +0.000 C 
BRANCH  21  22
ATOM     22  O   UNL     1      -2.685  10.326  14.483  0.00  0.00    +0.000 OA
ATOM     23  H   UNL     1      -3.327  10.051  13.807  0.00  0.00    +0.000 HD
ENDBRANCH  21  22
ENDBRANCH   3  21
TORSDOF 6
ENDMDL
