MODEL 1
REMARK VINA RESULT:      -8.4      0.000      0.000
REMARK  Name = 
REMARK  13 active torsions:
REMARK  status: ('A' for Active; 'I' for Inactive)
REMARK    1  A    between atoms: C_1  and  N_2
REMARK    2  A    between atoms: C_3  and  C_5
REMARK    3  A    between atoms: C_5  and  C_6
REMARK    4  A    between atoms: C_5  and  N_10
REMARK    5  A    between atoms: N_8  and  O_9
REMARK    6  A    between atoms: N_10  and  C_11
REMARK    7  A    between atoms: C_12  and  C_14
REMARK    8  A    between atoms: C_17  and  C_18
REMARK    9  A    between atoms: C_21  and  O_22
REMARK   10  A    between atoms: O_22  and  C_23
REMARK   11  A    between atoms: C_23  and  C_24
REMARK   12  A    between atoms: C_24  and  C_25
REMARK   13  A    between atoms: C_25  and  N_26
REMARK                            x       y       z     vdW  Elec       q    Type
REMARK                         _______ _______ _______ _____ _____    ______ ____
ROOT
ATOM      1  C   UNL     1       3.122   6.669  18.591  0.00  0.00    +0.000 A 
ATOM      2  C   UNL     1       2.581   6.795  19.868  0.00  0.00    +0.000 A 
ATOM      3  C   UNL     1       1.676   7.815  20.154  0.00  0.00    +0.000 A 
ATOM      4  C   UNL     1       1.385   8.827  19.223  0.00  0.00    +0.000 A 
ATOM      5  C   UNL     1       1.988   8.728  17.961  0.00  0.00    +0.000 A 
ATOM      6  C   UNL     1       2.833   7.654  17.642  0.00  0.00    +0.000 A 
ENDROOT
BRANCH   4   7
ATOM      7  C   UNL     1       0.540   9.976  19.612  0.00  0.00    +0.000 A 
ATOM      8  C   UNL     1      -0.569  10.324  18.824  0.00  0.00    +0.000 A 
ATOM      9  C   UNL     1      -1.402  11.386  19.155  0.00  0.00    +0.000 A 
ATOM     10  C   UNL     1      -1.171  12.130  20.304  0.00  0.00    +0.000 A 
ATOM     11  C   UNL     1      -0.084  11.800  21.114  0.00  0.00    +0.000 A 
ATOM     12  C   UNL     1       0.769  10.741  20.766  0.00  0.00    +0.000 A 
BRANCH  10  13
ATOM     13  O   UNL     1      -1.941  13.181  20.722  0.00  0.00    +0.000 OA
BRANCH  13  14
ATOM     14  C   UNL     1      -3.160  12.865  21.407  0.00  0.00    +0.000 C 
BRANCH  14  15
ATOM     15  C   UNL     1      -4.378  13.094  20.504  0.00  0.00    +0.000 C 
BRANCH  15  16
ATOM     16  C   UNL     1      -5.603  12.407  21.111  0.00  0.00    +0.000 C 
BRANCH  16  17
ATOM     17  N   UNL     1      -6.819  12.478  20.283  0.00  0.00    +0.000 NA
ATOM     18  C   UNL     1      -7.768  11.413  20.698  0.00  0.00    +0.000 C 
ATOM     19  C   UNL     1      -7.324   9.993  20.294  0.00  0.00    +0.000 C 
ATOM     20  O   UNL     1      -7.080   9.896  18.886  0.00  0.00    +0.000 OA
ATOM     21  C   UNL     1      -6.118  10.870  18.460  0.00  0.00    +0.000 C 
ATOM     22  C   UNL     1      -6.565  12.292  18.835  0.00  0.00    +0.000 C 
ENDBRANCH  16  17
ENDBRANCH  15  16
ENDBRANCH  14  15
ENDBRANCH  13  14
ENDBRANCH  10  13
ENDBRANCH   4   7
BRANCH   1  25
ATOM     23  N   UNL     1       5.185   5.794  17.442  0.00  0.00    +0.000 N 
ATOM     24  C   UNL     1       5.743   7.114  17.151  0.00  0.00    +0.000 C 
ATOM     25  C   UNL     1       4.042   5.555  18.209  0.00  0.00    +0.000 C 
ATOM     26  O   UNL     1       3.786   4.427  18.616  0.00  0.00    +0.000 OA
BRANCH  23  27
ATOM     27  C   UNL     1       5.966   4.605  17.008  0.00  0.00    +0.000 C 
BRANCH  27  30
ATOM     28  C   UNL     1       7.686   5.221  13.638  0.00  0.00    +0.000 C 
ATOM     29  N   UNL     1       7.363   5.218  15.045  0.00  0.00    +0.000 N 
ATOM     30  C   UNL     1       6.261   4.512  15.492  0.00  0.00    +0.000 C 
ATOM     31  O   UNL     1       5.616   3.811  14.709  0.00  0.00    +0.000 OA
ATOM     32  H   UNL     1       8.004   5.653  15.696  0.00  0.00    +0.000 HD
ENDBRANCH  27  30
BRANCH  27  33
ATOM     33  C   UNL     1       7.247   4.571  17.859  0.00  0.00    +0.000 C 
ATOM     34  O   UNL     1       8.342   4.170  17.452  0.00  0.00    +0.000 OA
ATOM     35  N   UNL     1       7.098   5.091  19.131  0.00  0.00    +0.000 N 
ATOM     36  H   UNL     1       6.397   5.824  19.280  0.00  0.00    +0.000 HD
BRANCH  35  37
ATOM     37  O   UNL     1       8.303   5.224  19.864  0.00  0.00    +0.000 OA
ATOM     38  H   UNL     1       8.202   6.095  20.301  0.00  0.00    +0.000 HD
ENDBRANCH  35  37
ENDBRANCH  27  33
ENDBRANCH  23  27
ENDBRANCH   1  25
TORSDOF 11
ENDMDL
MODEL 2
REMARK VINA RESULT:      -8.1      1.717      2.216
REMARK  Name = 
REMARK  13 active torsions:
REMARK  status: ('A' for Active; 'I' for Inactive)
REMARK    1  A    between atoms: C_1  and  N_2
REMARK    2  A    between atoms: C_3  and  C_5
REMARK    3  A    between atoms: C_5  and  C_6
REMARK    4  A    between atoms: C_5  and  N_10
REMARK    5  A    between atoms: N_8  and  O_9
REMARK    6  A    between atoms: N_10  and  C_11
REMARK    7  A    between atoms: C_12  and  C_14
REMARK    8  A    between atoms: C_17  and  C_18
REMARK    9  A    between atoms: C_21  and  O_22
REMARK   10  A    between atoms: O_22  and  C_23
REMARK   11  A    between atoms: C_23  and  C_24
REMARK   12  A    between atoms: C_24  and  C_25
REMARK   13  A    between atoms: C_25  and  N_26
REMARK                            x       y       z     vdW  Elec       q    Type
REMARK                         _______ _______ _______ _____ _____    ______ ____
ROOT
ATOM      1  C   UNL     1       2.499   7.055  18.704  0.00  0.00    +0.000 A 
ATOM      2  C   UNL     1       2.059   8.111  17.911  0.00  0.00    +0.000 A 
ATOM      3  C   UNL     1       1.408   9.201  18.485  0.00  0.00    +0.000 A 
ATOM      4  C   UNL     1       1.046   9.215  19.843  0.00  0.00    +0.000 A 
ATOM      5  C   UNL     1       1.434   8.113  20.619  0.00  0.00    +0.000 A 
ATOM      6  C   UNL     1       2.167   7.054  20.062  0.00  0.00    +0.000 A 
ENDROOT
BRANCH   4   7
ATOM      7  C   UNL     1       0.222  10.317  20.383  0.00  0.00    +0.000 A 
ATOM      8  C   UNL     1      -0.356  11.248  19.507  0.00  0.00    +0.000 A 
ATOM      9  C   UNL     1      -1.151  12.293  19.962  0.00  0.00    +0.000 A 
ATOM     10  C   UNL     1      -1.417  12.434  21.318  0.00  0.00    +0.000 A 
ATOM     11  C   UNL     1      -0.867  11.517  22.213  0.00  0.00    +0.000 A 
ATOM     12  C   UNL     1      -0.047  10.475  21.752  0.00  0.00    +0.000 A 
BRANCH  10  13
ATOM     13  O   UNL     1      -2.198  13.417  21.863  0.00  0.00    +0.000 OA
BRANCH  13  14
ATOM     14  C   UNL     1      -2.134  14.714  21.254  0.00  0.00    +0.000 C 
BRANCH  14  15
ATOM     15  C   UNL     1      -3.465  15.460  21.396  0.00  0.00    +0.000 C 
BRANCH  15  16
ATOM     16  C   UNL     1      -4.358  14.730  22.402  0.00  0.00    +0.000 C 
BRANCH  16  17
ATOM     17  N   UNL     1      -5.787  14.705  22.048  0.00  0.00    +0.000 NA
ATOM     18  C   UNL     1      -6.587  14.308  23.235  0.00  0.00    +0.000 C 
ATOM     19  C   UNL     1      -6.441  12.820  23.614  0.00  0.00    +0.000 C 
ATOM     20  O   UNL     1      -6.758  11.961  22.512  0.00  0.00    +0.000 OA
ATOM     21  C   UNL     1      -5.955  12.275  21.366  0.00  0.00    +0.000 C 
ATOM     22  C   UNL     1      -6.116  13.750  20.964  0.00  0.00    +0.000 C 
ENDBRANCH  16  17
ENDBRANCH  15  16
ENDBRANCH  14  15
ENDBRANCH  13  14
ENDBRANCH  10  13
ENDBRANCH   4   7
BRANCH   1  25
ATOM     23  N   UNL     1       4.528   6.068  17.585  0.00  0.00    +0.000 N 
ATOM     24  C   UNL     1       5.335   7.283  17.683  0.00  0.00    +0.000 C 
ATOM     25  C   UNL     1       3.263   5.895  18.154  0.00  0.00    +0.000 C 
ATOM     26  O   UNL     1       2.767   4.778  18.245  0.00  0.00    +0.000 OA
BRANCH  23  27
ATOM     27  C   UNL     1       5.152   4.876  16.952  0.00  0.00    +0.000 C 
BRANCH  27  30
ATOM     28  C   UNL     1       6.265   3.933  13.408  0.00  0.00    +0.000 C 
ATOM     29  N   UNL     1       5.836   3.870  14.784  0.00  0.00    +0.000 N 
ATOM     30  C   UNL     1       5.560   5.039  15.469  0.00  0.00    +0.000 C 
ATOM     31  O   UNL     1       5.585   6.121  14.880  0.00  0.00    +0.000 OA
ATOM     32  H   UNL     1       5.651   2.965  15.199  0.00  0.00    +0.000 HD
ENDBRANCH  27  30
BRANCH  27  33
ATOM     33  C   UNL     1       6.333   4.457  17.844  0.00  0.00    +0.000 C 
ATOM     34  O   UNL     1       6.222   4.091  19.019  0.00  0.00    +0.000 OA
ATOM     35  N   UNL     1       7.558   4.460  17.205  0.00  0.00    +0.000 N 
ATOM     36  H   UNL     1       7.583   4.280  16.196  0.00  0.00    +0.000 HD
BRANCH  35  37
ATOM     37  O   UNL     1       8.625   3.915  17.961  0.00  0.00    +0.000 OA
ATOM     38  H   UNL     1       9.358   3.872  17.311  0.00  0.00    +0.000 HD
ENDBRANCH  35  37
ENDBRANCH  27  33
ENDBRANCH  23  27
ENDBRANCH   1  25
TORSDOF 11
ENDMDL
MODEL 3
REMARK VINA RESULT:      -8.0      3.551      5.481
REMARK  Name = 
REMARK  13 active torsions:
REMARK  status: ('A' for Active; 'I' for Inactive)
REMARK    1  A    between atoms: C_1  and  N_2
REMARK    2  A    between atoms: C_3  and  C_5
REMARK    3  A    between atoms: C_5  and  C_6
REMARK    4  A    between atoms: C_5  and  N_10
REMARK    5  A    between atoms: N_8  and  O_9
REMARK    6  A    between atoms: N_10  and  C_11
REMARK    7  A    between atoms: C_12  and  C_14
REMARK    8  A    between atoms: C_17  and  C_18
REMARK    9  A    between atoms: C_21  and  O_22
REMARK   10  A    between atoms: O_22  and  C_23
REMARK   11  A    between atoms: C_23  and  C_24
REMARK   12  A    between atoms: C_24  and  C_25
REMARK   13  A    between atoms: C_25  and  N_26
REMARK                            x       y       z     vdW  Elec       q    Type
REMARK                         _______ _______ _______ _____ _____    ______ ____
ROOT
ATOM      1  C   UNL     1       2.413   7.110  18.734  0.00  0.00    +0.000 A 
ATOM      2  C   UNL     1       2.050   7.507  20.017  0.00  0.00    +0.000 A 
ATOM      3  C   UNL     1       1.353   8.697  20.217  0.00  0.00    +0.000 A 
ATOM      4  C   UNL     1       1.116   9.600  19.166  0.00  0.00    +0.000 A 
ATOM      5  C   UNL     1       1.547   9.220  17.887  0.00  0.00    +0.000 A 
ATOM      6  C   UNL     1       2.172   7.983  17.669  0.00  0.00    +0.000 A 
ENDROOT
BRANCH   4   7
ATOM      7  C   UNL     1       0.510  10.920  19.441  0.00  0.00    +0.000 A 
ATOM      8  C   UNL     1       0.666  11.508  20.706  0.00  0.00    +0.000 A 
ATOM      9  C   UNL     1       0.129  12.754  21.010  0.00  0.00    +0.000 A 
ATOM     10  C   UNL     1      -0.569  13.472  20.048  0.00  0.00    +0.000 A 
ATOM     11  C   UNL     1      -0.729  12.920  18.778  0.00  0.00    +0.000 A 
ATOM     12  C   UNL     1      -0.205  11.652  18.480  0.00  0.00    +0.000 A 
BRANCH  10  13
ATOM     13  O   UNL     1      -1.120  14.709  20.245  0.00  0.00    +0.000 OA
BRANCH  13  14
ATOM     14  C   UNL     1      -0.218  15.792  20.505  0.00  0.00    +0.000 C 
BRANCH  14  15
ATOM     15  C   UNL     1       0.115  16.558  19.219  0.00  0.00    +0.000 C 
BRANCH  15  16
ATOM     16  C   UNL     1       1.472  16.096  18.683  0.00  0.00    +0.000 C 
BRANCH  16  17
ATOM     17  N   UNL     1       2.415  15.636  19.717  0.00  0.00    +0.000 NA
ATOM     18  C   UNL     1       3.509  16.629  19.872  0.00  0.00    +0.000 C 
ATOM     19  C   UNL     1       4.496  16.657  18.688  0.00  0.00    +0.000 C 
ATOM     20  O   UNL     1       5.056  15.363  18.436  0.00  0.00    +0.000 OA
ATOM     21  C   UNL     1       4.026  14.389  18.218  0.00  0.00    +0.000 C 
ATOM     22  C   UNL     1       3.052  14.335  19.406  0.00  0.00    +0.000 C 
ENDBRANCH  16  17
ENDBRANCH  15  16
ENDBRANCH  14  15
ENDBRANCH  13  14
ENDBRANCH  10  13
ENDBRANCH   4   7
BRANCH   1  25
ATOM     23  N   UNL     1       4.305   5.770  17.748  0.00  0.00    +0.000 N 
ATOM     24  C   UNL     1       5.140   6.930  17.439  0.00  0.00    +0.000 C 
ATOM     25  C   UNL     1       3.099   5.812  18.454  0.00  0.00    +0.000 C 
ATOM     26  O   UNL     1       2.594   4.783  18.889  0.00  0.00    +0.000 OA
BRANCH  23  27
ATOM     27  C   UNL     1       4.842   4.425  17.410  0.00  0.00    +0.000 C 
BRANCH  27  30
ATOM     28  C   UNL     1       6.274   4.246  13.860  0.00  0.00    +0.000 C 
ATOM     29  N   UNL     1       5.373   4.328  14.984  0.00  0.00    +0.000 N 
ATOM     30  C   UNL     1       5.884   4.386  16.267  0.00  0.00    +0.000 C 
ATOM     31  O   UNL     1       7.101   4.467  16.445  0.00  0.00    +0.000 OA
ATOM     32  H   UNL     1       4.382   4.439  14.810  0.00  0.00    +0.000 HD
ENDBRANCH  27  30
BRANCH  27  33
ATOM     33  C   UNL     1       5.377   3.811  18.715  0.00  0.00    +0.000 C 
ATOM     34  O   UNL     1       6.173   4.375  19.474  0.00  0.00    +0.000 OA
ATOM     35  N   UNL     1       4.845   2.573  19.022  0.00  0.00    +0.000 N 
ATOM     36  H   UNL     1       3.897   2.355  18.699  0.00  0.00    +0.000 HD
BRANCH  35  37
ATOM     37  O   UNL     1       5.196   2.075  20.301  0.00  0.00    +0.000 OA
ATOM     38  H   UNL     1       5.974   2.619  20.545  0.00  0.00    +0.000 HD
ENDBRANCH  35  37
ENDBRANCH  27  33
ENDBRANCH  23  27
ENDBRANCH   1  25
TORSDOF 11
ENDMDL
MODEL 4
REMARK VINA RESULT:      -8.0      3.323      5.106
REMARK  Name = 
REMARK  13 active torsions:
REMARK  status: ('A' for Active; 'I' for Inactive)
REMARK    1  A    between atoms: C_1  and  N_2
REMARK    2  A    between atoms: C_3  and  C_5
REMARK    3  A    between atoms: C_5  and  C_6
REMARK    4  A    between atoms: C_5  and  N_10
REMARK    5  A    between atoms: N_8  and  O_9
REMARK    6  A    between atoms: N_10  and  C_11
REMARK    7  A    between atoms: C_12  and  C_14
REMARK    8  A    between atoms: C_17  and  C_18
REMARK    9  A    between atoms: C_21  and  O_22
REMARK   10  A    between atoms: O_22  and  C_23
REMARK   11  A    between atoms: C_23  and  C_24
REMARK   12  A    between atoms: C_24  and  C_25
REMARK   13  A    between atoms: C_25  and  N_26
REMARK                            x       y       z     vdW  Elec       q    Type
REMARK                         _______ _______ _______ _____ _____    ______ ____
ROOT
ATOM      1  C   UNL     1       2.596   7.136  18.456  0.00  0.00    +0.000 A 
ATOM      2  C   UNL     1       2.252   7.320  19.793  0.00  0.00    +0.000 A 
ATOM      3  C   UNL     1       1.478   8.412  20.179  0.00  0.00    +0.000 A 
ATOM      4  C   UNL     1       1.137   9.432  19.274  0.00  0.00    +0.000 A 
ATOM      5  C   UNL     1       1.546   9.270  17.943  0.00  0.00    +0.000 A 
ATOM      6  C   UNL     1       2.252   8.129  17.534  0.00  0.00    +0.000 A 
ENDROOT
BRANCH   4   7
ATOM      7  C   UNL     1       0.447  10.650  19.751  0.00  0.00    +0.000 A 
ATOM      8  C   UNL     1       0.447  10.959  21.120  0.00  0.00    +0.000 A 
ATOM      9  C   UNL     1      -0.174  12.099  21.618  0.00  0.00    +0.000 A 
ATOM     10  C   UNL     1      -0.804  12.989  20.757  0.00  0.00    +0.000 A 
ATOM     11  C   UNL     1      -0.810  12.715  19.389  0.00  0.00    +0.000 A 
ATOM     12  C   UNL     1      -0.201  11.552  18.892  0.00  0.00    +0.000 A 
BRANCH  10  13
ATOM     13  O   UNL     1      -1.428  14.142  21.146  0.00  0.00    +0.000 OA
BRANCH  13  14
ATOM     14  C   UNL     1      -0.869  15.377  20.678  0.00  0.00    +0.000 C 
BRANCH  14  15
ATOM     15  C   UNL     1       0.269  15.850  21.588  0.00  0.00    +0.000 C 
BRANCH  15  16
ATOM     16  C   UNL     1       1.499  16.187  20.741  0.00  0.00    +0.000 C 
BRANCH  16  17
ATOM     17  N   UNL     1       1.723  15.283  19.600  0.00  0.00    +0.000 NA
ATOM     18  C   UNL     1       2.667  14.206  19.996  0.00  0.00    +0.000 C 
ATOM     19  C   UNL     1       4.122  14.687  20.169  0.00  0.00    +0.000 C 
ATOM     20  O   UNL     1       4.606  15.340  18.989  0.00  0.00    +0.000 OA
ATOM     21  C   UNL     1       3.751  16.429  18.614  0.00  0.00    +0.000 C 
ATOM     22  C   UNL     1       2.303  15.953  18.413  0.00  0.00    +0.000 C 
ENDBRANCH  16  17
ENDBRANCH  15  16
ENDBRANCH  14  15
ENDBRANCH  13  14
ENDBRANCH  10  13
ENDBRANCH   4   7
BRANCH   1  25
ATOM     23  N   UNL     1       4.657   6.083  17.463  0.00  0.00    +0.000 N 
ATOM     24  C   UNL     1       5.481   7.286  17.566  0.00  0.00    +0.000 C 
ATOM     25  C   UNL     1       3.364   5.948  17.976  0.00  0.00    +0.000 C 
ATOM     26  O   UNL     1       2.843   4.842  18.073  0.00  0.00    +0.000 OA
BRANCH  23  27
ATOM     27  C   UNL     1       5.288   4.862  16.894  0.00  0.00    +0.000 C 
BRANCH  27  30
ATOM     28  C   UNL     1       5.844   3.859  13.237  0.00  0.00    +0.000 C 
ATOM     29  N   UNL     1       5.432   3.868  14.620  0.00  0.00    +0.000 N 
ATOM     30  C   UNL     1       5.727   4.961  15.414  0.00  0.00    +0.000 C 
ATOM     31  O   UNL     1       6.250   5.962  14.919  0.00  0.00    +0.000 OA
ATOM     32  H   UNL     1       4.849   3.115  14.963  0.00  0.00    +0.000 HD
ENDBRANCH  27  30
BRANCH  27  33
ATOM     33  C   UNL     1       6.448   4.477  17.827  0.00  0.00    +0.000 C 
ATOM     34  O   UNL     1       6.312   4.171  19.016  0.00  0.00    +0.000 OA
ATOM     35  N   UNL     1       7.685   4.436  17.211  0.00  0.00    +0.000 N 
ATOM     36  H   UNL     1       7.726   4.206  16.213  0.00  0.00    +0.000 HD
BRANCH  35  37
ATOM     37  O   UNL     1       8.732   3.918  18.013  0.00  0.00    +0.000 OA
ATOM     38  H   UNL     1       9.537   4.284  17.589  0.00  0.00    +0.000 HD
ENDBRANCH  35  37
ENDBRANCH  27  33
ENDBRANCH  23  27
ENDBRANCH   1  25
TORSDOF 11
ENDMDL
MODEL 5
REMARK VINA RESULT:      -7.9      2.589      4.057
REMARK  Name = 
REMARK  13 active torsions:
REMARK  status: ('A' for Active; 'I' for Inactive)
REMARK    1  A    between atoms: C_1  and  N_2
REMARK    2  A    between atoms: C_3  and  C_5
REMARK    3  A    between atoms: C_5  and  C_6
REMARK    4  A    between atoms: C_5  and  N_10
REMARK    5  A    between atoms: N_8  and  O_9
REMARK    6  A    between atoms: N_10  and  C_11
REMARK    7  A    between atoms: C_12  and  C_14
REMARK    8  A    between atoms: C_17  and  C_18
REMARK    9  A    between atoms: C_21  and  O_22
REMARK   10  A    between atoms: O_22  and  C_23
REMARK   11  A    between atoms: C_23  and  C_24
REMARK   12  A    between atoms: C_24  and  C_25
REMARK   13  A    between atoms: C_25  and  N_26
REMARK                            x       y       z     vdW  Elec       q    Type
REMARK                         _______ _______ _______ _____ _____    ______ ____
ROOT
ATOM      1  C   UNL     1       3.172   6.723  18.532  0.00  0.00    +0.000 A 
ATOM      2  C   UNL     1       2.626   6.872  19.804  0.00  0.00    +0.000 A 
ATOM      3  C   UNL     1       1.682   7.866  20.055  0.00  0.00    +0.000 A 
ATOM      4  C   UNL     1       1.354   8.834  19.090  0.00  0.00    +0.000 A 
ATOM      5  C   UNL     1       1.962   8.715  17.832  0.00  0.00    +0.000 A 
ATOM      6  C   UNL     1       2.847   7.663  17.550  0.00  0.00    +0.000 A 
ENDROOT
BRANCH   4   7
ATOM      7  C   UNL     1       0.467   9.963  19.440  0.00  0.00    +0.000 A 
ATOM      8  C   UNL     1       0.581  10.574  20.698  0.00  0.00    +0.000 A 
ATOM      9  C   UNL     1      -0.219  11.648  21.070  0.00  0.00    +0.000 A 
ATOM     10  C   UNL     1      -1.154  12.169  20.185  0.00  0.00    +0.000 A 
ATOM     11  C   UNL     1      -1.282  11.591  18.922  0.00  0.00    +0.000 A 
ATOM     12  C   UNL     1      -0.488  10.492  18.557  0.00  0.00    +0.000 A 
BRANCH  10  13
ATOM     13  O   UNL     1      -1.975  13.230  20.450  0.00  0.00    +0.000 OA
BRANCH  13  14
ATOM     14  C   UNL     1      -2.661  13.226  21.710  0.00  0.00    +0.000 C 
BRANCH  14  15
ATOM     15  C   UNL     1      -3.092  14.641  22.111  0.00  0.00    +0.000 C 
BRANCH  15  16
ATOM     16  C   UNL     1      -2.017  15.272  22.999  0.00  0.00    +0.000 C 
BRANCH  16  17
ATOM     17  N   UNL     1      -2.170  14.997  24.438  0.00  0.00    +0.000 NA
ATOM     18  C   UNL     1      -3.474  15.528  24.910  0.00  0.00    +0.000 C 
ATOM     19  C   UNL     1      -3.528  17.067  24.987  0.00  0.00    +0.000 C 
ATOM     20  O   UNL     1      -2.473  17.593  25.800  0.00  0.00    +0.000 OA
ATOM     21  C   UNL     1      -1.191  17.151  25.332  0.00  0.00    +0.000 C 
ATOM     22  C   UNL     1      -1.119  15.617  25.278  0.00  0.00    +0.000 C 
ENDBRANCH  16  17
ENDBRANCH  15  16
ENDBRANCH  14  15
ENDBRANCH  13  14
ENDBRANCH  10  13
ENDBRANCH   4   7
BRANCH   1  25
ATOM     23  N   UNL     1       5.337   5.910  17.535  0.00  0.00    +0.000 N 
ATOM     24  C   UNL     1       5.904   7.244  17.347  0.00  0.00    +0.000 C 
ATOM     25  C   UNL     1       4.134   5.632  18.188  0.00  0.00    +0.000 C 
ATOM     26  O   UNL     1       3.856   4.486  18.526  0.00  0.00    +0.000 OA
BRANCH  23  27
ATOM     27  C   UNL     1       6.166   4.745  17.123  0.00  0.00    +0.000 C 
BRANCH  27  30
ATOM     28  C   UNL     1       6.376   3.846  13.404  0.00  0.00    +0.000 C 
ATOM     29  N   UNL     1       5.961   3.932  14.783  0.00  0.00    +0.000 N 
ATOM     30  C   UNL     1       6.653   4.753  15.655  0.00  0.00    +0.000 C 
ATOM     31  O   UNL     1       7.555   5.481  15.235  0.00  0.00    +0.000 OA
ATOM     32  H   UNL     1       5.110   3.464  15.070  0.00  0.00    +0.000 HD
ENDBRANCH  27  30
BRANCH  27  33
ATOM     33  C   UNL     1       7.326   4.639  18.127  0.00  0.00    +0.000 C 
ATOM     34  O   UNL     1       8.438   4.172  17.860  0.00  0.00    +0.000 OA
ATOM     35  N   UNL     1       7.051   5.174  19.372  0.00  0.00    +0.000 N 
ATOM     36  H   UNL     1       6.382   5.949  19.434  0.00  0.00    +0.000 HD
BRANCH  35  37
ATOM     37  O   UNL     1       8.161   5.240  20.250  0.00  0.00    +0.000 OA
ATOM     38  H   UNL     1       7.963   4.542  20.910  0.00  0.00    +0.000 HD
ENDBRANCH  35  37
ENDBRANCH  27  33
ENDBRANCH  23  27
ENDBRANCH   1  25
TORSDOF 11
ENDMDL
MODEL 6
REMARK VINA RESULT:      -7.9      2.299      2.924
REMARK  Name = 
REMARK  13 active torsions:
REMARK  status: ('A' for Active; 'I' for Inactive)
REMARK    1  A    between atoms: C_1  and  N_2
REMARK    2  A    between atoms: C_3  and  C_5
REMARK    3  A    between atoms: C_5  and  C_6
REMARK    4  A    between atoms: C_5  and  N_10
REMARK    5  A    between atoms: N_8  and  O_9
REMARK    6  A    between atoms: N_10  and  C_11
REMARK    7  A    between atoms: C_12  and  C_14
REMARK    8  A    between atoms: C_17  and  C_18
REMARK    9  A    between atoms: C_21  and  O_22
REMARK   10  A    between atoms: O_22  and  C_23
REMARK   11  A    between atoms: C_23  and  C_24
REMARK   12  A    between atoms: C_24  and  C_25
REMARK   13  A    between atoms: C_25  and  N_26
REMARK                            x       y       z     vdW  Elec       q    Type
REMARK                         _______ _______ _______ _____ _____    ______ ____
ROOT
ATOM      1  C   UNL     1       2.092   7.122  18.408  0.00  0.00    +0.000 A 
ATOM      2  C   UNL     1       1.901   7.391  19.760  0.00  0.00    +0.000 A 
ATOM      3  C   UNL     1       1.420   8.633  20.171  0.00  0.00    +0.000 A 
ATOM      4  C   UNL     1       1.246   9.694  19.266  0.00  0.00    +0.000 A 
ATOM      5  C   UNL     1       1.507   9.432  17.914  0.00  0.00    +0.000 A 
ATOM      6  C   UNL     1       1.908   8.157  17.486  0.00  0.00    +0.000 A 
ENDROOT
BRANCH   4   7
ATOM      7  C   UNL     1       0.882  11.040  19.758  0.00  0.00    +0.000 A 
ATOM      8  C   UNL     1       0.623  12.071  18.841  0.00  0.00    +0.000 A 
ATOM      9  C   UNL     1       0.262  13.349  19.252  0.00  0.00    +0.000 A 
ATOM     10  C   UNL     1       0.125  13.640  20.603  0.00  0.00    +0.000 A 
ATOM     11  C   UNL     1       0.364  12.634  21.538  0.00  0.00    +0.000 A 
ATOM     12  C   UNL     1       0.749  11.350  21.121  0.00  0.00    +0.000 A 
BRANCH  10  13
ATOM     13  O   UNL     1      -0.239  14.860  21.105  0.00  0.00    +0.000 OA
BRANCH  13  14
ATOM     14  C   UNL     1      -1.617  15.234  20.974  0.00  0.00    +0.000 C 
BRANCH  14  15
ATOM     15  C   UNL     1      -2.359  15.091  22.308  0.00  0.00    +0.000 C 
BRANCH  15  16
ATOM     16  C   UNL     1      -3.759  14.525  22.058  0.00  0.00    +0.000 C 
BRANCH  16  17
ATOM     17  N   UNL     1      -3.830  13.054  22.035  0.00  0.00    +0.000 NA
ATOM     18  C   UNL     1      -5.239  12.627  21.836  0.00  0.00    +0.000 C 
ATOM     19  C   UNL     1      -6.138  12.859  23.067  0.00  0.00    +0.000 C 
ATOM     20  O   UNL     1      -5.606  12.227  24.237  0.00  0.00    +0.000 OA
ATOM     21  C   UNL     1      -4.265  12.667  24.496  0.00  0.00    +0.000 C 
ATOM     22  C   UNL     1      -3.354  12.415  23.284  0.00  0.00    +0.000 C 
ENDBRANCH  16  17
ENDBRANCH  15  16
ENDBRANCH  14  15
ENDBRANCH  13  14
ENDBRANCH  10  13
ENDBRANCH   4   7
BRANCH   1  25
ATOM     23  N   UNL     1       3.879   5.543  17.598  0.00  0.00    +0.000 N 
ATOM     24  C   UNL     1       4.996   6.417  17.952  0.00  0.00    +0.000 C 
ATOM     25  C   UNL     1       2.538   5.787  17.905  0.00  0.00    +0.000 C 
ATOM     26  O   UNL     1       1.701   4.897  17.801  0.00  0.00    +0.000 OA
BRANCH  23  27
ATOM     27  C   UNL     1       4.202   4.226  16.985  0.00  0.00    +0.000 C 
BRANCH  27  30
ATOM     28  C   UNL     1       6.562   4.226  13.965  0.00  0.00    +0.000 C 
ATOM     29  N   UNL     1       5.390   4.310  14.803  0.00  0.00    +0.000 N 
ATOM     30  C   UNL     1       5.517   4.168  16.173  0.00  0.00    +0.000 C 
ATOM     31  O   UNL     1       6.635   4.070  16.683  0.00  0.00    +0.000 OA
ATOM     32  H   UNL     1       4.505   4.567  14.384  0.00  0.00    +0.000 HD
ENDBRANCH  27  30
BRANCH  27  33
ATOM     33  C   UNL     1       4.160   3.181  18.113  0.00  0.00    +0.000 C 
ATOM     34  O   UNL     1       3.354   2.247  18.166  0.00  0.00    +0.000 OA
ATOM     35  N   UNL     1       5.155   3.328  19.061  0.00  0.00    +0.000 N 
ATOM     36  H   UNL     1       6.048   3.742  18.772  0.00  0.00    +0.000 HD
BRANCH  35  37
ATOM     37  O   UNL     1       5.235   2.277  20.007  0.00  0.00    +0.000 OA
ATOM     38  H   UNL     1       5.842   1.638  19.578  0.00  0.00    +0.000 HD
ENDBRANCH  35  37
ENDBRANCH  27  33
ENDBRANCH  23  27
ENDBRANCH   1  25
TORSDOF 11
ENDMDL
MODEL 7
REMARK VINA RESULT:      -7.9      2.997      4.664
REMARK  Name = 
REMARK  13 active torsions:
REMARK  status: ('A' for Active; 'I' for Inactive)
REMARK    1  A    between atoms: C_1  and  N_2
REMARK    2  A    between atoms: C_3  and  C_5
REMARK    3  A    between atoms: C_5  and  C_6
REMARK    4  A    between atoms: C_5  and  N_10
REMARK    5  A    between atoms: N_8  and  O_9
REMARK    6  A    between atoms: N_10  and  C_11
REMARK    7  A    between atoms: C_12  and  C_14
REMARK    8  A    between atoms: C_17  and  C_18
REMARK    9  A    between atoms: C_21  and  O_22
REMARK   10  A    between atoms: O_22  and  C_23
REMARK   11  A    between atoms: C_23  and  C_24
REMARK   12  A    between atoms: C_24  and  C_25
REMARK   13  A    between atoms: C_25  and  N_26
REMARK                            x       y       z     vdW  Elec       q    Type
REMARK                         _______ _______ _______ _____ _____    ______ ____
ROOT
ATOM      1  C   UNL     1       2.366   7.489  18.762  0.00  0.00    +0.000 A 
ATOM      2  C   UNL     1       1.741   8.543  18.103  0.00  0.00    +0.000 A 
ATOM      3  C   UNL     1       1.015   9.494  18.819  0.00  0.00    +0.000 A 
ATOM      4  C   UNL     1       0.769   9.351  20.195  0.00  0.00    +0.000 A 
ATOM      5  C   UNL     1       1.347   8.247  20.838  0.00  0.00    +0.000 A 
ATOM      6  C   UNL     1       2.151   7.336  20.135  0.00  0.00    +0.000 A 
ENDROOT
BRANCH   4   7
ATOM      7  C   UNL     1      -0.132  10.294  20.892  0.00  0.00    +0.000 A 
ATOM      8  C   UNL     1      -0.350  10.158  22.272  0.00  0.00    +0.000 A 
ATOM      9  C   UNL     1      -1.175  11.027  22.976  0.00  0.00    +0.000 A 
ATOM     10  C   UNL     1      -1.800  12.084  22.327  0.00  0.00    +0.000 A 
ATOM     11  C   UNL     1      -1.593  12.252  20.958  0.00  0.00    +0.000 A 
ATOM     12  C   UNL     1      -0.777  11.360  20.245  0.00  0.00    +0.000 A 
BRANCH  10  13
ATOM     13  O   UNL     1      -2.616  13.000  22.932  0.00  0.00    +0.000 OA
BRANCH  13  14
ATOM     14  C   UNL     1      -3.870  13.280  22.294  0.00  0.00    +0.000 C 
BRANCH  14  15
ATOM     15  C   UNL     1      -4.912  13.764  23.308  0.00  0.00    +0.000 C 
BRANCH  15  16
ATOM     16  C   UNL     1      -4.875  15.292  23.393  0.00  0.00    +0.000 C 
BRANCH  16  17
ATOM     17  N   UNL     1      -4.599  15.824  24.738  0.00  0.00    +0.000 NA
ATOM     18  C   UNL     1      -4.927  17.272  24.778  0.00  0.00    +0.000 C 
ATOM     19  C   UNL     1      -3.934  18.156  23.996  0.00  0.00    +0.000 C 
ATOM     20  O   UNL     1      -2.587  17.957  24.441  0.00  0.00    +0.000 OA
ATOM     21  C   UNL     1      -2.214  16.575  24.355  0.00  0.00    +0.000 C 
ATOM     22  C   UNL     1      -3.183  15.688  25.154  0.00  0.00    +0.000 C 
ENDBRANCH  16  17
ENDBRANCH  15  16
ENDBRANCH  14  15
ENDBRANCH  13  14
ENDBRANCH  10  13
ENDBRANCH   4   7
BRANCH   1  25
ATOM     23  N   UNL     1       3.053   5.114  18.285  0.00  0.00    +0.000 N 
ATOM     24  C   UNL     1       1.932   4.507  19.001  0.00  0.00    +0.000 C 
ATOM     25  C   UNL     1       3.214   6.482  18.055  0.00  0.00    +0.000 C 
ATOM     26  O   UNL     1       4.034   6.887  17.238  0.00  0.00    +0.000 OA
BRANCH  23  27
ATOM     27  C   UNL     1       4.028   4.200  17.630  0.00  0.00    +0.000 C 
BRANCH  27  30
ATOM     28  C   UNL     1       7.850   4.484  17.570  0.00  0.00    +0.000 C 
ATOM     29  N   UNL     1       6.462   4.434  17.179  0.00  0.00    +0.000 N 
ATOM     30  C   UNL     1       5.484   4.290  18.146  0.00  0.00    +0.000 C 
ATOM     31  O   UNL     1       5.788   4.303  19.341  0.00  0.00    +0.000 OA
ATOM     32  H   UNL     1       6.218   4.603  16.211  0.00  0.00    +0.000 HD
ENDBRANCH  27  30
BRANCH  27  33
ATOM     33  C   UNL     1       3.454   2.778  17.735  0.00  0.00    +0.000 C 
ATOM     34  O   UNL     1       2.460   2.381  17.117  0.00  0.00    +0.000 OA
ATOM     35  N   UNL     1       4.182   1.928  18.546  0.00  0.00    +0.000 N 
ATOM     36  H   UNL     1       5.191   2.086  18.638  0.00  0.00    +0.000 HD
BRANCH  35  37
ATOM     37  O   UNL     1       3.765   0.574  18.516  0.00  0.00    +0.000 OA
ATOM     38  H   UNL     1       4.097   0.259  17.649  0.00  0.00    +0.000 HD
ENDBRANCH  35  37
ENDBRANCH  27  33
ENDBRANCH  23  27
ENDBRANCH   1  25
TORSDOF 11
ENDMDL
MODEL 8
REMARK VINA RESULT:      -7.9      1.720      2.489
REMARK  Name = 
REMARK  13 active torsions:
REMARK  status: ('A' for Active; 'I' for Inactive)
REMARK    1  A    between atoms: C_1  and  N_2
REMARK    2  A    between atoms: C_3  and  C_5
REMARK    3  A    between atoms: C_5  and  C_6
REMARK    4  A    between atoms: C_5  and  N_10
REMARK    5  A    between atoms: N_8  and  O_9
REMARK    6  A    between atoms: N_10  and  C_11
REMARK    7  A    between atoms: C_12  and  C_14
REMARK    8  A    between atoms: C_17  and  C_18
REMARK    9  A    between atoms: C_21  and  O_22
REMARK   10  A    between atoms: O_22  and  C_23
REMARK   11  A    between atoms: C_23  and  C_24
REMARK   12  A    between atoms: C_24  and  C_25
REMARK   13  A    between atoms: C_25  and  N_26
REMARK                            x       y       z     vdW  Elec       q    Type
REMARK                         _______ _______ _______ _____ _____    ______ ____
ROOT
ATOM      1  C   UNL     1       2.479   7.082  19.258  0.00  0.00    +0.000 A 
ATOM      2  C   UNL     1       1.903   7.213  20.518  0.00  0.00    +0.000 A 
ATOM      3  C   UNL     1       1.020   8.257  20.786  0.00  0.00    +0.000 A 
ATOM      4  C   UNL     1       0.788   9.285  19.856  0.00  0.00    +0.000 A 
ATOM      5  C   UNL     1       1.427   9.179  18.613  0.00  0.00    +0.000 A 
ATOM      6  C   UNL     1       2.249   8.083  18.309  0.00  0.00    +0.000 A 
ENDROOT
BRANCH   4   7
ATOM      7  C   UNL     1      -0.033  10.456  20.231  0.00  0.00    +0.000 A 
ATOM      8  C   UNL     1       0.245  11.150  21.419  0.00  0.00    +0.000 A 
ATOM      9  C   UNL     1      -0.488  12.265  21.808  0.00  0.00    +0.000 A 
ATOM     10  C   UNL     1      -1.518  12.744  21.008  0.00  0.00    +0.000 A 
ATOM     11  C   UNL     1      -1.809  12.083  19.815  0.00  0.00    +0.000 A 
ATOM     12  C   UNL     1      -1.082  10.945  19.436  0.00  0.00    +0.000 A 
BRANCH  10  13
ATOM     13  O   UNL     1      -2.285  13.840  21.296  0.00  0.00    +0.000 OA
BRANCH  13  14
ATOM     14  C   UNL     1      -3.481  13.619  22.054  0.00  0.00    +0.000 C 
BRANCH  14  15
ATOM     15  C   UNL     1      -4.730  13.936  21.225  0.00  0.00    +0.000 C 
BRANCH  15  16
ATOM     16  C   UNL     1      -5.552  12.660  21.026  0.00  0.00    +0.000 C 
BRANCH  16  17
ATOM     17  N   UNL     1      -6.731  12.819  20.159  0.00  0.00    +0.000 NA
ATOM     18  C   UNL     1      -7.436  11.517  20.032  0.00  0.00    +0.000 C 
ATOM     19  C   UNL     1      -6.682  10.484  19.171  0.00  0.00    +0.000 C 
ATOM     20  O   UNL     1      -6.386  10.998  17.867  0.00  0.00    +0.000 OA
ATOM     21  C   UNL     1      -5.648  12.225  17.951  0.00  0.00    +0.000 C 
ATOM     22  C   UNL     1      -6.405  13.271  18.786  0.00  0.00    +0.000 C 
ENDBRANCH  16  17
ENDBRANCH  15  16
ENDBRANCH  14  15
ENDBRANCH  13  14
ENDBRANCH  10  13
ENDBRANCH   4   7
BRANCH   1  25
ATOM     23  N   UNL     1       2.867   4.780  18.312  0.00  0.00    +0.000 N 
ATOM     24  C   UNL     1       1.516   4.630  17.773  0.00  0.00    +0.000 C 
ATOM     25  C   UNL     1       3.376   5.944  18.894  0.00  0.00    +0.000 C 
ATOM     26  O   UNL     1       4.580   6.070  19.087  0.00  0.00    +0.000 OA
BRANCH  23  27
ATOM     27  C   UNL     1       3.820   3.656  18.104  0.00  0.00    +0.000 C 
BRANCH  27  30
ATOM     28  C   UNL     1       7.519   4.438  17.477  0.00  0.00    +0.000 C 
ATOM     29  N   UNL     1       6.270   4.074  18.102  0.00  0.00    +0.000 N 
ATOM     30  C   UNL     1       5.118   4.010  17.340  0.00  0.00    +0.000 C 
ATOM     31  O   UNL     1       5.174   4.166  16.119  0.00  0.00    +0.000 OA
ATOM     32  H   UNL     1       6.274   3.776  19.070  0.00  0.00    +0.000 HD
ENDBRANCH  27  30
BRANCH  27  33
ATOM     33  C   UNL     1       4.099   3.040  19.485  0.00  0.00    +0.000 C 
ATOM     34  O   UNL     1       5.228   2.795  19.923  0.00  0.00    +0.000 OA
ATOM     35  N   UNL     1       2.969   2.827  20.252  0.00  0.00    +0.000 N 
ATOM     36  H   UNL     1       2.162   3.445  20.115  0.00  0.00    +0.000 HD
BRANCH  35  37
ATOM     37  O   UNL     1       3.223   2.422  21.586  0.00  0.00    +0.000 OA
ATOM     38  H   UNL     1       4.159   2.678  21.721  0.00  0.00    +0.000 HD
ENDBRANCH  35  37
ENDBRANCH  27  33
ENDBRANCH  23  27
ENDBRANCH   1  25
TORSDOF 11
ENDMDL
MODEL 9
REMARK VINA RESULT:      -7.9      2.451      3.111
REMARK  Name = 
REMARK  13 active torsions:
REMARK  status: ('A' for Active; 'I' for Inactive)
REMARK    1  A    between atoms: C_1  and  N_2
REMARK    2  A    between atoms: C_3  and  C_5
REMARK    3  A    between atoms: C_5  and  C_6
REMARK    4  A    between atoms: C_5  and  N_10
REMARK    5  A    between atoms: N_8  and  O_9
REMARK    6  A    between atoms: N_10  and  C_11
REMARK    7  A    between atoms: C_12  and  C_14
REMARK    8  A    between atoms: C_17  and  C_18
REMARK    9  A    between atoms: C_21  and  O_22
REMARK   10  A    between atoms: O_22  and  C_23
REMARK   11  A    between atoms: C_23  and  C_24
REMARK   12  A    between atoms: C_24  and  C_25
REMARK   13  A    between atoms: C_25  and  N_26
REMARK                            x       y       z     vdW  Elec       q    Type
REMARK                         _______ _______ _______ _____ _____    ______ ____
ROOT
ATOM      1  C   UNL     1       2.177   6.971  18.628  0.00  0.00    +0.000 A 
ATOM      2  C   UNL     1       1.969   7.087  19.999  0.00  0.00    +0.000 A 
ATOM      3  C   UNL     1       1.423   8.253  20.534  0.00  0.00    +0.000 A 
ATOM      4  C   UNL     1       1.197   9.393  19.743  0.00  0.00    +0.000 A 
ATOM      5  C   UNL     1       1.475   9.287  18.373  0.00  0.00    +0.000 A 
ATOM      6  C   UNL     1       1.943   8.086  17.818  0.00  0.00    +0.000 A 
ENDROOT
BRANCH   4   7
ATOM      7  C   UNL     1       0.763  10.659  20.370  0.00  0.00    +0.000 A 
ATOM      8  C   UNL     1      -0.140  10.630  21.445  0.00  0.00    +0.000 A 
ATOM      9  C   UNL     1      -0.568  11.791  22.078  0.00  0.00    +0.000 A 
ATOM     10  C   UNL     1      -0.089  13.030  21.673  0.00  0.00    +0.000 A 
ATOM     11  C   UNL     1       0.819  13.090  20.616  0.00  0.00    +0.000 A 
ATOM     12  C   UNL     1       1.232  11.918  19.964  0.00  0.00    +0.000 A 
BRANCH  10  13
ATOM     13  O   UNL     1      -0.437  14.226  22.241  0.00  0.00    +0.000 OA
BRANCH  13  14
ATOM     14  C   UNL     1      -0.984  14.184  23.565  0.00  0.00    +0.000 C 
BRANCH  14  15
ATOM     15  C   UNL     1      -2.365  14.846  23.616  0.00  0.00    +0.000 C 
BRANCH  15  16
ATOM     16  C   UNL     1      -3.452  13.769  23.576  0.00  0.00    +0.000 C 
BRANCH  16  17
ATOM     17  N   UNL     1      -4.453  13.947  22.511  0.00  0.00    +0.000 NA
ATOM     18  C   UNL     1      -5.060  15.298  22.618  0.00  0.00    +0.000 C 
ATOM     19  C   UNL     1      -6.009  15.459  23.823  0.00  0.00    +0.000 C 
ATOM     20  O   UNL     1      -7.043  14.468  23.818  0.00  0.00    +0.000 OA
ATOM     21  C   UNL     1      -6.489  13.145  23.780  0.00  0.00    +0.000 C 
ATOM     22  C   UNL     1      -5.563  12.966  22.566  0.00  0.00    +0.000 C 
ENDBRANCH  16  17
ENDBRANCH  15  16
ENDBRANCH  14  15
ENDBRANCH  13  14
ENDBRANCH  10  13
ENDBRANCH   4   7
BRANCH   1  25
ATOM     23  N   UNL     1       4.053   5.560  17.714  0.00  0.00    +0.000 N 
ATOM     24  C   UNL     1       5.122   6.423  18.215  0.00  0.00    +0.000 C 
ATOM     25  C   UNL     1       2.693   5.720  17.992  0.00  0.00    +0.000 C 
ATOM     26  O   UNL     1       1.895   4.821  17.750  0.00  0.00    +0.000 OA
BRANCH  23  27
ATOM     27  C   UNL     1       4.449   4.336  16.966  0.00  0.00    +0.000 C 
BRANCH  27  30
ATOM     28  C   UNL     1       7.017   4.932  14.184  0.00  0.00    +0.000 C 
ATOM     29  N   UNL     1       5.792   4.876  14.945  0.00  0.00    +0.000 N 
ATOM     30  C   UNL     1       5.816   4.404  16.245  0.00  0.00    +0.000 C 
ATOM     31  O   UNL     1       6.890   4.126  16.783  0.00  0.00    +0.000 OA
ATOM     32  H   UNL     1       4.949   5.274  14.549  0.00  0.00    +0.000 HD
ENDBRANCH  27  30
BRANCH  27  33
ATOM     33  C   UNL     1       4.361   3.158  17.950  0.00  0.00    +0.000 C 
ATOM     34  O   UNL     1       3.658   2.157  17.776  0.00  0.00    +0.000 OA
ATOM     35  N   UNL     1       5.192   3.270  19.049  0.00  0.00    +0.000 N 
ATOM     36  H   UNL     1       6.067   3.794  18.947  0.00  0.00    +0.000 HD
BRANCH  35  37
ATOM     37  O   UNL     1       5.249   2.118  19.872  0.00  0.00    +0.000 OA
ATOM     38  H   UNL     1       6.018   1.627  19.514  0.00  0.00    +0.000 HD
ENDBRANCH  35  37
ENDBRANCH  27  33
ENDBRANCH  23  27
ENDBRANCH   1  25
TORSDOF 11
ENDMDL
