MODEL 1
REMARK VINA RESULT:      -7.7      0.000      0.000
REMARK  Name = 
REMARK  5 active torsions:
REMARK  status: ('A' for Active; 'I' for Inactive)
REMARK    1  A    between atoms: C_1  and  C_2
REMARK    2  A    between atoms: C_2  and  C_3
REMARK    3  A    between atoms: C_8  and  C_10
REMARK    4  A    between atoms: N_14  and  C_15
REMARK    5  A    between atoms: C_22  and  C_23
REMARK                            x       y       z     vdW  Elec       q    Type
REMARK                         _______ _______ _______ _____ _____    ______ ____
ROOT
ATOM      1  C   UNL     1      10.069  12.564  19.834  0.00  0.00    +0.000 A 
ATOM      2  N   UNL     1       9.556  12.025  20.978  0.00  0.00    +0.000 N 
ATOM      3  N   UNL     1       9.212  10.734  20.855  0.00  0.00    +0.000 NA
ATOM      4  C   UNL     1       9.345  10.487  19.551  0.00  0.00    +0.000 A 
ATOM      5  N   UNL     1       8.965   9.242  19.092  0.00  0.00    +0.000 N 
ATOM      6  C   UNL     1       8.162   9.086  17.980  0.00  0.00    +0.000 C 
ATOM      7  O   UNL     1       7.805   9.994  17.234  0.00  0.00    +0.000 OA
ATOM      8  C   UNL     1       9.949  11.578  18.867  0.00  0.00    +0.000 A 
ATOM      9  C   UNL     1      10.439  11.662  17.471  0.00  0.00    +0.000 C 
ATOM     10  H   UNL     1       9.442  12.468  21.883  0.00  0.00    +0.000 HD
ATOM     11  H   UNL     1       8.840   8.599  19.860  0.00  0.00    +0.000 HD
ENDROOT
BRANCH   6  12
ATOM     12  C   UNL     1       7.797   7.633  17.687  0.00  0.00    +0.000 C 
ATOM     13  C   UNL     1       8.131   6.637  18.785  0.00  0.00    +0.000 C 
ATOM     14  C   UNL     1       7.031   5.605  18.718  0.00  0.00    +0.000 C 
ATOM     15  O   UNL     1       7.115   4.520  19.280  0.00  0.00    +0.000 OA
ATOM     16  N   UNL     1       5.985   6.128  17.949  0.00  0.00    +0.000 N 
ATOM     17  C   UNL     1       6.293   7.471  17.510  0.00  0.00    +0.000 C 
BRANCH  16  18
ATOM     18  C   UNL     1       4.682   5.575  17.816  0.00  0.00    +0.000 A 
ATOM     19  C   UNL     1       4.458   4.369  17.136  0.00  0.00    +0.000 A 
ATOM     20  C   UNL     1       3.180   3.802  17.058  0.00  0.00    +0.000 A 
ATOM     21  C   UNL     1       2.092   4.447  17.635  0.00  0.00    +0.000 A 
ATOM     22  C   UNL     1       2.283   5.656  18.291  0.00  0.00    +0.000 A 
ATOM     23  C   UNL     1       3.566   6.208  18.388  0.00  0.00    +0.000 A 
ENDBRANCH  16  18
ENDBRANCH   6  12
BRANCH   1  25
ATOM     24  C   UNL     1      10.692  14.579  21.162  0.00  0.00    +0.000 C 
ATOM     25  C   UNL     1      10.625  13.947  19.780  0.00  0.00    +0.000 C 
ENDBRANCH   1  25
TORSDOF 3
ENDMDL
MODEL 2
REMARK VINA RESULT:      -7.6      0.340      1.068
REMARK  Name = 
REMARK  5 active torsions:
REMARK  status: ('A' for Active; 'I' for Inactive)
REMARK    1  A    between atoms: C_1  and  C_2
REMARK    2  A    between atoms: C_2  and  C_3
REMARK    3  A    between atoms: C_8  and  C_10
REMARK    4  A    between atoms: N_14  and  C_15
REMARK    5  A    between atoms: C_22  and  C_23
REMARK                            x       y       z     vdW  Elec       q    Type
REMARK                         _______ _______ _______ _____ _____    ______ ____
ROOT
ATOM      1  C   UNL     1      10.118  12.602  19.917  0.00  0.00    +0.000 A 
ATOM      2  N   UNL     1       9.588  12.053  21.049  0.00  0.00    +0.000 N 
ATOM      3  N   UNL     1       9.228  10.769  20.903  0.00  0.00    +0.000 NA
ATOM      4  C   UNL     1       9.368  10.540  19.597  0.00  0.00    +0.000 A 
ATOM      5  N   UNL     1       8.975   9.308  19.116  0.00  0.00    +0.000 N 
ATOM      6  C   UNL     1       8.179   9.179  17.995  0.00  0.00    +0.000 C 
ATOM      7  O   UNL     1       7.840  10.104  17.260  0.00  0.00    +0.000 OA
ATOM      8  C   UNL     1       9.992  11.633  18.934  0.00  0.00    +0.000 A 
ATOM      9  C   UNL     1      10.494  11.732  17.544  0.00  0.00    +0.000 C 
ATOM     10  H   UNL     1       9.474  12.484  21.960  0.00  0.00    +0.000 HD
ATOM     11  H   UNL     1       8.835   8.655  19.873  0.00  0.00    +0.000 HD
ENDROOT
BRANCH   6  12
ATOM     12  C   UNL     1       7.796   7.736  17.677  0.00  0.00    +0.000 C 
ATOM     13  C   UNL     1       8.200   6.704  18.717  0.00  0.00    +0.000 C 
ATOM     14  C   UNL     1       7.100   5.672  18.685  0.00  0.00    +0.000 C 
ATOM     15  O   UNL     1       7.220   4.570  19.204  0.00  0.00    +0.000 OA
ATOM     16  N   UNL     1       6.006   6.219  18.004  0.00  0.00    +0.000 N 
ATOM     17  C   UNL     1       6.284   7.577  17.592  0.00  0.00    +0.000 C 
BRANCH  16  18
ATOM     18  C   UNL     1       4.697   5.667  17.936  0.00  0.00    +0.000 A 
ATOM     19  C   UNL     1       3.616   6.245  18.615  0.00  0.00    +0.000 A 
ATOM     20  C   UNL     1       2.319   5.727  18.496  0.00  0.00    +0.000 A 
ATOM     21  C   UNL     1       2.083   4.600  17.718  0.00  0.00    +0.000 A 
ATOM     22  C   UNL     1       3.143   3.992  17.056  0.00  0.00    +0.000 A 
ATOM     23  C   UNL     1       4.434   4.526  17.158  0.00  0.00    +0.000 A 
ENDBRANCH  16  18
ENDBRANCH   6  12
BRANCH   1  25
ATOM     24  C   UNL     1       9.606  15.042  19.912  0.00  0.00    +0.000 C 
ATOM     25  C   UNL     1      10.693  13.978  19.890  0.00  0.00    +0.000 C 
ENDBRANCH   1  25
TORSDOF 3
ENDMDL
MODEL 3
REMARK VINA RESULT:      -7.1      6.573      9.778
REMARK  Name = 
REMARK  5 active torsions:
REMARK  status: ('A' for Active; 'I' for Inactive)
REMARK    1  A    between atoms: C_1  and  C_2
REMARK    2  A    between atoms: C_2  and  C_3
REMARK    3  A    between atoms: C_8  and  C_10
REMARK    4  A    between atoms: N_14  and  C_15
REMARK    5  A    between atoms: C_22  and  C_23
REMARK                            x       y       z     vdW  Elec       q    Type
REMARK                         _______ _______ _______ _____ _____    ______ ____
ROOT
ATOM      1  C   UNL     1      -4.244  11.488  16.948  0.00  0.00    +0.000 A 
ATOM      2  N   UNL     1      -3.834  10.614  15.983  0.00  0.00    +0.000 N 
ATOM      3  N   UNL     1      -2.763   9.887  16.337  0.00  0.00    +0.000 NA
ATOM      4  C   UNL     1      -2.369  10.432  17.489  0.00  0.00    +0.000 A 
ATOM      5  N   UNL     1      -1.211   9.951  18.063  0.00  0.00    +0.000 N 
ATOM      6  C   UNL     1      -0.219  10.793  18.526  0.00  0.00    +0.000 C 
ATOM      7  O   UNL     1      -0.302  12.018  18.584  0.00  0.00    +0.000 OA
ATOM      8  C   UNL     1      -3.302  11.397  17.961  0.00  0.00    +0.000 A 
ATOM      9  C   UNL     1      -3.353  12.102  19.263  0.00  0.00    +0.000 C 
ATOM     10  H   UNL     1      -4.255  10.438  15.077  0.00  0.00    +0.000 HD
ATOM     11  H   UNL     1      -0.930   9.082  17.632  0.00  0.00    +0.000 HD
ENDROOT
BRANCH   6  12
ATOM     12  C   UNL     1       1.011  10.059  19.054  0.00  0.00    +0.000 C 
ATOM     13  C   UNL     1       0.791   9.222  20.304  0.00  0.00    +0.000 C 
ATOM     14  C   UNL     1       1.715   8.040  20.145  0.00  0.00    +0.000 C 
ATOM     15  O   UNL     1       1.993   7.295  21.076  0.00  0.00    +0.000 OA
ATOM     16  N   UNL     1       2.132   7.985  18.810  0.00  0.00    +0.000 N 
ATOM     17  C   UNL     1       1.523   9.047  18.039  0.00  0.00    +0.000 C 
BRANCH  16  18
ATOM     18  C   UNL     1       2.831   6.913  18.191  0.00  0.00    +0.000 A 
ATOM     19  C   UNL     1       2.342   5.599  18.219  0.00  0.00    +0.000 A 
ATOM     20  C   UNL     1       3.007   4.559  17.558  0.00  0.00    +0.000 A 
ATOM     21  C   UNL     1       4.194   4.807  16.879  0.00  0.00    +0.000 A 
ATOM     22  C   UNL     1       4.714   6.095  16.858  0.00  0.00    +0.000 A 
ATOM     23  C   UNL     1       4.034   7.137  17.500  0.00  0.00    +0.000 A 
ENDBRANCH  16  18
ENDBRANCH   6  12
BRANCH   1  25
ATOM     24  C   UNL     1      -6.590  11.805  17.727  0.00  0.00    +0.000 C 
ATOM     25  C   UNL     1      -5.483  12.306  16.812  0.00  0.00    +0.000 C 
ENDBRANCH   1  25
TORSDOF 3
ENDMDL
MODEL 4
REMARK VINA RESULT:      -6.9      5.830      7.049
REMARK  Name = 
REMARK  5 active torsions:
REMARK  status: ('A' for Active; 'I' for Inactive)
REMARK    1  A    between atoms: C_1  and  C_2
REMARK    2  A    between atoms: C_2  and  C_3
REMARK    3  A    between atoms: C_8  and  C_10
REMARK    4  A    between atoms: N_14  and  C_15
REMARK    5  A    between atoms: C_22  and  C_23
REMARK                            x       y       z     vdW  Elec       q    Type
REMARK                         _______ _______ _______ _____ _____    ______ ____
ROOT
ATOM      1  C   UNL     1       0.392  11.751  18.907  0.00  0.00    +0.000 A 
ATOM      2  N   UNL     1       1.582  11.938  18.263  0.00  0.00    +0.000 N 
ATOM      3  N   UNL     1       2.203  10.793  17.941  0.00  0.00    +0.000 NA
ATOM      4  C   UNL     1       1.479   9.851  18.548  0.00  0.00    +0.000 A 
ATOM      5  N   UNL     1       1.933   8.550  18.479  0.00  0.00    +0.000 N 
ATOM      6  C   UNL     1       2.011   7.741  19.594  0.00  0.00    +0.000 C 
ATOM      7  O   UNL     1       1.594   8.037  20.712  0.00  0.00    +0.000 OA
ATOM      8  C   UNL     1       0.287  10.384  19.112  0.00  0.00    +0.000 A 
ATOM      9  C   UNL     1      -0.871   9.680  19.710  0.00  0.00    +0.000 C 
ATOM     10  H   UNL     1       2.013  12.813  17.985  0.00  0.00    +0.000 HD
ATOM     11  H   UNL     1       2.652   8.457  17.776  0.00  0.00    +0.000 HD
ENDROOT
BRANCH   6  12
ATOM     12  C   UNL     1       2.610   6.365  19.314  0.00  0.00    +0.000 C 
ATOM     13  C   UNL     1       1.716   5.402  18.552  0.00  0.00    +0.000 C 
ATOM     14  C   UNL     1       2.660   4.591  17.699  0.00  0.00    +0.000 C 
ATOM     15  O   UNL     1       2.319   3.551  17.150  0.00  0.00    +0.000 OA
ATOM     16  N   UNL     1       3.897   5.246  17.668  0.00  0.00    +0.000 N 
ATOM     17  C   UNL     1       3.845   6.475  18.429  0.00  0.00    +0.000 C 
BRANCH  16  18
ATOM     18  C   UNL     1       4.991   4.937  16.814  0.00  0.00    +0.000 A 
ATOM     19  C   UNL     1       4.851   4.901  15.420  0.00  0.00    +0.000 A 
ATOM     20  C   UNL     1       5.947   4.652  14.584  0.00  0.00    +0.000 A 
ATOM     21  C   UNL     1       7.202   4.404  15.128  0.00  0.00    +0.000 A 
ATOM     22  C   UNL     1       7.361   4.408  16.508  0.00  0.00    +0.000 A 
ATOM     23  C   UNL     1       6.268   4.681  17.341  0.00  0.00    +0.000 A 
ENDBRANCH  16  18
ENDBRANCH   6  12
BRANCH   1  25
ATOM     24  C   UNL     1      -0.048  14.189  18.630  0.00  0.00    +0.000 C 
ATOM     25  C   UNL     1      -0.518  12.881  19.249  0.00  0.00    +0.000 C 
ENDBRANCH   1  25
TORSDOF 3
ENDMDL
MODEL 5
REMARK VINA RESULT:      -6.8      6.562      9.731
REMARK  Name = 
REMARK  5 active torsions:
REMARK  status: ('A' for Active; 'I' for Inactive)
REMARK    1  A    between atoms: C_1  and  C_2
REMARK    2  A    between atoms: C_2  and  C_3
REMARK    3  A    between atoms: C_8  and  C_10
REMARK    4  A    between atoms: N_14  and  C_15
REMARK    5  A    between atoms: C_22  and  C_23
REMARK                            x       y       z     vdW  Elec       q    Type
REMARK                         _______ _______ _______ _____ _____    ______ ____
ROOT
ATOM      1  C   UNL     1      -4.298  11.533  17.619  0.00  0.00    +0.000 A 
ATOM      2  N   UNL     1      -4.107  10.480  16.772  0.00  0.00    +0.000 N 
ATOM      3  N   UNL     1      -3.053   9.716  17.095  0.00  0.00    +0.000 NA
ATOM      4  C   UNL     1      -2.448  10.395  18.071  0.00  0.00    +0.000 A 
ATOM      5  N   UNL     1      -1.255   9.899  18.553  0.00  0.00    +0.000 N 
ATOM      6  C   UNL     1      -0.144  10.700  18.725  0.00  0.00    +0.000 C 
ATOM      7  O   UNL     1      -0.125  11.921  18.582  0.00  0.00    +0.000 OA
ATOM      8  C   UNL     1      -3.223  11.511  18.494  0.00  0.00    +0.000 A 
ATOM      9  C   UNL     1      -3.022  12.415  19.650  0.00  0.00    +0.000 C 
ATOM     10  H   UNL     1      -4.674  10.205  15.976  0.00  0.00    +0.000 HD
ATOM     11  H   UNL     1      -1.110   8.949  18.245  0.00  0.00    +0.000 HD
ENDROOT
BRANCH   6  12
ATOM     12  C   UNL     1       1.093   9.941  19.197  0.00  0.00    +0.000 C 
ATOM     13  C   UNL     1       0.883   9.015  20.384  0.00  0.00    +0.000 C 
ATOM     14  C   UNL     1       1.817   7.855  20.139  0.00  0.00    +0.000 C 
ATOM     15  O   UNL     1       2.103   7.048  21.014  0.00  0.00    +0.000 OA
ATOM     16  N   UNL     1       2.231   7.900  18.802  0.00  0.00    +0.000 N 
ATOM     17  C   UNL     1       1.612   9.009  18.110  0.00  0.00    +0.000 C 
BRANCH  16  18
ATOM     18  C   UNL     1       2.937   6.881  18.107  0.00  0.00    +0.000 A 
ATOM     19  C   UNL     1       4.085   7.161  17.352  0.00  0.00    +0.000 A 
ATOM     20  C   UNL     1       4.807   6.142  16.717  0.00  0.00    +0.000 A 
ATOM     21  C   UNL     1       4.377   4.823  16.799  0.00  0.00    +0.000 A 
ATOM     22  C   UNL     1       3.228   4.523  17.519  0.00  0.00    +0.000 A 
ATOM     23  C   UNL     1       2.521   5.540  18.173  0.00  0.00    +0.000 A 
ENDBRANCH  16  18
ENDBRANCH   6  12
BRANCH   1  25
ATOM     24  C   UNL     1      -6.764  11.734  17.925  0.00  0.00    +0.000 C 
ATOM     25  C   UNL     1      -5.479  12.438  17.517  0.00  0.00    +0.000 C 
ENDBRANCH   1  25
TORSDOF 3
ENDMDL
MODEL 6
REMARK VINA RESULT:      -6.8      5.500      7.143
REMARK  Name = 
REMARK  5 active torsions:
REMARK  status: ('A' for Active; 'I' for Inactive)
REMARK    1  A    between atoms: C_1  and  C_2
REMARK    2  A    between atoms: C_2  and  C_3
REMARK    3  A    between atoms: C_8  and  C_10
REMARK    4  A    between atoms: N_14  and  C_15
REMARK    5  A    between atoms: C_22  and  C_23
REMARK                            x       y       z     vdW  Elec       q    Type
REMARK                         _______ _______ _______ _____ _____    ______ ____
ROOT
ATOM      1  C   UNL     1      -0.202  11.097  21.761  0.00  0.00    +0.000 A 
ATOM      2  N   UNL     1      -0.535   9.857  22.225  0.00  0.00    +0.000 N 
ATOM      3  N   UNL     1       0.141   8.862  21.630  0.00  0.00    +0.000 NA
ATOM      4  C   UNL     1       0.796   9.465  20.637  0.00  0.00    +0.000 A 
ATOM      5  N   UNL     1       1.519   8.672  19.771  0.00  0.00    +0.000 N 
ATOM      6  C   UNL     1       1.426   8.809  18.400  0.00  0.00    +0.000 C 
ATOM      7  O   UNL     1       0.802   9.696  17.821  0.00  0.00    +0.000 OA
ATOM      8  C   UNL     1       0.677  10.881  20.711  0.00  0.00    +0.000 A 
ATOM      9  C   UNL     1       1.378  11.929  19.933  0.00  0.00    +0.000 C 
ATOM     10  H   UNL     1      -1.188   9.619  22.964  0.00  0.00    +0.000 HD
ATOM     11  H   UNL     1       1.633   7.741  20.146  0.00  0.00    +0.000 HD
ENDROOT
BRANCH   6  12
ATOM     12  C   UNL     1       2.249   7.785  17.623  0.00  0.00    +0.000 C 
ATOM     13  C   UNL     1       3.756   7.969  17.685  0.00  0.00    +0.000 C 
ATOM     14  C   UNL     1       4.318   6.569  17.654  0.00  0.00    +0.000 C 
ATOM     15  O   UNL     1       5.500   6.341  17.429  0.00  0.00    +0.000 OA
ATOM     16  N   UNL     1       3.278   5.673  17.931  0.00  0.00    +0.000 N 
ATOM     17  C   UNL     1       2.042   6.382  18.178  0.00  0.00    +0.000 C 
BRANCH  16  18
ATOM     18  C   UNL     1       3.417   4.286  18.209  0.00  0.00    +0.000 A 
ATOM     19  C   UNL     1       4.144   3.823  19.315  0.00  0.00    +0.000 A 
ATOM     20  C   UNL     1       4.227   2.456  19.613  0.00  0.00    +0.000 A 
ATOM     21  C   UNL     1       3.608   1.521  18.792  0.00  0.00    +0.000 A 
ATOM     22  C   UNL     1       2.904   1.953  17.675  0.00  0.00    +0.000 A 
ATOM     23  C   UNL     1       2.803   3.321  17.393  0.00  0.00    +0.000 A 
ENDBRANCH  16  18
ENDBRANCH   6  12
BRANCH   1  25
ATOM     24  C   UNL     1      -1.986  12.078  23.199  0.00  0.00    +0.000 C 
ATOM     25  C   UNL     1      -0.743  12.348  22.364  0.00  0.00    +0.000 C 
ENDBRANCH   1  25
TORSDOF 3
ENDMDL
MODEL 7
REMARK VINA RESULT:      -6.8      8.104     11.083
REMARK  Name = 
REMARK  5 active torsions:
REMARK  status: ('A' for Active; 'I' for Inactive)
REMARK    1  A    between atoms: C_1  and  C_2
REMARK    2  A    between atoms: C_2  and  C_3
REMARK    3  A    between atoms: C_8  and  C_10
REMARK    4  A    between atoms: N_14  and  C_15
REMARK    5  A    between atoms: C_22  and  C_23
REMARK                            x       y       z     vdW  Elec       q    Type
REMARK                         _______ _______ _______ _____ _____    ______ ____
ROOT
ATOM      1  C   UNL     1      -5.761  12.050  17.763  0.00  0.00    +0.000 A 
ATOM      2  N   UNL     1      -5.116  11.550  16.669  0.00  0.00    +0.000 N 
ATOM      3  N   UNL     1      -3.887  11.083  16.938  0.00  0.00    +0.000 NA
ATOM      4  C   UNL     1      -3.670  11.453  18.201  0.00  0.00    +0.000 A 
ATOM      5  N   UNL     1      -2.428  11.193  18.741  0.00  0.00    +0.000 N 
ATOM      6  C   UNL     1      -1.714  12.151  19.432  0.00  0.00    +0.000 C 
ATOM      7  O   UNL     1      -2.137  13.265  19.734  0.00  0.00    +0.000 OA
ATOM      8  C   UNL     1      -4.839  12.003  18.797  0.00  0.00    +0.000 A 
ATOM      9  C   UNL     1      -5.094  12.370  20.210  0.00  0.00    +0.000 C 
ATOM     10  H   UNL     1      -5.465  11.466  15.720  0.00  0.00    +0.000 HD
ATOM     11  H   UNL     1      -1.912  10.546  18.161  0.00  0.00    +0.000 HD
ENDROOT
BRANCH   6  12
ATOM     12  C   UNL     1      -0.332  11.683  19.880  0.00  0.00    +0.000 C 
ATOM     13  C   UNL     1      -0.224  11.249  21.332  0.00  0.00    +0.000 C 
ATOM     14  C   UNL     1       0.788  10.129  21.327  0.00  0.00    +0.000 C 
ATOM     15  O   UNL     1       1.314   9.716  22.352  0.00  0.00    +0.000 OA
ATOM     16  N   UNL     1       0.961   9.701  20.005  0.00  0.00    +0.000 N 
ATOM     17  C   UNL     1       0.104  10.445  19.109  0.00  0.00    +0.000 C 
BRANCH  16  18
ATOM     18  C   UNL     1       1.657   8.535  19.584  0.00  0.00    +0.000 A 
ATOM     19  C   UNL     1       1.717   7.383  20.380  0.00  0.00    +0.000 A 
ATOM     20  C   UNL     1       2.357   6.220  19.933  0.00  0.00    +0.000 A 
ATOM     21  C   UNL     1       2.977   6.195  18.689  0.00  0.00    +0.000 A 
ATOM     22  C   UNL     1       2.955   7.333  17.892  0.00  0.00    +0.000 A 
ATOM     23  C   UNL     1       2.294   8.487  18.332  0.00  0.00    +0.000 A 
ENDBRANCH  16  18
ENDBRANCH   6  12
BRANCH   1  25
ATOM     24  C   UNL     1      -7.275  14.029  17.681  0.00  0.00    +0.000 C 
ATOM     25  C   UNL     1      -7.178  12.511  17.715  0.00  0.00    +0.000 C 
ENDBRANCH   1  25
TORSDOF 3
ENDMDL
MODEL 8
REMARK VINA RESULT:      -6.8      5.827      7.043
REMARK  Name = 
REMARK  5 active torsions:
REMARK  status: ('A' for Active; 'I' for Inactive)
REMARK    1  A    between atoms: C_1  and  C_2
REMARK    2  A    between atoms: C_2  and  C_3
REMARK    3  A    between atoms: C_8  and  C_10
REMARK    4  A    between atoms: N_14  and  C_15
REMARK    5  A    between atoms: C_22  and  C_23
REMARK                            x       y       z     vdW  Elec       q    Type
REMARK                         _______ _______ _______ _____ _____    ______ ____
ROOT
ATOM      1  C   UNL     1       0.412  11.747  18.927  0.00  0.00    +0.000 A 
ATOM      2  N   UNL     1       1.588  11.931  18.260  0.00  0.00    +0.000 N 
ATOM      3  N   UNL     1       2.201  10.785  17.927  0.00  0.00    +0.000 NA
ATOM      4  C   UNL     1       1.489   9.845  18.550  0.00  0.00    +0.000 A 
ATOM      5  N   UNL     1       1.940   8.544  18.474  0.00  0.00    +0.000 N 
ATOM      6  C   UNL     1       2.040   7.737  19.590  0.00  0.00    +0.000 C 
ATOM      7  O   UNL     1       1.645   8.035  20.715  0.00  0.00    +0.000 OA
ATOM      8  C   UNL     1       0.309  10.381  19.138  0.00  0.00    +0.000 A 
ATOM      9  C   UNL     1      -0.838   9.679  19.759  0.00  0.00    +0.000 C 
ATOM     10  H   UNL     1       2.014  12.806  17.971  0.00  0.00    +0.000 HD
ATOM     11  H   UNL     1       2.644   8.449  17.757  0.00  0.00    +0.000 HD
ENDROOT
BRANCH   6  12
ATOM     12  C   UNL     1       2.631   6.360  19.300  0.00  0.00    +0.000 C 
ATOM     13  C   UNL     1       1.714   5.390  18.574  0.00  0.00    +0.000 C 
ATOM     14  C   UNL     1       2.631   4.574  17.696  0.00  0.00    +0.000 C 
ATOM     15  O   UNL     1       2.274   3.529  17.166  0.00  0.00    +0.000 OA
ATOM     16  N   UNL     1       3.865   5.231  17.621  0.00  0.00    +0.000 N 
ATOM     17  C   UNL     1       3.836   6.465  18.375  0.00  0.00    +0.000 C 
BRANCH  16  18
ATOM     18  C   UNL     1       4.931   4.917  16.734  0.00  0.00    +0.000 A 
ATOM     19  C   UNL     1       6.254   4.797  17.183  0.00  0.00    +0.000 A 
ATOM     20  C   UNL     1       7.289   4.432  16.313  0.00  0.00    +0.000 A 
ATOM     21  C   UNL     1       7.026   4.209  14.966  0.00  0.00    +0.000 A 
ATOM     22  C   UNL     1       5.728   4.347  14.491  0.00  0.00    +0.000 A 
ATOM     23  C   UNL     1       4.691   4.689  15.369  0.00  0.00    +0.000 A 
ENDBRANCH  16  18
ENDBRANCH   6  12
BRANCH   1  25
ATOM     24  C   UNL     1       0.012  14.199  18.719  0.00  0.00    +0.000 C 
ATOM     25  C   UNL     1      -0.490  12.879  19.286  0.00  0.00    +0.000 C 
ENDBRANCH   1  25
TORSDOF 3
ENDMDL
MODEL 9
REMARK VINA RESULT:      -6.7      5.822      7.345
REMARK  Name = 
REMARK  5 active torsions:
REMARK  status: ('A' for Active; 'I' for Inactive)
REMARK    1  A    between atoms: C_1  and  C_2
REMARK    2  A    between atoms: C_2  and  C_3
REMARK    3  A    between atoms: C_8  and  C_10
REMARK    4  A    between atoms: N_14  and  C_15
REMARK    5  A    between atoms: C_22  and  C_23
REMARK                            x       y       z     vdW  Elec       q    Type
REMARK                         _______ _______ _______ _____ _____    ______ ____
ROOT
ATOM      1  C   UNL     1      -0.761  13.053  19.236  0.00  0.00    +0.000 A 
ATOM      2  N   UNL     1      -1.692  12.518  18.394  0.00  0.00    +0.000 N 
ATOM      3  N   UNL     1      -1.447  11.241  18.064  0.00  0.00    +0.000 NA
ATOM      4  C   UNL     1      -0.234  11.005  18.567  0.00  0.00    +0.000 A 
ATOM      5  N   UNL     1       0.342   9.780  18.302  0.00  0.00    +0.000 N 
ATOM      6  C   UNL     1       1.644   9.663  17.857  0.00  0.00    +0.000 C 
ATOM      7  O   UNL     1       2.443  10.593  17.761  0.00  0.00    +0.000 OA
ATOM      8  C   UNL     1       0.220  12.083  19.376  0.00  0.00    +0.000 A 
ATOM      9  C   UNL     1       1.408  12.167  20.257  0.00  0.00    +0.000 C 
ATOM     10  H   UNL     1      -2.534  12.954  18.033  0.00  0.00    +0.000 HD
ATOM     11  H   UNL     1      -0.342   9.132  17.938  0.00  0.00    +0.000 HD
ENDROOT
BRANCH   6  12
ATOM     12  C   UNL     1       2.062   8.228  17.552  0.00  0.00    +0.000 C 
ATOM     13  C   UNL     1       3.549   7.936  17.674  0.00  0.00    +0.000 C 
ATOM     14  C   UNL     1       3.624   6.514  18.174  0.00  0.00    +0.000 C 
ATOM     15  O   UNL     1       4.659   5.861  18.141  0.00  0.00    +0.000 OA
ATOM     16  N   UNL     1       2.360   6.150  18.653  0.00  0.00    +0.000 N 
ATOM     17  C   UNL     1       1.430   7.252  18.536  0.00  0.00    +0.000 C 
BRANCH  16  18
ATOM     18  C   UNL     1       2.049   4.982  19.402  0.00  0.00    +0.000 A 
ATOM     19  C   UNL     1       1.458   3.859  18.807  0.00  0.00    +0.000 A 
ATOM     20  C   UNL     1       1.208   2.692  19.539  0.00  0.00    +0.000 A 
ATOM     21  C   UNL     1       1.517   2.635  20.893  0.00  0.00    +0.000 A 
ATOM     22  C   UNL     1       2.079   3.744  21.513  0.00  0.00    +0.000 A 
ATOM     23  C   UNL     1       2.350   4.901  20.772  0.00  0.00    +0.000 A 
ENDBRANCH  16  18
ENDBRANCH   6  12
BRANCH   1  25
ATOM     24  C   UNL     1      -0.105  15.450  19.040  0.00  0.00    +0.000 C 
ATOM     25  C   UNL     1      -0.902  14.416  19.823  0.00  0.00    +0.000 C 
ENDBRANCH   1  25
TORSDOF 3
ENDMDL
