MODEL 1
REMARK VINA RESULT:      -7.0      0.000      0.000
REMARK  Name = 
REMARK  4 active torsions:
REMARK  status: ('A' for Active; 'I' for Inactive)
REMARK    1  A    between atoms: C_1  and  C_2
REMARK    2  A    between atoms: C_5  and  N_6
REMARK    3  A    between atoms: C_11  and  C_12
REMARK    4  A    between atoms: C_23  and  C_24
REMARK                            x       y       z     vdW  Elec       q    Type
REMARK                         _______ _______ _______ _____ _____    ______ ____
ROOT
ATOM      1  C   UNL     1      -4.247  13.982  20.847  0.00  0.00    +0.000 C 
ATOM      2  O   UNL     1      -4.493  15.168  20.638  0.00  0.00    +0.000 OA
ATOM      3  N   UNL     1      -3.249  13.567  21.736  0.00  0.00    +0.000 N 
ATOM      4  C   UNL     1      -2.855  12.205  22.078  0.00  0.00    +0.000 C 
ATOM      5  C   UNL     1      -1.657  12.304  23.012  0.00  0.00    +0.000 C 
ATOM      6  C   UNL     1      -0.441  11.576  22.463  0.00  0.00    +0.000 C 
ATOM      7  N   UNL     1       0.305  12.602  21.756  0.00  0.00    +0.000 N 
ATOM      8  C   UNL     1       0.886  12.346  20.534  0.00  0.00    +0.000 A 
ATOM      9  C   UNL     1       1.656  13.303  19.861  0.00  0.00    +0.000 A 
ATOM     10  N   UNL     1       2.253  13.108  18.655  0.00  0.00    +0.000 NA
ATOM     11  C   UNL     1       2.054  11.895  18.123  0.00  0.00    +0.000 A 
ATOM     12  C   UNL     1       1.307  10.911  18.754  0.00  0.00    +0.000 A 
ATOM     13  C   UNL     1       1.071   9.585  18.101  0.00  0.00    +0.000 C 
ATOM     14  N   UNL     1       0.728  11.125  19.967  0.00  0.00    +0.000 NA
ATOM     15  C   UNL     1      -0.085  13.950  22.150  0.00  0.00    +0.000 C 
ATOM     16  C   UNL     1      -1.298  13.790  23.067  0.00  0.00    +0.000 C 
ATOM     17  C   UNL     1      -2.540  14.523  22.561  0.00  0.00    +0.000 C 
ENDROOT
BRANCH   1  23
ATOM     18  C   UNL     1      -5.034  11.228  16.851  0.00  0.00    +0.000 C 
ATOM     19  C   UNL     1      -5.437  11.497  18.269  0.00  0.00    +0.000 A 
ATOM     20  C   UNL     1      -6.569  10.940  18.847  0.00  0.00    +0.000 A 
ATOM     21  C   UNL     1      -6.943  11.322  20.137  0.00  0.00    +0.000 A 
ATOM     22  C   UNL     1      -6.258  12.353  20.826  0.00  0.00    +0.000 A 
ATOM     23  C   UNL     1      -5.136  12.947  20.234  0.00  0.00    +0.000 A 
ATOM     24  C   UNL     1      -4.687  12.407  19.016  0.00  0.00    +0.000 A 
BRANCH  22  25
ATOM     25  N   UNL     1      -6.772  12.728  22.096  0.00  0.00    +0.000 N 
ATOM     26  N   UNL     1      -6.330  12.219  23.275  0.00  0.00    +0.000 NA
ATOM     27  C   UNL     1      -7.091  12.864  24.165  0.00  0.00    +0.000 A 
ATOM     28  C   UNL     1      -7.917  13.783  23.518  0.00  0.00    +0.000 A 
ATOM     29  N   UNL     1      -7.663  13.769  22.210  0.00  0.00    +0.000 NA
ENDBRANCH  22  25
ENDBRANCH   1  23
TORSDOF 2
ENDMDL
MODEL 2
REMARK VINA RESULT:      -6.8      7.287     12.934
REMARK  Name = 
REMARK  4 active torsions:
REMARK  status: ('A' for Active; 'I' for Inactive)
REMARK    1  A    between atoms: C_1  and  C_2
REMARK    2  A    between atoms: C_5  and  N_6
REMARK    3  A    between atoms: C_11  and  C_12
REMARK    4  A    between atoms: C_23  and  C_24
REMARK                            x       y       z     vdW  Elec       q    Type
REMARK                         _______ _______ _______ _____ _____    ______ ____
ROOT
ATOM      1  C   UNL     1       9.132  14.801  20.468  0.00  0.00    +0.000 C 
ATOM      2  O   UNL     1       9.637  14.768  21.587  0.00  0.00    +0.000 OA
ATOM      3  N   UNL     1       8.212  15.785  20.087  0.00  0.00    +0.000 N 
ATOM      4  C   UNL     1       7.540  15.943  18.802  0.00  0.00    +0.000 C 
ATOM      5  C   UNL     1       6.568  17.107  18.942  0.00  0.00    +0.000 C 
ATOM      6  C   UNL     1       5.136  16.696  18.642  0.00  0.00    +0.000 C 
ATOM      7  N   UNL     1       4.577  16.362  19.940  0.00  0.00    +0.000 N 
ATOM      8  C   UNL     1       3.767  15.260  20.104  0.00  0.00    +0.000 A 
ATOM      9  C   UNL     1       3.173  14.950  21.334  0.00  0.00    +0.000 A 
ATOM     10  N   UNL     1       2.364  13.880  21.555  0.00  0.00    +0.000 NA
ATOM     11  C   UNL     1       2.160  13.103  20.483  0.00  0.00    +0.000 A 
ATOM     12  C   UNL     1       2.719  13.372  19.242  0.00  0.00    +0.000 A 
ATOM     13  C   UNL     1       2.502  12.452  18.084  0.00  0.00    +0.000 C 
ATOM     14  N   UNL     1       3.516  14.457  19.042  0.00  0.00    +0.000 NA
ATOM     15  C   UNL     1       5.357  16.909  21.044  0.00  0.00    +0.000 C 
ATOM     16  C   UNL     1       6.616  17.509  20.417  0.00  0.00    +0.000 C 
ATOM     17  C   UNL     1       7.909  16.901  20.959  0.00  0.00    +0.000 C 
ENDROOT
BRANCH   1  23
ATOM     18  C   UNL     1       8.978  10.126  18.955  0.00  0.00    +0.000 C 
ATOM     19  C   UNL     1       9.429  11.518  18.632  0.00  0.00    +0.000 A 
ATOM     20  C   UNL     1      10.291  11.804  17.584  0.00  0.00    +0.000 A 
ATOM     21  C   UNL     1      10.756  13.110  17.411  0.00  0.00    +0.000 A 
ATOM     22  C   UNL     1      10.459  14.127  18.350  0.00  0.00    +0.000 A 
ATOM     23  C   UNL     1       9.618  13.836  19.433  0.00  0.00    +0.000 A 
ATOM     24  C   UNL     1       9.028  12.561  19.469  0.00  0.00    +0.000 A 
BRANCH  22  25
ATOM     25  N   UNL     1      11.052  15.398  18.131  0.00  0.00    +0.000 N 
ATOM     26  N   UNL     1      12.161  15.841  18.777  0.00  0.00    +0.000 NA
ATOM     27  C   UNL     1      12.333  17.056  18.244  0.00  0.00    +0.000 A 
ATOM     28  C   UNL     1      11.378  17.288  17.255  0.00  0.00    +0.000 A 
ATOM     29  N   UNL     1      10.610  16.209  17.112  0.00  0.00    +0.000 NA
ENDBRANCH  22  25
ENDBRANCH   1  23
TORSDOF 2
ENDMDL
MODEL 3
REMARK VINA RESULT:      -6.4      2.589      5.007
REMARK  Name = 
REMARK  4 active torsions:
REMARK  status: ('A' for Active; 'I' for Inactive)
REMARK    1  A    between atoms: C_1  and  C_2
REMARK    2  A    between atoms: C_5  and  N_6
REMARK    3  A    between atoms: C_11  and  C_12
REMARK    4  A    between atoms: C_23  and  C_24
REMARK                            x       y       z     vdW  Elec       q    Type
REMARK                         _______ _______ _______ _____ _____    ______ ____
ROOT
ATOM      1  C   UNL     1      -0.973  11.169  19.324  0.00  0.00    +0.000 C 
ATOM      2  O   UNL     1      -0.816  10.165  20.015  0.00  0.00    +0.000 OA
ATOM      3  N   UNL     1       0.011  12.157  19.200  0.00  0.00    +0.000 N 
ATOM      4  C   UNL     1      -0.041  13.389  18.421  0.00  0.00    +0.000 C 
ATOM      5  C   UNL     1       1.241  14.158  18.707  0.00  0.00    +0.000 C 
ATOM      6  C   UNL     1       0.964  15.544  19.269  0.00  0.00    +0.000 C 
ATOM      7  N   UNL     1       1.010  15.365  20.709  0.00  0.00    +0.000 N 
ATOM      8  C   UNL     1       0.091  15.977  21.532  0.00  0.00    +0.000 A 
ATOM      9  C   UNL     1       0.150  15.864  22.927  0.00  0.00    +0.000 A 
ATOM     10  N   UNL     1      -0.727  16.445  23.789  0.00  0.00    +0.000 NA
ATOM     11  C   UNL     1      -1.693  17.163  23.202  0.00  0.00    +0.000 A 
ATOM     12  C   UNL     1      -1.790  17.312  21.826  0.00  0.00    +0.000 A 
ATOM     13  C   UNL     1      -2.913  18.085  21.212  0.00  0.00    +0.000 C 
ATOM     14  N   UNL     1      -0.893  16.730  20.984  0.00  0.00    +0.000 NA
ATOM     15  C   UNL     1       1.687  14.135  21.100  0.00  0.00    +0.000 C 
ATOM     16  C   UNL     1       1.958  13.369  19.804  0.00  0.00    +0.000 C 
ATOM     17  C   UNL     1       1.326  11.979  19.780  0.00  0.00    +0.000 C 
ENDROOT
BRANCH   1  23
ATOM     18  C   UNL     1      -2.951  10.046  14.967  0.00  0.00    +0.000 C 
ATOM     19  C   UNL     1      -3.206  10.596  16.337  0.00  0.00    +0.000 A 
ATOM     20  C   UNL     1      -4.390  11.228  16.685  0.00  0.00    +0.000 A 
ATOM     21  C   UNL     1      -4.513  11.814  17.948  0.00  0.00    +0.000 A 
ATOM     22  C   UNL     1      -3.415  11.877  18.839  0.00  0.00    +0.000 A 
ATOM     23  C   UNL     1      -2.203  11.273  18.480  0.00  0.00    +0.000 A 
ATOM     24  C   UNL     1      -2.177  10.539  17.280  0.00  0.00    +0.000 A 
BRANCH  22  25
ATOM     25  N   UNL     1      -3.618  12.571  20.061  0.00  0.00    +0.000 N 
ATOM     26  N   UNL     1      -2.906  13.662  20.444  0.00  0.00    +0.000 NA
ATOM     27  C   UNL     1      -3.450  13.954  21.630  0.00  0.00    +0.000 A 
ATOM     28  C   UNL     1      -4.507  13.087  21.903  0.00  0.00    +0.000 A 
ATOM     29  N   UNL     1      -4.681  12.256  20.876  0.00  0.00    +0.000 NA
ENDBRANCH  22  25
ENDBRANCH   1  23
TORSDOF 2
ENDMDL
MODEL 4
REMARK VINA RESULT:      -6.4      2.562      6.862
REMARK  Name = 
REMARK  4 active torsions:
REMARK  status: ('A' for Active; 'I' for Inactive)
REMARK    1  A    between atoms: C_1  and  C_2
REMARK    2  A    between atoms: C_5  and  N_6
REMARK    3  A    between atoms: C_11  and  C_12
REMARK    4  A    between atoms: C_23  and  C_24
REMARK                            x       y       z     vdW  Elec       q    Type
REMARK                         _______ _______ _______ _____ _____    ______ ____
ROOT
ATOM      1  C   UNL     1      -0.757  11.757  19.562  0.00  0.00    +0.000 C 
ATOM      2  O   UNL     1      -0.239  12.869  19.485  0.00  0.00    +0.000 OA
ATOM      3  N   UNL     1      -1.497  11.199  18.513  0.00  0.00    +0.000 N 
ATOM      4  C   UNL     1      -2.161   9.902  18.468  0.00  0.00    +0.000 C 
ATOM      5  C   UNL     1      -2.908   9.823  17.143  0.00  0.00    +0.000 C 
ATOM      6  C   UNL     1      -4.397   9.590  17.339  0.00  0.00    +0.000 C 
ATOM      7  N   UNL     1      -4.975  10.922  17.333  0.00  0.00    +0.000 N 
ATOM      8  C   UNL     1      -5.963  11.273  18.226  0.00  0.00    +0.000 A 
ATOM      9  C   UNL     1      -6.573  12.534  18.202  0.00  0.00    +0.000 A 
ATOM     10  N   UNL     1      -7.553  12.936  19.055  0.00  0.00    +0.000 NA
ATOM     11  C   UNL     1      -7.916  12.019  19.960  0.00  0.00    +0.000 A 
ATOM     12  C   UNL     1      -7.348  10.754  20.019  0.00  0.00    +0.000 A 
ATOM     13  C   UNL     1      -7.752   9.777  21.077  0.00  0.00    +0.000 C 
ATOM     14  N   UNL     1      -6.378  10.370  19.147  0.00  0.00    +0.000 NA
ATOM     15  C   UNL     1      -4.085  11.917  16.747  0.00  0.00    +0.000 C 
ATOM     16  C   UNL     1      -2.754  11.203  16.502  0.00  0.00    +0.000 C 
ATOM     17  C   UNL     1      -1.577  11.855  17.225  0.00  0.00    +0.000 C 
ENDROOT
BRANCH   1  23
ATOM     18  C   UNL     1       1.420   7.650  21.161  0.00  0.00    +0.000 C 
ATOM     19  C   UNL     1       0.723   8.916  21.556  0.00  0.00    +0.000 A 
ATOM     20  C   UNL     1       0.298   9.167  22.852  0.00  0.00    +0.000 A 
ATOM     21  C   UNL     1      -0.443  10.320  23.123  0.00  0.00    +0.000 A 
ATOM     22  C   UNL     1      -0.869  11.182  22.083  0.00  0.00    +0.000 A 
ATOM     23  C   UNL     1      -0.474  10.915  20.765  0.00  0.00    +0.000 A 
ATOM     24  C   UNL     1       0.420   9.849  20.562  0.00  0.00    +0.000 A 
BRANCH  22  25
ATOM     25  N   UNL     1      -1.691  12.279  22.454  0.00  0.00    +0.000 N 
ATOM     26  N   UNL     1      -3.044  12.212  22.562  0.00  0.00    +0.000 NA
ATOM     27  C   UNL     1      -3.360  13.458  22.931  0.00  0.00    +0.000 A 
ATOM     28  C   UNL     1      -2.204  14.219  23.100  0.00  0.00    +0.000 A 
ATOM     29  N   UNL     1      -1.132  13.459  22.883  0.00  0.00    +0.000 NA
ENDBRANCH  22  25
ENDBRANCH   1  23
TORSDOF 2
ENDMDL
MODEL 5
REMARK VINA RESULT:      -6.3      3.386      5.628
REMARK  Name = 
REMARK  4 active torsions:
REMARK  status: ('A' for Active; 'I' for Inactive)
REMARK    1  A    between atoms: C_1  and  C_2
REMARK    2  A    between atoms: C_5  and  N_6
REMARK    3  A    between atoms: C_11  and  C_12
REMARK    4  A    between atoms: C_23  and  C_24
REMARK                            x       y       z     vdW  Elec       q    Type
REMARK                         _______ _______ _______ _____ _____    ______ ____
ROOT
ATOM      1  C   UNL     1      -1.148  11.833  22.657  0.00  0.00    +0.000 C 
ATOM      2  O   UNL     1      -0.549  11.109  23.449  0.00  0.00    +0.000 OA
ATOM      3  N   UNL     1      -1.058  11.666  21.270  0.00  0.00    +0.000 N 
ATOM      4  C   UNL     1      -1.709  12.446  20.223  0.00  0.00    +0.000 C 
ATOM      5  C   UNL     1      -1.201  11.920  18.888  0.00  0.00    +0.000 C 
ATOM      6  C   UNL     1      -0.536  13.008  18.060  0.00  0.00    +0.000 C 
ATOM      7  N   UNL     1       0.874  12.901  18.387  0.00  0.00    +0.000 N 
ATOM      8  C   UNL     1       1.645  14.024  18.592  0.00  0.00    +0.000 A 
ATOM      9  C   UNL     1       3.019  13.945  18.855  0.00  0.00    +0.000 A 
ATOM     10  N   UNL     1       3.830  15.016  19.063  0.00  0.00    +0.000 NA
ATOM     11  C   UNL     1       3.213  16.204  19.002  0.00  0.00    +0.000 A 
ATOM     12  C   UNL     1       1.857  16.334  18.737  0.00  0.00    +0.000 A 
ATOM     13  C   UNL     1       1.201  17.678  18.723  0.00  0.00    +0.000 C 
ATOM     14  N   UNL     1       1.068  15.247  18.519  0.00  0.00    +0.000 NA
ATOM     15  C   UNL     1       1.213  11.620  18.995  0.00  0.00    +0.000 C 
ATOM     16  C   UNL     1      -0.115  10.899  19.233  0.00  0.00    +0.000 C 
ATOM     17  C   UNL     1      -0.353  10.538  20.698  0.00  0.00    +0.000 C 
ENDROOT
BRANCH   1  23
ATOM     18  C   UNL     1      -5.747  12.534  24.246  0.00  0.00    +0.000 C 
ATOM     19  C   UNL     1      -4.383  13.138  24.095  0.00  0.00    +0.000 A 
ATOM     20  C   UNL     1      -4.130  14.484  24.308  0.00  0.00    +0.000 A 
ATOM     21  C   UNL     1      -2.858  14.997  24.041  0.00  0.00    +0.000 A 
ATOM     22  C   UNL     1      -1.852  14.195  23.448  0.00  0.00    +0.000 A 
ATOM     23  C   UNL     1      -2.112  12.841  23.196  0.00  0.00    +0.000 A 
ATOM     24  C   UNL     1      -3.341  12.325  23.646  0.00  0.00    +0.000 A 
BRANCH  22  25
ATOM     25  N   UNL     1      -0.622  14.833  23.136  0.00  0.00    +0.000 N 
ATOM     26  N   UNL     1       0.023  14.701  21.948  0.00  0.00    +0.000 NA
ATOM     27  C   UNL     1       1.101  15.472  22.123  0.00  0.00    +0.000 A 
ATOM     28  C   UNL     1       1.049  16.097  23.369  0.00  0.00    +0.000 A 
ATOM     29  N   UNL     1      -0.083  15.767  23.989  0.00  0.00    +0.000 NA
ENDBRANCH  22  25
ENDBRANCH   1  23
TORSDOF 2
ENDMDL
MODEL 6
REMARK VINA RESULT:      -6.3      2.184      6.794
REMARK  Name = 
REMARK  4 active torsions:
REMARK  status: ('A' for Active; 'I' for Inactive)
REMARK    1  A    between atoms: C_1  and  C_2
REMARK    2  A    between atoms: C_5  and  N_6
REMARK    3  A    between atoms: C_11  and  C_12
REMARK    4  A    between atoms: C_23  and  C_24
REMARK                            x       y       z     vdW  Elec       q    Type
REMARK                         _______ _______ _______ _____ _____    ______ ____
ROOT
ATOM      1  C   UNL     1      -0.740  12.198  21.712  0.00  0.00    +0.000 C 
ATOM      2  O   UNL     1      -0.411  11.184  22.323  0.00  0.00    +0.000 OA
ATOM      3  N   UNL     1      -1.777  13.034  22.143  0.00  0.00    +0.000 N 
ATOM      4  C   UNL     1      -2.269  14.257  21.521  0.00  0.00    +0.000 C 
ATOM      5  C   UNL     1      -3.471  14.723  22.330  0.00  0.00    +0.000 C 
ATOM      6  C   UNL     1      -4.726  14.835  21.479  0.00  0.00    +0.000 C 
ATOM      7  N   UNL     1      -5.389  13.554  21.644  0.00  0.00    +0.000 N 
ATOM      8  C   UNL     1      -5.967  12.908  20.574  0.00  0.00    +0.000 A 
ATOM      9  C   UNL     1      -6.660  11.700  20.721  0.00  0.00    +0.000 A 
ATOM     10  N   UNL     1      -7.252  11.018  19.704  0.00  0.00    +0.000 NA
ATOM     11  C   UNL     1      -7.128  11.592  18.500  0.00  0.00    +0.000 A 
ATOM     12  C   UNL     1      -6.459  12.792  18.305  0.00  0.00    +0.000 A 
ATOM     13  C   UNL     1      -6.305  13.374  16.936  0.00  0.00    +0.000 C 
ATOM     14  N   UNL     1      -5.885  13.463  19.341  0.00  0.00    +0.000 NA
ATOM     15  C   UNL     1      -4.914  12.823  22.813  0.00  0.00    +0.000 C 
ATOM     16  C   UNL     1      -3.728  13.620  23.358  0.00  0.00    +0.000 C 
ATOM     17  C   UNL     1      -2.432  12.813  23.416  0.00  0.00    +0.000 C 
ENDROOT
BRANCH   1  23
ATOM     18  C   UNL     1       3.231  14.739  20.320  0.00  0.00    +0.000 C 
ATOM     19  C   UNL     1       2.142  13.807  19.883  0.00  0.00    +0.000 A 
ATOM     20  C   UNL     1       1.887  13.521  18.551  0.00  0.00    +0.000 A 
ATOM     21  C   UNL     1       0.785  12.731  18.214  0.00  0.00    +0.000 A 
ATOM     22  C   UNL     1      -0.146  12.311  19.195  0.00  0.00    +0.000 A 
ATOM     23  C   UNL     1       0.085  12.628  20.540  0.00  0.00    +0.000 A 
ATOM     24  C   UNL     1       1.297  13.267  20.855  0.00  0.00    +0.000 A 
BRANCH  22  25
ATOM     25  N   UNL     1      -1.279  11.587  18.738  0.00  0.00    +0.000 N 
ATOM     26  N   UNL     1      -2.535  12.100  18.679  0.00  0.00    +0.000 NA
ATOM     27  C   UNL     1      -3.238  11.071  18.192  0.00  0.00    +0.000 A 
ATOM     28  C   UNL     1      -2.392   9.999  17.910  0.00  0.00    +0.000 A 
ATOM     29  N   UNL     1      -1.132  10.343  18.171  0.00  0.00    +0.000 NA
ENDBRANCH  22  25
ENDBRANCH   1  23
TORSDOF 2
ENDMDL
MODEL 7
REMARK VINA RESULT:      -6.3      3.531      7.654
REMARK  Name = 
REMARK  4 active torsions:
REMARK  status: ('A' for Active; 'I' for Inactive)
REMARK    1  A    between atoms: C_1  and  C_2
REMARK    2  A    between atoms: C_5  and  N_6
REMARK    3  A    between atoms: C_11  and  C_12
REMARK    4  A    between atoms: C_23  and  C_24
REMARK                            x       y       z     vdW  Elec       q    Type
REMARK                         _______ _______ _______ _____ _____    ______ ____
ROOT
ATOM      1  C   UNL     1       1.903  14.009  18.553  0.00  0.00    +0.000 C 
ATOM      2  O   UNL     1       2.685  14.153  17.616  0.00  0.00    +0.000 OA
ATOM      3  N   UNL     1       1.535  12.748  19.038  0.00  0.00    +0.000 N 
ATOM      4  C   UNL     1       0.625  12.433  20.133  0.00  0.00    +0.000 C 
ATOM      5  C   UNL     1       0.492  10.917  20.187  0.00  0.00    +0.000 C 
ATOM      6  C   UNL     1      -0.950  10.463  20.030  0.00  0.00    +0.000 C 
ATOM      7  N   UNL     1      -1.095  10.205  18.608  0.00  0.00    +0.000 N 
ATOM      8  C   UNL     1      -2.226  10.592  17.925  0.00  0.00    +0.000 A 
ATOM      9  C   UNL     1      -2.410  10.303  16.567  0.00  0.00    +0.000 A 
ATOM     10  N   UNL     1      -3.505  10.657  15.842  0.00  0.00    +0.000 NA
ATOM     11  C   UNL     1      -4.438  11.328  16.530  0.00  0.00    +0.000 A 
ATOM     12  C   UNL     1      -4.306  11.630  17.878  0.00  0.00    +0.000 A 
ATOM     13  C   UNL     1      -5.352  12.422  18.596  0.00  0.00    +0.000 C 
ATOM     14  N   UNL     1      -3.206  11.255  18.586  0.00  0.00    +0.000 NA
ATOM     15  C   UNL     1       0.188  10.046  17.934  0.00  0.00    +0.000 C 
ATOM     16  C   UNL     1       1.258  10.393  18.971  0.00  0.00    +0.000 C 
ATOM     17  C   UNL     1       2.166  11.544  18.540  0.00  0.00    +0.000 C 
ENDROOT
BRANCH   1  23
ATOM     18  C   UNL     1      -1.455  17.598  18.638  0.00  0.00    +0.000 C 
ATOM     19  C   UNL     1      -0.328  16.939  19.374  0.00  0.00    +0.000 A 
ATOM     20  C   UNL     1       0.256  17.491  20.504  0.00  0.00    +0.000 A 
ATOM     21  C   UNL     1       1.375  16.877  21.071  0.00  0.00    +0.000 A 
ATOM     22  C   UNL     1       1.997  15.765  20.452  0.00  0.00    +0.000 A 
ATOM     23  C   UNL     1       1.434  15.224  19.289  0.00  0.00    +0.000 A 
ATOM     24  C   UNL     1       0.208  15.759  18.854  0.00  0.00    +0.000 A 
BRANCH  22  25
ATOM     25  N   UNL     1       3.180  15.269  21.061  0.00  0.00    +0.000 N 
ATOM     26  N   UNL     1       3.194  14.307  22.020  0.00  0.00    +0.000 NA
ATOM     27  C   UNL     1       4.502  14.176  22.270  0.00  0.00    +0.000 A 
ATOM     28  C   UNL     1       5.240  15.001  21.421  0.00  0.00    +0.000 A 
ATOM     29  N   UNL     1       4.417  15.637  20.589  0.00  0.00    +0.000 NA
ENDBRANCH  22  25
ENDBRANCH   1  23
TORSDOF 2
ENDMDL
MODEL 8
REMARK VINA RESULT:      -6.3      2.472      6.920
REMARK  Name = 
REMARK  4 active torsions:
REMARK  status: ('A' for Active; 'I' for Inactive)
REMARK    1  A    between atoms: C_1  and  C_2
REMARK    2  A    between atoms: C_5  and  N_6
REMARK    3  A    between atoms: C_11  and  C_12
REMARK    4  A    between atoms: C_23  and  C_24
REMARK                            x       y       z     vdW  Elec       q    Type
REMARK                         _______ _______ _______ _____ _____    ______ ____
ROOT
ATOM      1  C   UNL     1      -1.536  11.757  18.853  0.00  0.00    +0.000 C 
ATOM      2  O   UNL     1      -0.815  12.575  18.287  0.00  0.00    +0.000 OA
ATOM      3  N   UNL     1      -2.690  11.233  18.258  0.00  0.00    +0.000 N 
ATOM      4  C   UNL     1      -3.630  10.264  18.810  0.00  0.00    +0.000 C 
ATOM      5  C   UNL     1      -4.762  10.111  17.803  0.00  0.00    +0.000 C 
ATOM      6  C   UNL     1      -6.116  10.444  18.410  0.00  0.00    +0.000 C 
ATOM      7  N   UNL     1      -6.318  11.847  18.092  0.00  0.00    +0.000 N 
ATOM      8  C   UNL     1      -6.843  12.719  19.019  0.00  0.00    +0.000 A 
ATOM      9  C   UNL     1      -7.098  14.062  18.716  0.00  0.00    +0.000 A 
ATOM     10  N   UNL     1      -7.617  14.968  19.588  0.00  0.00    +0.000 NA
ATOM     11  C   UNL     1      -7.879  14.482  20.808  0.00  0.00    +0.000 A 
ATOM     12  C   UNL     1      -7.652  13.157  21.154  0.00  0.00    +0.000 A 
ATOM     13  C   UNL     1      -7.916  12.668  22.543  0.00  0.00    +0.000 C 
ATOM     14  N   UNL     1      -7.144  12.266  20.260  0.00  0.00    +0.000 NA
ATOM     15  C   UNL     1      -5.452  12.308  17.013  0.00  0.00    +0.000 C 
ATOM     16  C   UNL     1      -4.492  11.154  16.718  0.00  0.00    +0.000 C 
ATOM     17  C   UNL     1      -3.021  11.535  16.881  0.00  0.00    +0.000 C 
ENDROOT
BRANCH   1  23
ATOM     18  C   UNL     1       1.060   8.191  21.024  0.00  0.00    +0.000 C 
ATOM     19  C   UNL     1       0.309   9.472  21.223  0.00  0.00    +0.000 A 
ATOM     20  C   UNL     1      -0.023   9.962  22.477  0.00  0.00    +0.000 A 
ATOM     21  C   UNL     1      -0.820  11.104  22.583  0.00  0.00    +0.000 A 
ATOM     22  C   UNL     1      -1.393  11.709  21.437  0.00  0.00    +0.000 A 
ATOM     23  C   UNL     1      -1.092  11.198  20.168  0.00  0.00    +0.000 A 
ATOM     24  C   UNL     1      -0.144  10.162  20.097  0.00  0.00    +0.000 A 
BRANCH  22  25
ATOM     25  N   UNL     1      -2.259  12.812  21.658  0.00  0.00    +0.000 N 
ATOM     26  N   UNL     1      -1.845  14.105  21.707  0.00  0.00    +0.000 NA
ATOM     27  C   UNL     1      -2.990  14.761  21.926  0.00  0.00    +0.000 A 
ATOM     28  C   UNL     1      -4.062  13.869  21.937  0.00  0.00    +0.000 A 
ATOM     29  N   UNL     1      -3.623  12.637  21.682  0.00  0.00    +0.000 NA
ENDBRANCH  22  25
ENDBRANCH   1  23
TORSDOF 2
ENDMDL
MODEL 9
REMARK VINA RESULT:      -6.2      2.260      7.122
REMARK  Name = 
REMARK  4 active torsions:
REMARK  status: ('A' for Active; 'I' for Inactive)
REMARK    1  A    between atoms: C_1  and  C_2
REMARK    2  A    between atoms: C_5  and  N_6
REMARK    3  A    between atoms: C_11  and  C_12
REMARK    4  A    between atoms: C_23  and  C_24
REMARK                            x       y       z     vdW  Elec       q    Type
REMARK                         _______ _______ _______ _____ _____    ______ ____
ROOT
ATOM      1  C   UNL     1      -0.766  12.484  22.254  0.00  0.00    +0.000 C 
ATOM      2  O   UNL     1      -0.219  11.717  23.042  0.00  0.00    +0.000 OA
ATOM      3  N   UNL     1      -1.522  13.584  22.678  0.00  0.00    +0.000 N 
ATOM      4  C   UNL     1      -2.220  14.568  21.860  0.00  0.00    +0.000 C 
ATOM      5  C   UNL     1      -2.970  15.493  22.809  0.00  0.00    +0.000 C 
ATOM      6  C   UNL     1      -4.465  15.506  22.534  0.00  0.00    +0.000 C 
ATOM      7  N   UNL     1      -5.007  14.505  23.434  0.00  0.00    +0.000 N 
ATOM      8  C   UNL     1      -5.985  13.628  23.020  0.00  0.00    +0.000 A 
ATOM      9  C   UNL     1      -6.560  12.691  23.887  0.00  0.00    +0.000 A 
ATOM     10  N   UNL     1      -7.528  11.803  23.535  0.00  0.00    +0.000 NA
ATOM     11  C   UNL     1      -7.916  11.877  22.256  0.00  0.00    +0.000 A 
ATOM     12  C   UNL     1      -7.382  12.793  21.360  0.00  0.00    +0.000 A 
ATOM     13  C   UNL     1      -7.812  12.809  19.927  0.00  0.00    +0.000 C 
ATOM     14  N   UNL     1      -6.423  13.681  21.738  0.00  0.00    +0.000 NA
ATOM     15  C   UNL     1      -4.091  14.171  24.518  0.00  0.00    +0.000 C 
ATOM     16  C   UNL     1      -2.780  14.894  24.204  0.00  0.00    +0.000 C 
ATOM     17  C   UNL     1      -1.585  13.951  24.078  0.00  0.00    +0.000 C 
ENDROOT
BRANCH   1  23
ATOM     18  C   UNL     1      -2.210  10.177  18.161  0.00  0.00    +0.000 C 
ATOM     19  C   UNL     1      -1.323  11.238  18.736  0.00  0.00    +0.000 A 
ATOM     20  C   UNL     1      -0.319  11.856  18.006  0.00  0.00    +0.000 A 
ATOM     21  C   UNL     1       0.541  12.756  18.640  0.00  0.00    +0.000 A 
ATOM     22  C   UNL     1       0.483  12.966  20.040  0.00  0.00    +0.000 A 
ATOM     23  C   UNL     1      -0.505  12.317  20.791  0.00  0.00    +0.000 A 
ATOM     24  C   UNL     1      -1.461  11.562  20.087  0.00  0.00    +0.000 A 
BRANCH  22  25
ATOM     25  N   UNL     1       1.458  13.833  20.600  0.00  0.00    +0.000 N 
ATOM     26  N   UNL     1       2.627  13.411  21.147  0.00  0.00    +0.000 NA
ATOM     27  C   UNL     1       3.196  14.561  21.523  0.00  0.00    +0.000 A 
ATOM     28  C   UNL     1       2.400  15.641  21.140  0.00  0.00    +0.000 A 
ATOM     29  N   UNL     1       1.334  15.197  20.476  0.00  0.00    +0.000 NA
ENDBRANCH  22  25
ENDBRANCH   1  23
TORSDOF 2
ENDMDL
