MODEL 1
REMARK VINA RESULT:      -8.6      0.000      0.000
REMARK  Name = 
REMARK  5 active torsions:
REMARK  status: ('A' for Active; 'I' for Inactive)
REMARK    1  A    between atoms: C_1  and  O_2
REMARK    2  A    between atoms: O_2  and  C_3
REMARK    3  A    between atoms: C_6  and  C_7
REMARK    4  A    between atoms: C_9  and  C_10
REMARK    5  A    between atoms: C_11  and  O_12
REMARK                            x       y       z     vdW  Elec       q    Type
REMARK                         _______ _______ _______ _____ _____    ______ ____
ROOT
ATOM      1  C   UNL     1       1.384   8.709  19.838  0.00  0.00    +0.000 A 
ATOM      2  C   UNL     1       1.912   7.439  19.937  0.00  0.00    +0.000 A 
ATOM      3  C   UNL     1       2.516   7.145  18.683  0.00  0.00    +0.000 A 
ATOM      4  N   UNL     1       2.299   8.161  17.824  0.00  0.00    +0.000 NA
ATOM      5  N   UNL     1       1.644   9.083  18.549  0.00  0.00    +0.000 N 
ATOM      6  H   UNL     1       1.398   9.960  18.101  0.00  0.00    +0.000 HD
ENDROOT
BRANCH   3   7
ATOM      7  C   UNL     1       3.184   5.902  18.243  0.00  0.00    +0.000 A 
ATOM      8  C   UNL     1       4.368   6.004  17.478  0.00  0.00    +0.000 A 
ATOM      9  C   UNL     1       4.968   4.888  16.910  0.00  0.00    +0.000 A 
ATOM     10  C   UNL     1       4.368   3.643  17.053  0.00  0.00    +0.000 A 
ATOM     11  C   UNL     1       3.197   3.490  17.808  0.00  0.00    +0.000 A 
ATOM     12  C   UNL     1       2.596   2.223  17.892  0.00  0.00    +0.000 A 
ATOM     13  C   UNL     1       1.458   2.013  18.667  0.00  0.00    +0.000 A 
ATOM     14  C   UNL     1       0.943   3.055  19.418  0.00  0.00    +0.000 A 
ATOM     15  C   UNL     1       1.531   4.321  19.340  0.00  0.00    +0.000 A 
ATOM     16  C   UNL     1       2.623   4.605  18.478  0.00  0.00    +0.000 A 
BRANCH   8  17
ATOM     17  O   UNL     1       4.994   7.199  17.222  0.00  0.00    +0.000 OA
ATOM     18  H   UNL     1       4.474   7.631  16.505  0.00  0.00    +0.000 HD
ENDBRANCH   8  17
ENDBRANCH   3   7
BRANCH   1  22
ATOM     19  C   UNL     1      -0.650  11.185  22.669  0.00  0.00    +0.000 A 
ATOM     20  C   UNL     1      -0.143  11.727  21.490  0.00  0.00    +0.000 A 
ATOM     21  C   UNL     1       0.526  10.919  20.567  0.00  0.00    +0.000 A 
ATOM     22  C   UNL     1       0.707   9.553  20.816  0.00  0.00    +0.000 A 
ATOM     23  C   UNL     1       0.226   9.021  22.019  0.00  0.00    +0.000 A 
ATOM     24  C   UNL     1      -0.447   9.830  22.940  0.00  0.00    +0.000 A 
BRANCH  19  26
ATOM     25  C   UNL     1      -1.205  13.434  23.112  0.00  0.00    +0.000 C 
ATOM     26  O   UNL     1      -1.290  12.064  23.493  0.00  0.00    +0.000 OA
ENDBRANCH  19  26
ENDBRANCH   1  22
TORSDOF 4
ENDMDL
MODEL 2
REMARK VINA RESULT:      -8.6      5.386      7.119
REMARK  Name = 
REMARK  5 active torsions:
REMARK  status: ('A' for Active; 'I' for Inactive)
REMARK    1  A    between atoms: C_1  and  O_2
REMARK    2  A    between atoms: O_2  and  C_3
REMARK    3  A    between atoms: C_6  and  C_7
REMARK    4  A    between atoms: C_9  and  C_10
REMARK    5  A    between atoms: C_11  and  O_12
REMARK                            x       y       z     vdW  Elec       q    Type
REMARK                         _______ _______ _______ _____ _____    ______ ____
ROOT
ATOM      1  C   UNL     1       8.237   8.668  18.291  0.00  0.00    +0.000 A 
ATOM      2  C   UNL     1       7.289   8.131  17.445  0.00  0.00    +0.000 A 
ATOM      3  C   UNL     1       7.147   6.761  17.801  0.00  0.00    +0.000 A 
ATOM      4  N   UNL     1       8.028   6.450  18.773  0.00  0.00    +0.000 NA
ATOM      5  N   UNL     1       8.644   7.610  19.056  0.00  0.00    +0.000 N 
ATOM      6  H   UNL     1       9.342   7.616  19.792  0.00  0.00    +0.000 HD
ENDROOT
BRANCH   3   7
ATOM      7  C   UNL     1       6.296   5.724  17.182  0.00  0.00    +0.000 A 
ATOM      8  C   UNL     1       6.609   5.280  15.877  0.00  0.00    +0.000 A 
ATOM      9  C   UNL     1       5.774   4.418  15.179  0.00  0.00    +0.000 A 
ATOM     10  C   UNL     1       4.575   4.015  15.754  0.00  0.00    +0.000 A 
ATOM     11  C   UNL     1       4.223   4.422  17.048  0.00  0.00    +0.000 A 
ATOM     12  C   UNL     1       2.982   4.030  17.576  0.00  0.00    +0.000 A 
ATOM     13  C   UNL     1       2.608   4.373  18.873  0.00  0.00    +0.000 A 
ATOM     14  C   UNL     1       3.500   5.058  19.680  0.00  0.00    +0.000 A 
ATOM     15  C   UNL     1       4.736   5.457  19.165  0.00  0.00    +0.000 A 
ATOM     16  C   UNL     1       5.111   5.225  17.814  0.00  0.00    +0.000 A 
BRANCH   8  17
ATOM     17  O   UNL     1       7.735   5.681  15.200  0.00  0.00    +0.000 OA
ATOM     18  H   UNL     1       8.500   5.340  15.718  0.00  0.00    +0.000 HD
ENDBRANCH   8  17
ENDBRANCH   3   7
BRANCH   1  22
ATOM     19  C   UNL     1       9.783  12.634  18.682  0.00  0.00    +0.000 A 
ATOM     20  C   UNL     1      10.217  11.619  19.531  0.00  0.00    +0.000 A 
ATOM     21  C   UNL     1       9.708  10.323  19.406  0.00  0.00    +0.000 A 
ATOM     22  C   UNL     1       8.746  10.027  18.432  0.00  0.00    +0.000 A 
ATOM     23  C   UNL     1       8.288  11.060  17.606  0.00  0.00    +0.000 A 
ATOM     24  C   UNL     1       8.801  12.356  17.729  0.00  0.00    +0.000 A 
BRANCH  19  26
ATOM     25  C   UNL     1      10.968  14.447  17.750  0.00  0.00    +0.000 C 
ATOM     26  O   UNL     1      10.351  13.858  18.890  0.00  0.00    +0.000 OA
ENDBRANCH  19  26
ENDBRANCH   1  22
TORSDOF 4
ENDMDL
MODEL 3
REMARK VINA RESULT:      -8.5      0.414      1.064
REMARK  Name = 
REMARK  5 active torsions:
REMARK  status: ('A' for Active; 'I' for Inactive)
REMARK    1  A    between atoms: C_1  and  O_2
REMARK    2  A    between atoms: O_2  and  C_3
REMARK    3  A    between atoms: C_6  and  C_7
REMARK    4  A    between atoms: C_9  and  C_10
REMARK    5  A    between atoms: C_11  and  O_12
REMARK                            x       y       z     vdW  Elec       q    Type
REMARK                         _______ _______ _______ _____ _____    ______ ____
ROOT
ATOM      1  C   UNL     1       1.428   8.708  19.719  0.00  0.00    +0.000 A 
ATOM      2  C   UNL     1       1.940   7.432  19.830  0.00  0.00    +0.000 A 
ATOM      3  C   UNL     1       2.599   7.145  18.603  0.00  0.00    +0.000 A 
ATOM      4  N   UNL     1       2.432   8.171  17.745  0.00  0.00    +0.000 NA
ATOM      5  N   UNL     1       1.751   9.092  18.448  0.00  0.00    +0.000 N 
ATOM      6  H   UNL     1       1.534   9.975  17.998  0.00  0.00    +0.000 HD
ENDROOT
BRANCH   3   7
ATOM      7  C   UNL     1       3.277   5.901  18.182  0.00  0.00    +0.000 A 
ATOM      8  C   UNL     1       4.472   6.000  17.433  0.00  0.00    +0.000 A 
ATOM      9  C   UNL     1       5.083   4.881  16.882  0.00  0.00    +0.000 A 
ATOM     10  C   UNL     1       4.485   3.636  17.027  0.00  0.00    +0.000 A 
ATOM     11  C   UNL     1       3.304   3.485  17.766  0.00  0.00    +0.000 A 
ATOM     12  C   UNL     1       2.705   2.217  17.850  0.00  0.00    +0.000 A 
ATOM     13  C   UNL     1       1.556   2.010  18.610  0.00  0.00    +0.000 A 
ATOM     14  C   UNL     1       1.028   3.057  19.346  0.00  0.00    +0.000 A 
ATOM     15  C   UNL     1       1.613   4.324  19.267  0.00  0.00    +0.000 A 
ATOM     16  C   UNL     1       2.717   4.604  18.418  0.00  0.00    +0.000 A 
BRANCH   8  17
ATOM     17  O   UNL     1       5.098   7.195  17.177  0.00  0.00    +0.000 OA
ATOM     18  H   UNL     1       5.176   7.258  16.197  0.00  0.00    +0.000 HD
ENDBRANCH   8  17
ENDBRANCH   3   7
BRANCH   1  22
ATOM     19  C   UNL     1      -0.620  11.172  22.550  0.00  0.00    +0.000 A 
ATOM     20  C   UNL     1      -0.330   9.842  22.848  0.00  0.00    +0.000 A 
ATOM     21  C   UNL     1       0.336   9.036  21.921  0.00  0.00    +0.000 A 
ATOM     22  C   UNL     1       0.712   9.547  20.673  0.00  0.00    +0.000 A 
ATOM     23  C   UNL     1       0.386  10.874  20.366  0.00  0.00    +0.000 A 
ATOM     24  C   UNL     1      -0.276  11.682  21.296  0.00  0.00    +0.000 A 
BRANCH  19  26
ATOM     25  C   UNL     1      -2.632  12.172  23.267  0.00  0.00    +0.000 C 
ATOM     26  O   UNL     1      -1.266  11.867  23.531  0.00  0.00    +0.000 OA
ENDBRANCH  19  26
ENDBRANCH   1  22
TORSDOF 4
ENDMDL
MODEL 4
REMARK VINA RESULT:      -8.3      2.481      8.242
REMARK  Name = 
REMARK  5 active torsions:
REMARK  status: ('A' for Active; 'I' for Inactive)
REMARK    1  A    between atoms: C_1  and  O_2
REMARK    2  A    between atoms: O_2  and  C_3
REMARK    3  A    between atoms: C_6  and  C_7
REMARK    4  A    between atoms: C_9  and  C_10
REMARK    5  A    between atoms: C_11  and  O_12
REMARK                            x       y       z     vdW  Elec       q    Type
REMARK                         _______ _______ _______ _____ _____    ______ ____
ROOT
ATOM      1  C   UNL     1       2.489   7.434  18.730  0.00  0.00    +0.000 A 
ATOM      2  C   UNL     1       1.796   8.567  18.358  0.00  0.00    +0.000 A 
ATOM      3  C   UNL     1       1.161   9.065  19.529  0.00  0.00    +0.000 A 
ATOM      4  N   UNL     1       1.388   8.228  20.561  0.00  0.00    +0.000 NA
ATOM      5  N   UNL     1       2.199   7.283  20.057  0.00  0.00    +0.000 N 
ATOM      6  H   UNL     1       2.526   6.550  20.678  0.00  0.00    +0.000 HD
ENDROOT
BRANCH   3   7
ATOM      7  C   UNL     1       0.263  10.230  19.674  0.00  0.00    +0.000 A 
ATOM      8  C   UNL     1       0.434  11.083  20.789  0.00  0.00    +0.000 A 
ATOM      9  C   UNL     1      -0.460  12.108  21.067  0.00  0.00    +0.000 A 
ATOM     10  C   UNL     1      -1.578  12.276  20.261  0.00  0.00    +0.000 A 
ATOM     11  C   UNL     1      -1.789  11.461  19.141  0.00  0.00    +0.000 A 
ATOM     12  C   UNL     1      -2.956  11.632  18.378  0.00  0.00    +0.000 A 
ATOM     13  C   UNL     1      -3.187  10.876  17.231  0.00  0.00    +0.000 A 
ATOM     14  C   UNL     1      -2.222   9.982  16.799  0.00  0.00    +0.000 A 
ATOM     15  C   UNL     1      -1.059   9.801  17.551  0.00  0.00    +0.000 A 
ATOM     16  C   UNL     1      -0.835  10.469  18.785  0.00  0.00    +0.000 A 
BRANCH   8  17
ATOM     17  O   UNL     1       1.469  10.949  21.681  0.00  0.00    +0.000 OA
ATOM     18  H   UNL     1       2.271  10.754  21.142  0.00  0.00    +0.000 HD
ENDBRANCH   8  17
ENDBRANCH   3   7
BRANCH   1  22
ATOM     19  C   UNL     1       5.008   4.817  16.476  0.00  0.00    +0.000 A 
ATOM     20  C   UNL     1       4.006   4.303  17.295  0.00  0.00    +0.000 A 
ATOM     21  C   UNL     1       3.186   5.158  18.035  0.00  0.00    +0.000 A 
ATOM     22  C   UNL     1       3.364   6.546  17.974  0.00  0.00    +0.000 A 
ATOM     23  C   UNL     1       4.396   7.054  17.176  0.00  0.00    +0.000 A 
ATOM     24  C   UNL     1       5.213   6.197  16.432  0.00  0.00    +0.000 A 
BRANCH  19  26
ATOM     25  C   UNL     1       6.076   4.239  14.454  0.00  0.00    +0.000 C 
ATOM     26  O   UNL     1       5.744   3.891  15.794  0.00  0.00    +0.000 OA
ENDBRANCH  19  26
ENDBRANCH   1  22
TORSDOF 4
ENDMDL
MODEL 5
REMARK VINA RESULT:      -8.2      2.530      8.158
REMARK  Name = 
REMARK  5 active torsions:
REMARK  status: ('A' for Active; 'I' for Inactive)
REMARK    1  A    between atoms: C_1  and  O_2
REMARK    2  A    between atoms: O_2  and  C_3
REMARK    3  A    between atoms: C_6  and  C_7
REMARK    4  A    between atoms: C_9  and  C_10
REMARK    5  A    between atoms: C_11  and  O_12
REMARK                            x       y       z     vdW  Elec       q    Type
REMARK                         _______ _______ _______ _____ _____    ______ ____
ROOT
ATOM      1  C   UNL     1       2.478   7.408  18.657  0.00  0.00    +0.000 A 
ATOM      2  C   UNL     1       1.757   8.513  18.254  0.00  0.00    +0.000 A 
ATOM      3  C   UNL     1       1.140   9.049  19.418  0.00  0.00    +0.000 A 
ATOM      4  N   UNL     1       1.406   8.260  20.479  0.00  0.00    +0.000 NA
ATOM      5  N   UNL     1       2.222   7.308  19.996  0.00  0.00    +0.000 N 
ATOM      6  H   UNL     1       2.575   6.607  20.639  0.00  0.00    +0.000 HD
ENDROOT
BRANCH   3   7
ATOM      7  C   UNL     1       0.226  10.204  19.537  0.00  0.00    +0.000 A 
ATOM      8  C   UNL     1       0.402  11.101  20.615  0.00  0.00    +0.000 A 
ATOM      9  C   UNL     1      -0.503  12.122  20.871  0.00  0.00    +0.000 A 
ATOM     10  C   UNL     1      -1.638  12.242  20.079  0.00  0.00    +0.000 A 
ATOM     11  C   UNL     1      -1.854  11.382  18.994  0.00  0.00    +0.000 A 
ATOM     12  C   UNL     1      -3.036  11.507  18.245  0.00  0.00    +0.000 A 
ATOM     13  C   UNL     1      -3.274  10.705  17.131  0.00  0.00    +0.000 A 
ATOM     14  C   UNL     1      -2.302   9.812  16.715  0.00  0.00    +0.000 A 
ATOM     15  C   UNL     1      -1.123   9.676  17.454  0.00  0.00    +0.000 A 
ATOM     16  C   UNL     1      -0.890  10.393  18.658  0.00  0.00    +0.000 A 
BRANCH   8  17
ATOM     17  O   UNL     1       1.454  11.017  21.494  0.00  0.00    +0.000 OA
ATOM     18  H   UNL     1       2.183  11.548  21.099  0.00  0.00    +0.000 HD
ENDBRANCH   8  17
ENDBRANCH   3   7
BRANCH   1  22
ATOM     19  C   UNL     1       5.080   4.765  16.531  0.00  0.00    +0.000 A 
ATOM     20  C   UNL     1       5.267   6.143  16.468  0.00  0.00    +0.000 A 
ATOM     21  C   UNL     1       4.413   7.008  17.160  0.00  0.00    +0.000 A 
ATOM     22  C   UNL     1       3.350   6.503  17.918  0.00  0.00    +0.000 A 
ATOM     23  C   UNL     1       3.146   5.118  17.948  0.00  0.00    +0.000 A 
ATOM     24  C   UNL     1       4.004   4.253  17.260  0.00  0.00    +0.000 A 
BRANCH  19  26
ATOM     25  C   UNL     1       6.916   4.756  15.051  0.00  0.00    +0.000 C 
ATOM     26  O   UNL     1       5.976   4.017  15.824  0.00  0.00    +0.000 OA
ENDBRANCH  19  26
ENDBRANCH   1  22
TORSDOF 4
ENDMDL
MODEL 6
REMARK VINA RESULT:      -8.0      1.466      2.964
REMARK  Name = 
REMARK  5 active torsions:
REMARK  status: ('A' for Active; 'I' for Inactive)
REMARK    1  A    between atoms: C_1  and  O_2
REMARK    2  A    between atoms: O_2  and  C_3
REMARK    3  A    between atoms: C_6  and  C_7
REMARK    4  A    between atoms: C_9  and  C_10
REMARK    5  A    between atoms: C_11  and  O_12
REMARK                            x       y       z     vdW  Elec       q    Type
REMARK                         _______ _______ _______ _____ _____    ______ ____
ROOT
ATOM      1  C   UNL     1       1.501   8.536  19.598  0.00  0.00    +0.000 A 
ATOM      2  C   UNL     1       2.097   7.292  19.619  0.00  0.00    +0.000 A 
ATOM      3  C   UNL     1       2.654   7.079  18.328  0.00  0.00    +0.000 A 
ATOM      4  N   UNL     1       2.345   8.115  17.522  0.00  0.00    +0.000 NA
ATOM      5  N   UNL     1       1.679   8.973  18.314  0.00  0.00    +0.000 N 
ATOM      6  H   UNL     1       1.368   9.851  17.915  0.00  0.00    +0.000 HD
ENDROOT
BRANCH   3   7
ATOM      7  C   UNL     1       3.362   5.892  17.807  0.00  0.00    +0.000 A 
ATOM      8  C   UNL     1       2.639   4.688  17.643  0.00  0.00    +0.000 A 
ATOM      9  C   UNL     1       3.268   3.500  17.297  0.00  0.00    +0.000 A 
ATOM     10  C   UNL     1       4.649   3.475  17.152  0.00  0.00    +0.000 A 
ATOM     11  C   UNL     1       5.409   4.643  17.297  0.00  0.00    +0.000 A 
ATOM     12  C   UNL     1       6.808   4.569  17.188  0.00  0.00    +0.000 A 
ATOM     13  C   UNL     1       7.602   5.710  17.280  0.00  0.00    +0.000 A 
ATOM     14  C   UNL     1       7.001   6.949  17.418  0.00  0.00    +0.000 A 
ATOM     15  C   UNL     1       5.610   7.035  17.532  0.00  0.00    +0.000 A 
ATOM     16  C   UNL     1       4.773   5.888  17.555  0.00  0.00    +0.000 A 
BRANCH   8  17
ATOM     17  O   UNL     1       1.282   4.599  17.835  0.00  0.00    +0.000 OA
ATOM     18  H   UNL     1       0.994   3.780  17.369  0.00  0.00    +0.000 HD
ENDBRANCH   8  17
ENDBRANCH   3   7
BRANCH   1  22
ATOM     19  C   UNL     1      -0.521  10.772  22.629  0.00  0.00    +0.000 A 
ATOM     20  C   UNL     1      -0.460  11.247  21.321  0.00  0.00    +0.000 A 
ATOM     21  C   UNL     1       0.204  10.518  20.331  0.00  0.00    +0.000 A 
ATOM     22  C   UNL     1       0.830   9.304  20.640  0.00  0.00    +0.000 A 
ATOM     23  C   UNL     1       0.797   8.850  21.964  0.00  0.00    +0.000 A 
ATOM     24  C   UNL     1       0.127   9.578  22.953  0.00  0.00    +0.000 A 
BRANCH  19  26
ATOM     25  C   UNL     1      -2.454  12.055  23.050  0.00  0.00    +0.000 C 
ATOM     26  O   UNL     1      -1.201  11.561  23.511  0.00  0.00    +0.000 OA
ENDBRANCH  19  26
ENDBRANCH   1  22
TORSDOF 4
ENDMDL
MODEL 7
REMARK VINA RESULT:      -8.0      7.345     10.669
REMARK  Name = 
REMARK  5 active torsions:
REMARK  status: ('A' for Active; 'I' for Inactive)
REMARK    1  A    between atoms: C_1  and  O_2
REMARK    2  A    between atoms: O_2  and  C_3
REMARK    3  A    between atoms: C_6  and  C_7
REMARK    4  A    between atoms: C_9  and  C_10
REMARK    5  A    between atoms: C_11  and  O_12
REMARK                            x       y       z     vdW  Elec       q    Type
REMARK                         _______ _______ _______ _____ _____    ______ ____
ROOT
ATOM      1  C   UNL     1       8.526   9.097  18.343  0.00  0.00    +0.000 A 
ATOM      2  C   UNL     1       8.748  10.190  17.532  0.00  0.00    +0.000 A 
ATOM      3  C   UNL     1       9.552  11.098  18.274  0.00  0.00    +0.000 A 
ATOM      4  N   UNL     1       9.749  10.619  19.519  0.00  0.00    +0.000 NA
ATOM      5  N   UNL     1       9.146   9.418  19.519  0.00  0.00    +0.000 N 
ATOM      6  H   UNL     1       9.193   8.858  20.363  0.00  0.00    +0.000 HD
ENDROOT
BRANCH   3   7
ATOM      7  C   UNL     1      10.037  12.439  17.887  0.00  0.00    +0.000 A 
ATOM      8  C   UNL     1      11.415  12.611  17.622  0.00  0.00    +0.000 A 
ATOM      9  C   UNL     1      11.964  13.866  17.394  0.00  0.00    +0.000 A 
ATOM     10  C   UNL     1      11.152  14.991  17.475  0.00  0.00    +0.000 A 
ATOM     11  C   UNL     1       9.779  14.872  17.729  0.00  0.00    +0.000 A 
ATOM     12  C   UNL     1       9.001  16.035  17.848  0.00  0.00    +0.000 A 
ATOM     13  C   UNL     1       7.625  15.966  18.055  0.00  0.00    +0.000 A 
ATOM     14  C   UNL     1       7.001  14.731  18.081  0.00  0.00    +0.000 A 
ATOM     15  C   UNL     1       7.766  13.566  17.967  0.00  0.00    +0.000 A 
ATOM     16  C   UNL     1       9.183  13.589  17.867  0.00  0.00    +0.000 A 
BRANCH   8  17
ATOM     17  O   UNL     1      12.307  11.568  17.592  0.00  0.00    +0.000 OA
ATOM     18  H   UNL     1      13.197  11.973  17.474  0.00  0.00    +0.000 HD
ENDBRANCH   8  17
ENDBRANCH   3   7
BRANCH   1  22
ATOM     19  C   UNL     1       6.447   5.419  17.687  0.00  0.00    +0.000 A 
ATOM     20  C   UNL     1       7.485   5.490  18.613  0.00  0.00    +0.000 A 
ATOM     21  C   UNL     1       8.167   6.691  18.824  0.00  0.00    +0.000 A 
ATOM     22  C   UNL     1       7.826   7.841  18.101  0.00  0.00    +0.000 A 
ATOM     23  C   UNL     1       6.806   7.754  17.146  0.00  0.00    +0.000 A 
ATOM     24  C   UNL     1       6.120   6.552  16.939  0.00  0.00    +0.000 A 
BRANCH  19  26
ATOM     25  C   UNL     1       4.778   3.951  18.475  0.00  0.00    +0.000 C 
ATOM     26  O   UNL     1       5.847   4.199  17.568  0.00  0.00    +0.000 OA
ENDBRANCH  19  26
ENDBRANCH   1  22
TORSDOF 4
ENDMDL
MODEL 8
REMARK VINA RESULT:      -7.8      2.674      3.788
REMARK  Name = 
REMARK  5 active torsions:
REMARK  status: ('A' for Active; 'I' for Inactive)
REMARK    1  A    between atoms: C_1  and  O_2
REMARK    2  A    between atoms: O_2  and  C_3
REMARK    3  A    between atoms: C_6  and  C_7
REMARK    4  A    between atoms: C_9  and  C_10
REMARK    5  A    between atoms: C_11  and  O_12
REMARK                            x       y       z     vdW  Elec       q    Type
REMARK                         _______ _______ _______ _____ _____    ______ ____
ROOT
ATOM      1  C   UNL     1       1.611   8.986  18.769  0.00  0.00    +0.000 A 
ATOM      2  C   UNL     1       2.179   8.191  17.795  0.00  0.00    +0.000 A 
ATOM      3  C   UNL     1       2.541   6.967  18.421  0.00  0.00    +0.000 A 
ATOM      4  N   UNL     1       2.279   7.036  19.741  0.00  0.00    +0.000 NA
ATOM      5  N   UNL     1       1.706   8.239  19.910  0.00  0.00    +0.000 N 
ATOM      6  H   UNL     1       1.397   8.497  20.841  0.00  0.00    +0.000 HD
ENDROOT
BRANCH   3   7
ATOM      7  C   UNL     1       3.222   5.792  17.838  0.00  0.00    +0.000 A 
ATOM      8  C   UNL     1       2.504   4.580  17.720  0.00  0.00    +0.000 A 
ATOM      9  C   UNL     1       3.120   3.403  17.319  0.00  0.00    +0.000 A 
ATOM     10  C   UNL     1       4.486   3.397  17.070  0.00  0.00    +0.000 A 
ATOM     11  C   UNL     1       5.241   4.574  17.166  0.00  0.00    +0.000 A 
ATOM     12  C   UNL     1       6.628   4.518  16.951  0.00  0.00    +0.000 A 
ATOM     13  C   UNL     1       7.412   5.669  16.992  0.00  0.00    +0.000 A 
ATOM     14  C   UNL     1       6.808   6.899  17.185  0.00  0.00    +0.000 A 
ATOM     15  C   UNL     1       5.429   6.967  17.403  0.00  0.00    +0.000 A 
ATOM     16  C   UNL     1       4.610   5.809  17.481  0.00  0.00    +0.000 A 
BRANCH   8  17
ATOM     17  O   UNL     1       1.166   4.472  18.013  0.00  0.00    +0.000 OA
ATOM     18  H   UNL     1       0.746   4.064  17.221  0.00  0.00    +0.000 HD
ENDBRANCH   8  17
ENDBRANCH   3   7
BRANCH   1  22
ATOM     19  C   UNL     1      -0.142  12.877  18.518  0.00  0.00    +0.000 A 
ATOM     20  C   UNL     1       1.242  12.726  18.558  0.00  0.00    +0.000 A 
ATOM     21  C   UNL     1       1.815  11.454  18.644  0.00  0.00    +0.000 A 
ATOM     22  C   UNL     1       1.007  10.311  18.703  0.00  0.00    +0.000 A 
ATOM     23  C   UNL     1      -0.384  10.473  18.699  0.00  0.00    +0.000 A 
ATOM     24  C   UNL     1      -0.956  11.746  18.608  0.00  0.00    +0.000 A 
BRANCH  19  26
ATOM     25  C   UNL     1       0.148  15.124  19.174  0.00  0.00    +0.000 C 
ATOM     26  O   UNL     1      -0.591  14.163  18.427  0.00  0.00    +0.000 OA
ENDBRANCH  19  26
ENDBRANCH   1  22
TORSDOF 4
ENDMDL
MODEL 9
REMARK VINA RESULT:      -7.7      2.842      7.940
REMARK  Name = 
REMARK  5 active torsions:
REMARK  status: ('A' for Active; 'I' for Inactive)
REMARK    1  A    between atoms: C_1  and  O_2
REMARK    2  A    between atoms: O_2  and  C_3
REMARK    3  A    between atoms: C_6  and  C_7
REMARK    4  A    between atoms: C_9  and  C_10
REMARK    5  A    between atoms: C_11  and  O_12
REMARK                            x       y       z     vdW  Elec       q    Type
REMARK                         _______ _______ _______ _____ _____    ______ ____
ROOT
ATOM      1  C   UNL     1       2.239   7.939  18.606  0.00  0.00    +0.000 A 
ATOM      2  C   UNL     1       1.155   8.550  19.199  0.00  0.00    +0.000 A 
ATOM      3  C   UNL     1       0.992   9.810  18.561  0.00  0.00    +0.000 A 
ATOM      4  N   UNL     1       1.983  10.000  17.668  0.00  0.00    +0.000 NA
ATOM      5  N   UNL     1       2.693   8.860  17.703  0.00  0.00    +0.000 N 
ATOM      6  H   UNL     1       3.487   8.770  17.079  0.00  0.00    +0.000 HD
ENDROOT
BRANCH   3   7
ATOM      7  C   UNL     1       0.008  10.876  18.847  0.00  0.00    +0.000 A 
ATOM      8  C   UNL     1       0.373  11.917  19.731  0.00  0.00    +0.000 A 
ATOM      9  C   UNL     1      -0.545  12.868  20.157  0.00  0.00    +0.000 A 
ATOM     10  C   UNL     1      -1.868  12.773  19.745  0.00  0.00    +0.000 A 
ATOM     11  C   UNL     1      -2.277  11.763  18.863  0.00  0.00    +0.000 A 
ATOM     12  C   UNL     1      -3.633  11.673  18.506  0.00  0.00    +0.000 A 
ATOM     13  C   UNL     1      -4.079  10.715  17.599  0.00  0.00    +0.000 A 
ATOM     14  C   UNL     1      -3.163   9.875  16.989  0.00  0.00    +0.000 A 
ATOM     15  C   UNL     1      -1.812   9.953  17.339  0.00  0.00    +0.000 A 
ATOM     16  C   UNL     1      -1.332  10.839  18.341  0.00  0.00    +0.000 A 
BRANCH   8  17
ATOM     17  O   UNL     1       1.638  12.051  20.247  0.00  0.00    +0.000 OA
ATOM     18  H   UNL     1       1.612  12.842  20.833  0.00  0.00    +0.000 HD
ENDBRANCH   8  17
ENDBRANCH   3   7
BRANCH   1  22
ATOM     19  C   UNL     1       3.933   4.054  19.171  0.00  0.00    +0.000 A 
ATOM     20  C   UNL     1       2.980   4.547  20.059  0.00  0.00    +0.000 A 
ATOM     21  C   UNL     1       2.429   5.818  19.877  0.00  0.00    +0.000 A 
ATOM     22  C   UNL     1       2.835   6.623  18.805  0.00  0.00    +0.000 A 
ATOM     23  C   UNL     1       3.820   6.136  17.937  0.00  0.00    +0.000 A 
ATOM     24  C   UNL     1       4.366   4.861  18.117  0.00  0.00    +0.000 A 
BRANCH  19  26
ATOM     25  C   UNL     1       3.692   1.737  18.808  0.00  0.00    +0.000 C 
ATOM     26  O   UNL     1       4.396   2.799  19.442  0.00  0.00    +0.000 OA
ENDBRANCH  19  26
ENDBRANCH   1  22
TORSDOF 4
ENDMDL
