MODEL 1
REMARK VINA RESULT:      -7.0      0.000      0.000
REMARK  Name = 
REMARK  6 active torsions:
REMARK  status: ('A' for Active; 'I' for Inactive)
REMARK    1  A    between atoms: C_2  and  C_3
REMARK    2  A    between atoms: C_6  and  O_7
REMARK    3  A    between atoms: N_10  and  C_11
REMARK    4  A    between atoms: N_10  and  C_17
REMARK    5  A    between atoms: C_11  and  C_12
REMARK    6  A    between atoms: C_17  and  C_18
REMARK                            x       y       z     vdW  Elec       q    Type
REMARK                         _______ _______ _______ _____ _____    ______ ____
ROOT
ATOM      1  O   UNL     1       5.079   6.767  18.042  0.00  0.00    +0.000 OA
ATOM      2  C   UNL     1       3.950   6.308  18.222  0.00  0.00    +0.000 C 
ATOM      3  N   UNL     1       3.682   4.939  18.103  0.00  0.00    +0.000 N 
ENDROOT
BRANCH   2   4
ATOM      4  C   UNL     1       2.894   7.308  18.526  0.00  0.00    +0.000 A 
ATOM      5  C   UNL     1       2.571   8.273  17.564  0.00  0.00    +0.000 A 
ATOM      6  C   UNL     1       1.639   9.271  17.860  0.00  0.00    +0.000 A 
ATOM      7  C   UNL     1       1.056   9.268  19.112  0.00  0.00    +0.000 A 
ATOM      8  N   UNL     1       1.358   8.381  20.073  0.00  0.00    +0.000 NA
ATOM      9  C   UNL     1       2.296   7.449  19.768  0.00  0.00    +0.000 A 
BRANCH   7  10
ATOM     10  O   UNL     1       0.134  10.199  19.479  0.00  0.00    +0.000 OA
ATOM     11  H   UNL     1       0.011  10.806  18.736  0.00  0.00    +0.000 HD
ENDBRANCH   7  10
ENDBRANCH   2   4
BRANCH   3  12
ATOM     12  C   UNL     1       2.361   4.305  18.134  0.00  0.00    +0.000 C 
BRANCH  12  13
ATOM     13  C   UNL     1       2.033   3.715  19.471  0.00  0.00    +0.000 A 
ATOM     14  C   UNL     1       0.980   2.933  19.904  0.00  0.00    +0.000 A 
ATOM     15  C   UNL     1       1.099   2.830  21.311  0.00  0.00    +0.000 A 
ATOM     16  C   UNL     1       2.233   3.527  21.651  0.00  0.00    +0.000 A 
ATOM     17  O   UNL     1       2.820   4.048  20.542  0.00  0.00    +0.000 OA
ENDBRANCH  12  13
ENDBRANCH   3  12
BRANCH   3  18
ATOM     18  C   UNL     1       4.824   4.040  17.922  0.00  0.00    +0.000 C 
BRANCH  18  19
ATOM     19  C   UNL     1       5.456   4.209  16.564  0.00  0.00    +0.000 A 
ATOM     20  C   UNL     1       4.854   4.181  15.317  0.00  0.00    +0.000 A 
ATOM     21  C   UNL     1       5.757   4.511  14.262  0.00  0.00    +0.000 A 
ATOM     22  C   UNL     1       7.024   4.767  14.734  0.00  0.00    +0.000 A 
ATOM     23  S   UNL     1       7.126   4.586  16.429  0.00  0.00    +0.000 S 
ENDBRANCH  18  19
ENDBRANCH   3  18
TORSDOF 6
ENDMDL
MODEL 2
REMARK VINA RESULT:      -7.0      2.653      5.526
REMARK  Name = 
REMARK  6 active torsions:
REMARK  status: ('A' for Active; 'I' for Inactive)
REMARK    1  A    between atoms: C_2  and  C_3
REMARK    2  A    between atoms: C_6  and  O_7
REMARK    3  A    between atoms: N_10  and  C_11
REMARK    4  A    between atoms: N_10  and  C_17
REMARK    5  A    between atoms: C_11  and  C_12
REMARK    6  A    between atoms: C_17  and  C_18
REMARK                            x       y       z     vdW  Elec       q    Type
REMARK                         _______ _______ _______ _____ _____    ______ ____
ROOT
ATOM      1  O   UNL     1       3.382   7.407  17.564  0.00  0.00    +0.000 OA
ATOM      2  C   UNL     1       4.146   6.477  17.824  0.00  0.00    +0.000 C 
ATOM      3  N   UNL     1       4.062   5.767  19.028  0.00  0.00    +0.000 N 
ENDROOT
BRANCH   2   4
ATOM      4  C   UNL     1       5.183   6.195  16.799  0.00  0.00    +0.000 A 
ATOM      5  C   UNL     1       4.839   5.442  15.669  0.00  0.00    +0.000 A 
ATOM      6  C   UNL     1       5.817   5.097  14.733  0.00  0.00    +0.000 A 
ATOM      7  C   UNL     1       7.112   5.521  14.958  0.00  0.00    +0.000 A 
ATOM      8  N   UNL     1       7.492   6.218  16.040  0.00  0.00    +0.000 NA
ATOM      9  C   UNL     1       6.526   6.502  16.950  0.00  0.00    +0.000 A 
BRANCH   7  10
ATOM     10  O   UNL     1       8.123   5.235  14.094  0.00  0.00    +0.000 OA
ATOM     11  H   UNL     1       8.882   5.788  14.328  0.00  0.00    +0.000 HD
ENDBRANCH   7  10
ENDBRANCH   2   4
BRANCH   3  12
ATOM     12  C   UNL     1       5.011   4.760  19.513  0.00  0.00    +0.000 C 
BRANCH  12  13
ATOM     13  C   UNL     1       4.649   3.371  19.084  0.00  0.00    +0.000 A 
ATOM     14  C   UNL     1       4.030   2.885  17.949  0.00  0.00    +0.000 A 
ATOM     15  C   UNL     1       3.785   1.508  18.175  0.00  0.00    +0.000 A 
ATOM     16  C   UNL     1       4.296   1.228  19.420  0.00  0.00    +0.000 A 
ATOM     17  O   UNL     1       4.842   2.344  19.971  0.00  0.00    +0.000 OA
ENDBRANCH  12  13
ENDBRANCH   3  12
BRANCH   3  18
ATOM     18  C   UNL     1       2.925   6.054  19.905  0.00  0.00    +0.000 C 
BRANCH  18  19
ATOM     19  C   UNL     1       2.092   4.822  20.159  0.00  0.00    +0.000 A 
ATOM     20  C   UNL     1       1.222   4.172  19.301  0.00  0.00    +0.000 A 
ATOM     21  C   UNL     1       0.710   2.959  19.850  0.00  0.00    +0.000 A 
ATOM     22  C   UNL     1       1.194   2.727  21.118  0.00  0.00    +0.000 A 
ATOM     23  S   UNL     1       2.236   3.974  21.645  0.00  0.00    +0.000 S 
ENDBRANCH  18  19
ENDBRANCH   3  18
TORSDOF 6
ENDMDL
MODEL 3
REMARK VINA RESULT:      -6.9      2.388      6.158
REMARK  Name = 
REMARK  6 active torsions:
REMARK  status: ('A' for Active; 'I' for Inactive)
REMARK    1  A    between atoms: C_2  and  C_3
REMARK    2  A    between atoms: C_6  and  O_7
REMARK    3  A    between atoms: N_10  and  C_11
REMARK    4  A    between atoms: N_10  and  C_17
REMARK    5  A    between atoms: C_11  and  C_12
REMARK    6  A    between atoms: C_17  and  C_18
REMARK                            x       y       z     vdW  Elec       q    Type
REMARK                         _______ _______ _______ _____ _____    ______ ____
ROOT
ATOM      1  O   UNL     1       5.620   4.333  19.241  0.00  0.00    +0.000 OA
ATOM      2  C   UNL     1       5.039   5.009  18.392  0.00  0.00    +0.000 C 
ATOM      3  N   UNL     1       3.816   5.638  18.658  0.00  0.00    +0.000 N 
ENDROOT
BRANCH   2   4
ATOM      4  C   UNL     1       5.699   5.073  17.062  0.00  0.00    +0.000 A 
ATOM      5  C   UNL     1       5.286   4.195  16.052  0.00  0.00    +0.000 A 
ATOM      6  C   UNL     1       5.948   4.183  14.822  0.00  0.00    +0.000 A 
ATOM      7  C   UNL     1       7.003   5.055  14.641  0.00  0.00    +0.000 A 
ATOM      8  N   UNL     1       7.451   5.892  15.591  0.00  0.00    +0.000 NA
ATOM      9  C   UNL     1       6.813   5.850  16.787  0.00  0.00    +0.000 A 
BRANCH   7  10
ATOM     10  O   UNL     1       7.696   5.114  13.472  0.00  0.00    +0.000 OA
ATOM     11  H   UNL     1       7.324   4.454  12.871  0.00  0.00    +0.000 HD
ENDBRANCH   7  10
ENDBRANCH   2   4
BRANCH   3  12
ATOM     12  C   UNL     1       2.962   6.327  17.686  0.00  0.00    +0.000 C 
BRANCH  12  13
ATOM     13  C   UNL     1       2.465   7.648  18.187  0.00  0.00    +0.000 A 
ATOM     14  C   UNL     1       1.865   8.020  19.373  0.00  0.00    +0.000 A 
ATOM     15  C   UNL     1       1.444   9.364  19.214  0.00  0.00    +0.000 A 
ATOM     16  C   UNL     1       1.840   9.741  17.953  0.00  0.00    +0.000 A 
ATOM     17  O   UNL     1       2.479   8.717  17.330  0.00  0.00    +0.000 OA
ENDBRANCH  12  13
ENDBRANCH   3  12
BRANCH   3  18
ATOM     18  C   UNL     1       3.326   5.606  20.037  0.00  0.00    +0.000 C 
BRANCH  18  19
ATOM     19  C   UNL     1       2.529   4.356  20.317  0.00  0.00    +0.000 A 
ATOM     20  C   UNL     1       2.290   3.733  21.530  0.00  0.00    +0.000 A 
ATOM     21  C   UNL     1       1.379   2.640  21.418  0.00  0.00    +0.000 A 
ATOM     22  C   UNL     1       0.962   2.453  20.120  0.00  0.00    +0.000 A 
ATOM     23  S   UNL     1       1.682   3.569  19.047  0.00  0.00    +0.000 S 
ENDBRANCH  18  19
ENDBRANCH   3  18
TORSDOF 6
ENDMDL
MODEL 4
REMARK VINA RESULT:      -6.9      2.894      5.615
REMARK  Name = 
REMARK  6 active torsions:
REMARK  status: ('A' for Active; 'I' for Inactive)
REMARK    1  A    between atoms: C_2  and  C_3
REMARK    2  A    between atoms: C_6  and  O_7
REMARK    3  A    between atoms: N_10  and  C_11
REMARK    4  A    between atoms: N_10  and  C_17
REMARK    5  A    between atoms: C_11  and  C_12
REMARK    6  A    between atoms: C_17  and  C_18
REMARK                            x       y       z     vdW  Elec       q    Type
REMARK                         _______ _______ _______ _____ _____    ______ ____
ROOT
ATOM      1  O   UNL     1       5.242   4.272  16.519  0.00  0.00    +0.000 OA
ATOM      2  C   UNL     1       5.109   5.021  17.487  0.00  0.00    +0.000 C 
ATOM      3  N   UNL     1       4.010   4.924  18.349  0.00  0.00    +0.000 N 
ENDROOT
BRANCH   2   4
ATOM      4  C   UNL     1       6.163   6.054  17.647  0.00  0.00    +0.000 A 
ATOM      5  C   UNL     1       7.177   5.855  18.593  0.00  0.00    +0.000 A 
ATOM      6  C   UNL     1       8.131   6.850  18.816  0.00  0.00    +0.000 A 
ATOM      7  C   UNL     1       8.043   8.015  18.080  0.00  0.00    +0.000 A 
ATOM      8  N   UNL     1       7.072   8.260  17.186  0.00  0.00    +0.000 NA
ATOM      9  C   UNL     1       6.137   7.291  17.022  0.00  0.00    +0.000 A 
BRANCH   7  10
ATOM     10  O   UNL     1       8.935   9.031  18.230  0.00  0.00    +0.000 OA
ATOM     11  H   UNL     1       9.797   8.718  17.921  0.00  0.00    +0.000 HD
ENDBRANCH   7  10
ENDBRANCH   2   4
BRANCH   3  12
ATOM     12  C   UNL     1       3.664   5.855  19.427  0.00  0.00    +0.000 C 
BRANCH  12  13
ATOM     13  C   UNL     1       2.792   6.981  18.963  0.00  0.00    +0.000 A 
ATOM     14  C   UNL     1       2.613   7.561  17.722  0.00  0.00    +0.000 A 
ATOM     15  C   UNL     1       1.802   8.705  17.919  0.00  0.00    +0.000 A 
ATOM     16  C   UNL     1       1.507   8.738  19.262  0.00  0.00    +0.000 A 
ATOM     17  O   UNL     1       2.083   7.686  19.900  0.00  0.00    +0.000 OA
ENDBRANCH  12  13
ENDBRANCH   3  12
BRANCH   3  18
ATOM     18  C   UNL     1       3.102   3.790  18.163  0.00  0.00    +0.000 C 
BRANCH  18  19
ATOM     19  C   UNL     1       2.614   3.244  19.482  0.00  0.00    +0.000 A 
ATOM     20  C   UNL     1       3.338   2.614  20.480  0.00  0.00    +0.000 A 
ATOM     21  C   UNL     1       2.558   2.352  21.645  0.00  0.00    +0.000 A 
ATOM     22  C   UNL     1       1.257   2.777  21.496  0.00  0.00    +0.000 A 
ATOM     23  S   UNL     1       0.979   3.462  19.956  0.00  0.00    +0.000 S 
ENDBRANCH  18  19
ENDBRANCH   3  18
TORSDOF 6
ENDMDL
MODEL 5
REMARK VINA RESULT:      -6.8      2.468      5.445
REMARK  Name = 
REMARK  6 active torsions:
REMARK  status: ('A' for Active; 'I' for Inactive)
REMARK    1  A    between atoms: C_2  and  C_3
REMARK    2  A    between atoms: C_6  and  O_7
REMARK    3  A    between atoms: N_10  and  C_11
REMARK    4  A    between atoms: N_10  and  C_17
REMARK    5  A    between atoms: C_11  and  C_12
REMARK    6  A    between atoms: C_17  and  C_18
REMARK                            x       y       z     vdW  Elec       q    Type
REMARK                         _______ _______ _______ _____ _____    ______ ____
ROOT
ATOM      1  O   UNL     1       5.487   6.857  18.394  0.00  0.00    +0.000 OA
ATOM      2  C   UNL     1       4.714   6.023  17.921  0.00  0.00    +0.000 C 
ATOM      3  N   UNL     1       3.478   5.743  18.515  0.00  0.00    +0.000 N 
ENDROOT
BRANCH   2   4
ATOM      4  C   UNL     1       5.202   5.310  16.713  0.00  0.00    +0.000 A 
ATOM      5  C   UNL     1       5.246   5.991  15.490  0.00  0.00    +0.000 A 
ATOM      6  C   UNL     1       5.625   5.316  14.327  0.00  0.00    +0.000 A 
ATOM      7  C   UNL     1       5.952   3.977  14.427  0.00  0.00    +0.000 A 
ATOM      8  N   UNL     1       5.895   3.279  15.572  0.00  0.00    +0.000 NA
ATOM      9  C   UNL     1       5.484   3.954  16.675  0.00  0.00    +0.000 A 
BRANCH   7  10
ATOM     10  O   UNL     1       6.338   3.248  13.345  0.00  0.00    +0.000 OA
ATOM     11  H   UNL     1       5.571   2.750  13.031  0.00  0.00    +0.000 HD
ENDBRANCH   7  10
ENDBRANCH   2   4
BRANCH   3  12
ATOM     12  C   UNL     1       2.555   4.667  18.140  0.00  0.00    +0.000 C 
BRANCH  12  13
ATOM     13  C   UNL     1       2.162   3.809  19.302  0.00  0.00    +0.000 A 
ATOM     14  C   UNL     1       0.949   3.604  19.931  0.00  0.00    +0.000 A 
ATOM     15  C   UNL     1       1.215   2.829  21.087  0.00  0.00    +0.000 A 
ATOM     16  C   UNL     1       2.567   2.580  21.078  0.00  0.00    +0.000 A 
ATOM     17  O   UNL     1       3.147   3.150  19.990  0.00  0.00    +0.000 OA
ENDBRANCH  12  13
ENDBRANCH   3  12
BRANCH   3  18
ATOM     18  C   UNL     1       3.053   6.594  19.629  0.00  0.00    +0.000 C 
BRANCH  18  19
ATOM     19  C   UNL     1       2.293   7.804  19.146  0.00  0.00    +0.000 A 
ATOM     20  C   UNL     1       2.220   8.329  17.867  0.00  0.00    +0.000 A 
ATOM     21  C   UNL     1       1.294   9.410  17.767  0.00  0.00    +0.000 A 
ATOM     22  C   UNL     1       0.699   9.688  18.977  0.00  0.00    +0.000 A 
ATOM     23  S   UNL     1       1.272   8.669  20.222  0.00  0.00    +0.000 S 
ENDBRANCH  18  19
ENDBRANCH   3  18
TORSDOF 6
ENDMDL
MODEL 6
REMARK VINA RESULT:      -6.7      1.450      1.933
REMARK  Name = 
REMARK  6 active torsions:
REMARK  status: ('A' for Active; 'I' for Inactive)
REMARK    1  A    between atoms: C_2  and  C_3
REMARK    2  A    between atoms: C_6  and  O_7
REMARK    3  A    between atoms: N_10  and  C_11
REMARK    4  A    between atoms: N_10  and  C_17
REMARK    5  A    between atoms: C_11  and  C_12
REMARK    6  A    between atoms: C_17  and  C_18
REMARK                            x       y       z     vdW  Elec       q    Type
REMARK                         _______ _______ _______ _____ _____    ______ ____
ROOT
ATOM      1  O   UNL     1       4.232   7.426  17.325  0.00  0.00    +0.000 OA
ATOM      2  C   UNL     1       3.242   6.889  17.823  0.00  0.00    +0.000 C 
ATOM      3  N   UNL     1       3.029   5.508  17.734  0.00  0.00    +0.000 N 
ENDROOT
BRANCH   2   4
ATOM      4  C   UNL     1       2.276   7.809  18.478  0.00  0.00    +0.000 A 
ATOM      5  C   UNL     1       1.669   8.816  17.717  0.00  0.00    +0.000 A 
ATOM      6  C   UNL     1       0.821   9.740  18.331  0.00  0.00    +0.000 A 
ATOM      7  C   UNL     1       0.604   9.625  19.690  0.00  0.00    +0.000 A 
ATOM      8  N   UNL     1       1.188   8.694  20.462  0.00  0.00    +0.000 NA
ATOM      9  C   UNL     1       2.038   7.837  19.842  0.00  0.00    +0.000 A 
BRANCH   7  10
ATOM     10  O   UNL     1      -0.213  10.478  20.364  0.00  0.00    +0.000 OA
ATOM     11  H   UNL     1      -1.107  10.378  20.010  0.00  0.00    +0.000 HD
ENDBRANCH   7  10
ENDBRANCH   2   4
BRANCH   3  12
ATOM     12  C   UNL     1       1.820   4.786  18.143  0.00  0.00    +0.000 C 
BRANCH  12  13
ATOM     13  C   UNL     1       1.978   4.089  19.459  0.00  0.00    +0.000 A 
ATOM     14  C   UNL     1       1.471   4.358  20.715  0.00  0.00    +0.000 A 
ATOM     15  C   UNL     1       2.107   3.466  21.612  0.00  0.00    +0.000 A 
ATOM     16  C   UNL     1       2.941   2.685  20.847  0.00  0.00    +0.000 A 
ATOM     17  O   UNL     1       2.854   3.038  19.539  0.00  0.00    +0.000 OA
ENDBRANCH  12  13
ENDBRANCH   3  12
BRANCH   3  18
ATOM     18  C   UNL     1       4.107   4.692  17.174  0.00  0.00    +0.000 C 
BRANCH  18  19
ATOM     19  C   UNL     1       5.423   4.960  17.860  0.00  0.00    +0.000 A 
ATOM     20  C   UNL     1       5.675   5.153  19.208  0.00  0.00    +0.000 A 
ATOM     21  C   UNL     1       7.068   5.250  19.500  0.00  0.00    +0.000 A 
ATOM     22  C   UNL     1       7.838   5.142  18.363  0.00  0.00    +0.000 A 
ATOM     23  S   UNL     1       6.885   4.950  16.959  0.00  0.00    +0.000 S 
ENDBRANCH  18  19
ENDBRANCH   3  18
TORSDOF 6
ENDMDL
MODEL 7
REMARK VINA RESULT:      -6.7      2.651      5.677
REMARK  Name = 
REMARK  6 active torsions:
REMARK  status: ('A' for Active; 'I' for Inactive)
REMARK    1  A    between atoms: C_2  and  C_3
REMARK    2  A    between atoms: C_6  and  O_7
REMARK    3  A    between atoms: N_10  and  C_11
REMARK    4  A    between atoms: N_10  and  C_17
REMARK    5  A    between atoms: C_11  and  C_12
REMARK    6  A    between atoms: C_17  and  C_18
REMARK                            x       y       z     vdW  Elec       q    Type
REMARK                         _______ _______ _______ _____ _____    ______ ____
ROOT
ATOM      1  O   UNL     1       5.308   6.448  18.806  0.00  0.00    +0.000 OA
ATOM      2  C   UNL     1       4.436   5.956  18.090  0.00  0.00    +0.000 C 
ATOM      3  N   UNL     1       3.085   5.964  18.460  0.00  0.00    +0.000 N 
ENDROOT
BRANCH   2   4
ATOM      4  C   UNL     1       4.920   5.318  16.838  0.00  0.00    +0.000 A 
ATOM      5  C   UNL     1       5.098   3.929  16.804  0.00  0.00    +0.000 A 
ATOM      6  C   UNL     1       5.628   3.320  15.665  0.00  0.00    +0.000 A 
ATOM      7  C   UNL     1       5.961   4.123  14.591  0.00  0.00    +0.000 A 
ATOM      8  N   UNL     1       5.835   5.459  14.592  0.00  0.00    +0.000 NA
ATOM      9  C   UNL     1       5.355   6.024  15.728  0.00  0.00    +0.000 A 
BRANCH   7  10
ATOM     10  O   UNL     1       6.476   3.610  13.441  0.00  0.00    +0.000 OA
ATOM     11  H   UNL     1       5.805   3.041  13.041  0.00  0.00    +0.000 HD
ENDBRANCH   7  10
ENDBRANCH   2   4
BRANCH   3  12
ATOM     12  C   UNL     1       1.990   5.272  17.772  0.00  0.00    +0.000 C 
BRANCH  12  13
ATOM     13  C   UNL     1       1.550   4.032  18.487  0.00  0.00    +0.000 A 
ATOM     14  C   UNL     1       1.084   3.820  19.770  0.00  0.00    +0.000 A 
ATOM     15  C   UNL     1       0.998   2.418  19.947  0.00  0.00    +0.000 A 
ATOM     16  C   UNL     1       1.386   1.857  18.754  0.00  0.00    +0.000 A 
ATOM     17  O   UNL     1       1.700   2.826  17.854  0.00  0.00    +0.000 OA
ENDBRANCH  12  13
ENDBRANCH   3  12
BRANCH   3  18
ATOM     18  C   UNL     1       2.715   6.727  19.653  0.00  0.00    +0.000 C 
BRANCH  18  19
ATOM     19  C   UNL     1       2.060   8.038  19.295  0.00  0.00    +0.000 A 
ATOM     20  C   UNL     1       2.060   8.704  18.082  0.00  0.00    +0.000 A 
ATOM     21  C   UNL     1       1.220   9.857  18.086  0.00  0.00    +0.000 A 
ATOM     22  C   UNL     1       0.615  10.045  19.309  0.00  0.00    +0.000 A 
ATOM     23  S   UNL     1       1.078   8.855  20.443  0.00  0.00    +0.000 S 
ENDBRANCH  18  19
ENDBRANCH   3  18
TORSDOF 6
ENDMDL
MODEL 8
REMARK VINA RESULT:      -6.6      2.354      4.967
REMARK  Name = 
REMARK  6 active torsions:
REMARK  status: ('A' for Active; 'I' for Inactive)
REMARK    1  A    between atoms: C_2  and  C_3
REMARK    2  A    between atoms: C_6  and  O_7
REMARK    3  A    between atoms: N_10  and  C_11
REMARK    4  A    between atoms: N_10  and  C_17
REMARK    5  A    between atoms: C_11  and  C_12
REMARK    6  A    between atoms: C_17  and  C_18
REMARK                            x       y       z     vdW  Elec       q    Type
REMARK                         _______ _______ _______ _____ _____    ______ ____
ROOT
ATOM      1  O   UNL     1       4.133   3.091  17.618  0.00  0.00    +0.000 OA
ATOM      2  C   UNL     1       3.740   3.925  18.434  0.00  0.00    +0.000 C 
ATOM      3  N   UNL     1       4.085   5.279  18.331  0.00  0.00    +0.000 N 
ENDROOT
BRANCH   2   4
ATOM      4  C   UNL     1       2.920   3.390  19.551  0.00  0.00    +0.000 A 
ATOM      5  C   UNL     1       1.525   3.505  19.489  0.00  0.00    +0.000 A 
ATOM      6  C   UNL     1       0.740   3.081  20.565  0.00  0.00    +0.000 A 
ATOM      7  C   UNL     1       1.379   2.553  21.669  0.00  0.00    +0.000 A 
ATOM      8  N   UNL     1       2.712   2.452  21.783  0.00  0.00    +0.000 NA
ATOM      9  C   UNL     1       3.448   2.909  20.738  0.00  0.00    +0.000 A 
BRANCH   7  10
ATOM     10  O   UNL     1       0.690   2.110  22.756  0.00  0.00    +0.000 OA
ATOM     11  H   UNL     1      -0.105   2.653  22.847  0.00  0.00    +0.000 HD
ENDBRANCH   7  10
ENDBRANCH   2   4
BRANCH   3  12
ATOM     12  C   UNL     1       3.813   6.324  19.323  0.00  0.00    +0.000 C 
BRANCH  12  13
ATOM     13  C   UNL     1       2.850   7.357  18.826  0.00  0.00    +0.000 A 
ATOM     14  C   UNL     1       2.717   7.985  17.603  0.00  0.00    +0.000 A 
ATOM     15  C   UNL     1       1.746   9.004  17.771  0.00  0.00    +0.000 A 
ATOM     16  C   UNL     1       1.322   8.916  19.075  0.00  0.00    +0.000 A 
ATOM     17  O   UNL     1       1.967   7.908  19.718  0.00  0.00    +0.000 OA
ENDBRANCH  12  13
ENDBRANCH   3  12
BRANCH   3  18
ATOM     18  C   UNL     1       4.793   5.706  17.123  0.00  0.00    +0.000 C 
BRANCH  18  19
ATOM     19  C   UNL     1       6.104   6.375  17.453  0.00  0.00    +0.000 A 
ATOM     20  C   UNL     1       6.572   7.613  17.046  0.00  0.00    +0.000 A 
ATOM     21  C   UNL     1       7.807   7.967  17.668  0.00  0.00    +0.000 A 
ATOM     22  C   UNL     1       8.251   6.981  18.520  0.00  0.00    +0.000 A 
ATOM     23  S   UNL     1       7.200   5.635  18.548  0.00  0.00    +0.000 S 
ENDBRANCH  18  19
ENDBRANCH   3  18
TORSDOF 6
ENDMDL
MODEL 9
REMARK VINA RESULT:      -6.6      0.635      1.034
REMARK  Name = 
REMARK  6 active torsions:
REMARK  status: ('A' for Active; 'I' for Inactive)
REMARK    1  A    between atoms: C_2  and  C_3
REMARK    2  A    between atoms: C_6  and  O_7
REMARK    3  A    between atoms: N_10  and  C_11
REMARK    4  A    between atoms: N_10  and  C_17
REMARK    5  A    between atoms: C_11  and  C_12
REMARK    6  A    between atoms: C_17  and  C_18
REMARK                            x       y       z     vdW  Elec       q    Type
REMARK                         _______ _______ _______ _____ _____    ______ ____
ROOT
ATOM      1  O   UNL     1       5.141   6.827  17.945  0.00  0.00    +0.000 OA
ATOM      2  C   UNL     1       3.991   6.437  18.148  0.00  0.00    +0.000 C 
ATOM      3  N   UNL     1       3.651   5.080  18.092  0.00  0.00    +0.000 N 
ENDROOT
BRANCH   2   4
ATOM      4  C   UNL     1       2.991   7.503  18.410  0.00  0.00    +0.000 A 
ATOM      5  C   UNL     1       2.335   7.535  19.647  0.00  0.00    +0.000 A 
ATOM      6  C   UNL     1       1.333   8.480  19.883  0.00  0.00    +0.000 A 
ATOM      7  C   UNL     1       1.022   9.367  18.871  0.00  0.00    +0.000 A 
ATOM      8  N   UNL     1       1.603   9.353  17.662  0.00  0.00    +0.000 NA
ATOM      9  C   UNL     1       2.543   8.398  17.451  0.00  0.00    +0.000 A 
BRANCH   7  10
ATOM     10  O   UNL     1       0.065  10.323  19.021  0.00  0.00    +0.000 OA
ATOM     11  H   UNL     1      -0.101  10.717  18.154  0.00  0.00    +0.000 HD
ENDBRANCH   7  10
ENDBRANCH   2   4
BRANCH   3  12
ATOM     12  C   UNL     1       2.298   4.518  18.156  0.00  0.00    +0.000 C 
BRANCH  12  13
ATOM     13  C   UNL     1       2.015   3.836  19.459  0.00  0.00    +0.000 A 
ATOM     14  C   UNL     1       1.061   2.909  19.828  0.00  0.00    +0.000 A 
ATOM     15  C   UNL     1       1.156   2.763  21.234  0.00  0.00    +0.000 A 
ATOM     16  C   UNL     1       2.183   3.585  21.635  0.00  0.00    +0.000 A 
ATOM     17  O   UNL     1       2.725   4.223  20.565  0.00  0.00    +0.000 OA
ENDBRANCH  12  13
ENDBRANCH   3  12
BRANCH   3  18
ATOM     18  C   UNL     1       4.743   4.114  17.948  0.00  0.00    +0.000 C 
BRANCH  18  19
ATOM     19  C   UNL     1       5.413   4.227  16.602  0.00  0.00    +0.000 A 
ATOM     20  C   UNL     1       4.840   4.189  15.342  0.00  0.00    +0.000 A 
ATOM     21  C   UNL     1       5.778   4.461  14.302  0.00  0.00    +0.000 A 
ATOM     22  C   UNL     1       7.042   4.685  14.799  0.00  0.00    +0.000 A 
ATOM     23  S   UNL     1       7.098   4.543  16.500  0.00  0.00    +0.000 S 
ENDBRANCH  18  19
ENDBRANCH   3  18
TORSDOF 6
ENDMDL
