MODEL 1
REMARK VINA RESULT:      -6.8      0.000      0.000
REMARK  Name = 
REMARK  10 active torsions:
REMARK  status: ('A' for Active; 'I' for Inactive)
REMARK    1  A    between atoms: C_1  and  C_2
REMARK    2  A    between atoms: C_2  and  C_3
REMARK    3  A    between atoms: N_5  and  C_6
REMARK    4  A    between atoms: C_6  and  C_7
REMARK    5  A    between atoms: C_7  and  O_8
REMARK    6  A    between atoms: C_9  and  C_10
REMARK    7  A    between atoms: C_10  and  C_11
REMARK    8  A    between atoms: C_12  and  O_13
REMARK    9  A    between atoms: O_13  and  C_14
REMARK   10  A    between atoms: C_16  and  C_17
REMARK                            x       y       z     vdW  Elec       q    Type
REMARK                         _______ _______ _______ _____ _____    ______ ____
ROOT
ATOM      1  C   UNL     1       2.246   5.814  19.335  0.00  0.00    +0.000 A 
ATOM      2  N   UNL     1       1.538   5.039  20.173  0.00  0.00    +0.000 NA
ATOM      3  N   UNL     1       1.569   3.810  19.617  0.00  0.00    +0.000 N 
ATOM      4  C   UNL     1       2.293   3.754  18.450  0.00  0.00    +0.000 A 
ATOM      5  C   UNL     1       2.719   5.051  18.233  0.00  0.00    +0.000 A 
ENDROOT
BRANCH   1   7
ATOM      6  C   UNL     1       2.145   8.205  18.445  0.00  0.00    +0.000 C 
ATOM      7  C   UNL     1       2.413   7.273  19.620  0.00  0.00    +0.000 C 
ENDBRANCH   1   7
BRANCH   4   8
ATOM      8  C   UNL     1       2.514   2.531  17.627  0.00  0.00    +0.000 C 
ATOM      9  C   UNL     1       3.626   1.660  18.195  0.00  0.00    +0.000 C 
ENDBRANCH   4   8
BRANCH   3  10
ATOM     10  C   UNL     1       0.941   2.717  20.340  0.00  0.00    +0.000 C 
BRANCH  10  11
ATOM     11  C   UNL     1       1.401   2.589  21.788  0.00  0.00    +0.000 C 
BRANCH  11  12
ATOM     12  O   UNL     1       2.822   2.638  21.904  0.00  0.00    +0.000 OA
ATOM     13  H   UNL     1       3.016   2.686  22.860  0.00  0.00    +0.000 HD
ENDBRANCH  11  12
ENDBRANCH  10  11
ENDBRANCH   3  10
BRANCH   5  14
ATOM     14  O   UNL     1       3.488   5.361  17.163  0.00  0.00    +0.000 OA
BRANCH  14  15
ATOM     15  C   UNL     1       4.839   5.071  17.138  0.00  0.00    +0.000 A 
ATOM     16  C   UNL     1       5.595   5.513  18.208  0.00  0.00    +0.000 A 
ATOM     17  C   UNL     1       6.976   5.291  18.187  0.00  0.00    +0.000 A 
ATOM     18  C   UNL     1       7.866   5.801  19.278  0.00  0.00    +0.000 C 
ATOM     19  C   UNL     1       7.520   4.614  17.096  0.00  0.00    +0.000 A 
ATOM     20  C   UNL     1       6.673   4.173  16.092  0.00  0.00    +0.000 A 
ATOM     21  N   UNL     1       5.341   4.379  16.092  0.00  0.00    +0.000 NA
ENDBRANCH  14  15
ENDBRANCH   5  14
TORSDOF 7
ENDMDL
MODEL 2
REMARK VINA RESULT:      -6.6      2.284      3.996
REMARK  Name = 
REMARK  10 active torsions:
REMARK  status: ('A' for Active; 'I' for Inactive)
REMARK    1  A    between atoms: C_1  and  C_2
REMARK    2  A    between atoms: C_2  and  C_3
REMARK    3  A    between atoms: N_5  and  C_6
REMARK    4  A    between atoms: C_6  and  C_7
REMARK    5  A    between atoms: C_7  and  O_8
REMARK    6  A    between atoms: C_9  and  C_10
REMARK    7  A    between atoms: C_10  and  C_11
REMARK    8  A    between atoms: C_12  and  O_13
REMARK    9  A    between atoms: O_13  and  C_14
REMARK   10  A    between atoms: C_16  and  C_17
REMARK                            x       y       z     vdW  Elec       q    Type
REMARK                         _______ _______ _______ _____ _____    ______ ____
ROOT
ATOM      1  C   UNL     1       6.116   4.778  18.189  0.00  0.00    +0.000 A 
ATOM      2  N   UNL     1       5.842   3.966  19.223  0.00  0.00    +0.000 NA
ATOM      3  N   UNL     1       4.643   3.423  18.929  0.00  0.00    +0.000 N 
ATOM      4  C   UNL     1       4.133   3.841  17.723  0.00  0.00    +0.000 A 
ATOM      5  C   UNL     1       5.060   4.743  17.238  0.00  0.00    +0.000 A 
ENDROOT
BRANCH   1   7
ATOM      6  C   UNL     1       8.058   5.754  19.527  0.00  0.00    +0.000 C 
ATOM      7  C   UNL     1       7.379   5.581  18.175  0.00  0.00    +0.000 C 
ENDBRANCH   1   7
BRANCH   4   8
ATOM      8  C   UNL     1       2.838   3.398  17.131  0.00  0.00    +0.000 C 
ATOM      9  C   UNL     1       1.679   4.273  17.590  0.00  0.00    +0.000 C 
ENDBRANCH   4   8
BRANCH   3  10
ATOM     10  C   UNL     1       4.103   2.427  19.838  0.00  0.00    +0.000 C 
BRANCH  10  11
ATOM     11  C   UNL     1       3.031   2.965  20.779  0.00  0.00    +0.000 C 
BRANCH  11  12
ATOM     12  O   UNL     1       1.763   2.353  20.551  0.00  0.00    +0.000 OA
ATOM     13  H   UNL     1       1.911   1.661  19.878  0.00  0.00    +0.000 HD
ENDBRANCH  11  12
ENDBRANCH  10  11
ENDBRANCH   3  10
BRANCH   5  14
ATOM     14  O   UNL     1       4.883   5.346  16.039  0.00  0.00    +0.000 OA
BRANCH  14  15
ATOM     15  C   UNL     1       5.659   5.015  14.943  0.00  0.00    +0.000 A 
ATOM     16  C   UNL     1       5.116   4.121  14.039  0.00  0.00    +0.000 A 
ATOM     17  C   UNL     1       5.896   3.716  12.951  0.00  0.00    +0.000 A 
ATOM     18  C   UNL     1       5.399   2.701  11.969  0.00  0.00    +0.000 C 
ATOM     19  C   UNL     1       7.177   4.253  12.819  0.00  0.00    +0.000 A 
ATOM     20  C   UNL     1       7.615   5.174  13.756  0.00  0.00    +0.000 A 
ATOM     21  N   UNL     1       6.880   5.575  14.813  0.00  0.00    +0.000 NA
ENDBRANCH  14  15
ENDBRANCH   5  14
TORSDOF 7
ENDMDL
MODEL 3
REMARK VINA RESULT:      -6.5      2.591      4.357
REMARK  Name = 
REMARK  10 active torsions:
REMARK  status: ('A' for Active; 'I' for Inactive)
REMARK    1  A    between atoms: C_1  and  C_2
REMARK    2  A    between atoms: C_2  and  C_3
REMARK    3  A    between atoms: N_5  and  C_6
REMARK    4  A    between atoms: C_6  and  C_7
REMARK    5  A    between atoms: C_7  and  O_8
REMARK    6  A    between atoms: C_9  and  C_10
REMARK    7  A    between atoms: C_10  and  C_11
REMARK    8  A    between atoms: C_12  and  O_13
REMARK    9  A    between atoms: O_13  and  C_14
REMARK   10  A    between atoms: C_16  and  C_17
REMARK                            x       y       z     vdW  Elec       q    Type
REMARK                         _______ _______ _______ _____ _____    ______ ____
ROOT
ATOM      1  C   UNL     1       5.602   6.383  17.336  0.00  0.00    +0.000 A 
ATOM      2  N   UNL     1       4.450   6.762  17.913  0.00  0.00    +0.000 NA
ATOM      3  N   UNL     1       3.632   5.696  17.785  0.00  0.00    +0.000 N 
ATOM      4  C   UNL     1       4.223   4.624  17.160  0.00  0.00    +0.000 A 
ATOM      5  C   UNL     1       5.494   5.058  16.834  0.00  0.00    +0.000 A 
ENDROOT
BRANCH   1   7
ATOM      6  C   UNL     1       7.904   7.038  18.226  0.00  0.00    +0.000 C 
ATOM      7  C   UNL     1       6.757   7.332  17.268  0.00  0.00    +0.000 C 
ENDBRANCH   1   7
BRANCH   4   8
ATOM      8  C   UNL     1       3.570   3.310  16.895  0.00  0.00    +0.000 C 
ATOM      9  C   UNL     1       3.689   2.370  18.086  0.00  0.00    +0.000 C 
ENDBRANCH   4   8
BRANCH   3  10
ATOM     10  C   UNL     1       2.312   5.772  18.387  0.00  0.00    +0.000 C 
BRANCH  10  11
ATOM     11  C   UNL     1       2.300   6.406  19.773  0.00  0.00    +0.000 C 
BRANCH  11  12
ATOM     12  O   UNL     1       2.134   7.821  19.712  0.00  0.00    +0.000 OA
ATOM     13  H   UNL     1       3.030   8.204  19.779  0.00  0.00    +0.000 HD
ENDBRANCH  11  12
ENDBRANCH  10  11
ENDBRANCH   3  10
BRANCH   5  14
ATOM     14  O   UNL     1       6.372   4.236  16.214  0.00  0.00    +0.000 OA
BRANCH  14  15
ATOM     15  C   UNL     1       6.646   4.357  14.865  0.00  0.00    +0.000 A 
ATOM     16  C   UNL     1       5.911   3.563  14.003  0.00  0.00    +0.000 A 
ATOM     17  C   UNL     1       6.204   3.615  12.636  0.00  0.00    +0.000 A 
ATOM     18  C   UNL     1       5.496   2.734  11.653  0.00  0.00    +0.000 C 
ATOM     19  C   UNL     1       7.207   4.483  12.206  0.00  0.00    +0.000 A 
ATOM     20  C   UNL     1       7.858   5.269  13.144  0.00  0.00    +0.000 A 
ATOM     21  N   UNL     1       7.593   5.232  14.465  0.00  0.00    +0.000 NA
ENDBRANCH  14  15
ENDBRANCH   5  14
TORSDOF 7
ENDMDL
MODEL 4
REMARK VINA RESULT:      -6.4      2.058      5.557
REMARK  Name = 
REMARK  10 active torsions:
REMARK  status: ('A' for Active; 'I' for Inactive)
REMARK    1  A    between atoms: C_1  and  C_2
REMARK    2  A    between atoms: C_2  and  C_3
REMARK    3  A    between atoms: N_5  and  C_6
REMARK    4  A    between atoms: C_6  and  C_7
REMARK    5  A    between atoms: C_7  and  O_8
REMARK    6  A    between atoms: C_9  and  C_10
REMARK    7  A    between atoms: C_10  and  C_11
REMARK    8  A    between atoms: C_12  and  O_13
REMARK    9  A    between atoms: O_13  and  C_14
REMARK   10  A    between atoms: C_16  and  C_17
REMARK                            x       y       z     vdW  Elec       q    Type
REMARK                         _______ _______ _______ _____ _____    ______ ____
ROOT
ATOM      1  C   UNL     1       4.332   3.949  19.214  0.00  0.00    +0.000 A 
ATOM      2  N   UNL     1       5.665   3.784  19.191  0.00  0.00    +0.000 NA
ATOM      3  N   UNL     1       6.115   4.718  18.327  0.00  0.00    +0.000 N 
ATOM      4  C   UNL     1       5.117   5.502  17.800  0.00  0.00    +0.000 A 
ATOM      5  C   UNL     1       3.948   5.002  18.341  0.00  0.00    +0.000 A 
ENDROOT
BRANCH   1   7
ATOM      6  C   UNL     1       2.400   2.283  19.315  0.00  0.00    +0.000 C 
ATOM      7  C   UNL     1       3.478   3.059  20.061  0.00  0.00    +0.000 C 
ENDBRANCH   1   7
BRANCH   4   8
ATOM      8  C   UNL     1       5.316   6.622  16.835  0.00  0.00    +0.000 C 
ATOM      9  C   UNL     1       5.334   6.130  15.395  0.00  0.00    +0.000 C 
ENDBRANCH   4   8
BRANCH   3  10
ATOM     10  C   UNL     1       7.550   4.841  18.142  0.00  0.00    +0.000 C 
BRANCH  10  11
ATOM     11  C   UNL     1       8.226   5.768  19.147  0.00  0.00    +0.000 C 
BRANCH  11  12
ATOM     12  O   UNL     1       7.930   5.403  20.493  0.00  0.00    +0.000 OA
ATOM     13  H   UNL     1       7.021   5.047  20.486  0.00  0.00    +0.000 HD
ENDBRANCH  11  12
ENDBRANCH  10  11
ENDBRANCH   3  10
BRANCH   5  14
ATOM     14  O   UNL     1       2.751   5.561  18.046  0.00  0.00    +0.000 OA
BRANCH  14  15
ATOM     15  C   UNL     1       2.249   6.620  18.780  0.00  0.00    +0.000 A 
ATOM     16  C   UNL     1       2.087   7.821  18.115  0.00  0.00    +0.000 A 
ATOM     17  C   UNL     1       1.639   8.930  18.841  0.00  0.00    +0.000 A 
ATOM     18  C   UNL     1       1.505  10.279  18.203  0.00  0.00    +0.000 C 
ATOM     19  C   UNL     1       1.355   8.764  20.197  0.00  0.00    +0.000 A 
ATOM     20  C   UNL     1       1.511   7.508  20.762  0.00  0.00    +0.000 A 
ATOM     21  N   UNL     1       1.943   6.428  20.081  0.00  0.00    +0.000 NA
ENDBRANCH  14  15
ENDBRANCH   5  14
TORSDOF 7
ENDMDL
MODEL 5
REMARK VINA RESULT:      -6.4      2.544      4.879
REMARK  Name = 
REMARK  10 active torsions:
REMARK  status: ('A' for Active; 'I' for Inactive)
REMARK    1  A    between atoms: C_1  and  C_2
REMARK    2  A    between atoms: C_2  and  C_3
REMARK    3  A    between atoms: N_5  and  C_6
REMARK    4  A    between atoms: C_6  and  C_7
REMARK    5  A    between atoms: C_7  and  O_8
REMARK    6  A    between atoms: C_9  and  C_10
REMARK    7  A    between atoms: C_10  and  C_11
REMARK    8  A    between atoms: C_12  and  O_13
REMARK    9  A    between atoms: O_13  and  C_14
REMARK   10  A    between atoms: C_16  and  C_17
REMARK                            x       y       z     vdW  Elec       q    Type
REMARK                         _______ _______ _______ _____ _____    ______ ____
ROOT
ATOM      1  C   UNL     1       4.187   4.182  17.195  0.00  0.00    +0.000 A 
ATOM      2  N   UNL     1       3.330   5.077  17.712  0.00  0.00    +0.000 NA
ATOM      3  N   UNL     1       3.998   6.249  17.690  0.00  0.00    +0.000 N 
ATOM      4  C   UNL     1       5.260   6.151  17.155  0.00  0.00    +0.000 A 
ATOM      5  C   UNL     1       5.415   4.811  16.852  0.00  0.00    +0.000 A 
ENDROOT
BRANCH   1   7
ATOM      6  C   UNL     1       3.152   2.138  18.320  0.00  0.00    +0.000 C 
ATOM      7  C   UNL     1       3.794   2.743  17.079  0.00  0.00    +0.000 C 
ENDBRANCH   1   7
BRANCH   4   8
ATOM      8  C   UNL     1       6.219   7.280  16.987  0.00  0.00    +0.000 C 
ATOM      9  C   UNL     1       7.468   7.091  17.836  0.00  0.00    +0.000 C 
ENDBRANCH   4   8
BRANCH   3  10
ATOM     10  C   UNL     1       3.295   7.444  18.125  0.00  0.00    +0.000 C 
BRANCH  10  11
ATOM     11  C   UNL     1       2.315   7.203  19.269  0.00  0.00    +0.000 C 
BRANCH  11  12
ATOM     12  O   UNL     1       2.877   6.382  20.290  0.00  0.00    +0.000 OA
ATOM     13  H   UNL     1       2.531   6.724  21.137  0.00  0.00    +0.000 HD
ENDBRANCH  11  12
ENDBRANCH  10  11
ENDBRANCH   3  10
BRANCH   5  14
ATOM     14  O   UNL     1       6.553   4.354  16.281  0.00  0.00    +0.000 OA
BRANCH  14  15
ATOM     15  C   UNL     1       6.764   4.444  14.918  0.00  0.00    +0.000 A 
ATOM     16  C   UNL     1       5.976   3.645  14.109  0.00  0.00    +0.000 A 
ATOM     17  C   UNL     1       6.203   3.664  12.729  0.00  0.00    +0.000 A 
ATOM     18  C   UNL     1       5.435   2.776  11.799  0.00  0.00    +0.000 C 
ATOM     19  C   UNL     1       7.198   4.506  12.233  0.00  0.00    +0.000 A 
ATOM     20  C   UNL     1       7.906   5.300  13.122  0.00  0.00    +0.000 A 
ATOM     21  N   UNL     1       7.705   5.294  14.455  0.00  0.00    +0.000 NA
ENDBRANCH  14  15
ENDBRANCH   5  14
TORSDOF 7
ENDMDL
MODEL 6
REMARK VINA RESULT:      -6.4      2.271      5.420
REMARK  Name = 
REMARK  10 active torsions:
REMARK  status: ('A' for Active; 'I' for Inactive)
REMARK    1  A    between atoms: C_1  and  C_2
REMARK    2  A    between atoms: C_2  and  C_3
REMARK    3  A    between atoms: N_5  and  C_6
REMARK    4  A    between atoms: C_6  and  C_7
REMARK    5  A    between atoms: C_7  and  O_8
REMARK    6  A    between atoms: C_9  and  C_10
REMARK    7  A    between atoms: C_10  and  C_11
REMARK    8  A    between atoms: C_12  and  O_13
REMARK    9  A    between atoms: O_13  and  C_14
REMARK   10  A    between atoms: C_16  and  C_17
REMARK                            x       y       z     vdW  Elec       q    Type
REMARK                         _______ _______ _______ _____ _____    ______ ____
ROOT
ATOM      1  C   UNL     1       4.005   4.383  19.360  0.00  0.00    +0.000 A 
ATOM      2  N   UNL     1       5.320   4.112  19.403  0.00  0.00    +0.000 NA
ATOM      3  N   UNL     1       5.863   4.880  18.436  0.00  0.00    +0.000 N 
ATOM      4  C   UNL     1       4.945   5.660  17.775  0.00  0.00    +0.000 A 
ATOM      5  C   UNL     1       3.727   5.333  18.340  0.00  0.00    +0.000 A 
ENDROOT
BRANCH   1   7
ATOM      6  C   UNL     1       1.977   2.855  19.624  0.00  0.00    +0.000 C 
ATOM      7  C   UNL     1       3.062   3.688  20.292  0.00  0.00    +0.000 C 
ENDBRANCH   1   7
BRANCH   4   8
ATOM      8  C   UNL     1       5.256   6.617  16.675  0.00  0.00    +0.000 C 
ATOM      9  C   UNL     1       5.349   5.916  15.327  0.00  0.00    +0.000 C 
ENDBRANCH   4   8
BRANCH   3  10
ATOM     10  C   UNL     1       7.307   4.863  18.282  0.00  0.00    +0.000 C 
BRANCH  10  11
ATOM     11  C   UNL     1       8.039   5.836  19.201  0.00  0.00    +0.000 C 
BRANCH  11  12
ATOM     12  O   UNL     1       8.019   5.404  20.560  0.00  0.00    +0.000 OA
ATOM     13  H   UNL     1       7.087   5.197  20.767  0.00  0.00    +0.000 HD
ENDBRANCH  11  12
ENDBRANCH  10  11
ENDBRANCH   3  10
BRANCH   5  14
ATOM     14  O   UNL     1       2.587   5.938  17.935  0.00  0.00    +0.000 OA
BRANCH  14  15
ATOM     15  C   UNL     1       2.207   7.171  18.433  0.00  0.00    +0.000 A 
ATOM     16  C   UNL     1       1.966   7.250  19.793  0.00  0.00    +0.000 A 
ATOM     17  C   UNL     1       1.521   8.466  20.322  0.00  0.00    +0.000 A 
ATOM     18  C   UNL     1       1.176   8.606  21.772  0.00  0.00    +0.000 C 
ATOM     19  C   UNL     1       1.365   9.547  19.455  0.00  0.00    +0.000 A 
ATOM     20  C   UNL     1       1.672   9.379  18.114  0.00  0.00    +0.000 A 
ATOM     21  N   UNL     1       2.099   8.215  17.584  0.00  0.00    +0.000 NA
ENDBRANCH  14  15
ENDBRANCH   5  14
TORSDOF 7
ENDMDL
MODEL 7
REMARK VINA RESULT:      -6.3      2.126      5.815
REMARK  Name = 
REMARK  10 active torsions:
REMARK  status: ('A' for Active; 'I' for Inactive)
REMARK    1  A    between atoms: C_1  and  C_2
REMARK    2  A    between atoms: C_2  and  C_3
REMARK    3  A    between atoms: N_5  and  C_6
REMARK    4  A    between atoms: C_6  and  C_7
REMARK    5  A    between atoms: C_7  and  O_8
REMARK    6  A    between atoms: C_9  and  C_10
REMARK    7  A    between atoms: C_10  and  C_11
REMARK    8  A    between atoms: C_12  and  O_13
REMARK    9  A    between atoms: O_13  and  C_14
REMARK   10  A    between atoms: C_16  and  C_17
REMARK                            x       y       z     vdW  Elec       q    Type
REMARK                         _______ _______ _______ _____ _____    ______ ____
ROOT
ATOM      1  C   UNL     1       6.786   5.596  17.742  0.00  0.00    +0.000 A 
ATOM      2  N   UNL     1       6.821   5.652  16.401  0.00  0.00    +0.000 NA
ATOM      3  N   UNL     1       5.905   4.750  15.992  0.00  0.00    +0.000 N 
ATOM      4  C   UNL     1       5.257   4.120  17.027  0.00  0.00    +0.000 A 
ATOM      5  C   UNL     1       5.834   4.634  18.173  0.00  0.00    +0.000 A 
ENDROOT
BRANCH   1   7
ATOM      6  C   UNL     1       7.988   7.837  17.976  0.00  0.00    +0.000 C 
ATOM      7  C   UNL     1       7.699   6.458  18.556  0.00  0.00    +0.000 C 
ENDBRANCH   1   7
BRANCH   4   8
ATOM      8  C   UNL     1       4.188   3.091  16.880  0.00  0.00    +0.000 C 
ATOM      9  C   UNL     1       2.800   3.717  16.870  0.00  0.00    +0.000 C 
ENDBRANCH   4   8
BRANCH   3  10
ATOM     10  C   UNL     1       5.655   4.630  14.567  0.00  0.00    +0.000 C 
BRANCH  10  11
ATOM     11  C   UNL     1       6.908   4.373  13.737  0.00  0.00    +0.000 C 
BRANCH  11  12
ATOM     12  O   UNL     1       7.816   5.472  13.786  0.00  0.00    +0.000 OA
ATOM     13  H   UNL     1       8.591   5.209  13.254  0.00  0.00    +0.000 HD
ENDBRANCH  11  12
ENDBRANCH  10  11
ENDBRANCH   3  10
BRANCH   5  14
ATOM     14  O   UNL     1       5.414   4.242  19.399  0.00  0.00    +0.000 OA
BRANCH  14  15
ATOM     15  C   UNL     1       4.138   4.524  19.850  0.00  0.00    +0.000 A 
ATOM     16  C   UNL     1       3.463   3.507  20.498  0.00  0.00    +0.000 A 
ATOM     17  C   UNL     1       2.147   3.738  20.914  0.00  0.00    +0.000 A 
ATOM     18  C   UNL     1       1.333   2.661  21.561  0.00  0.00    +0.000 C 
ATOM     19  C   UNL     1       1.588   4.993  20.674  0.00  0.00    +0.000 A 
ATOM     20  C   UNL     1       2.361   5.961  20.053  0.00  0.00    +0.000 A 
ATOM     21  N   UNL     1       3.629   5.758  19.643  0.00  0.00    +0.000 NA
ENDBRANCH  14  15
ENDBRANCH   5  14
TORSDOF 7
ENDMDL
MODEL 8
REMARK VINA RESULT:      -6.3      1.935      6.101
REMARK  Name = 
REMARK  10 active torsions:
REMARK  status: ('A' for Active; 'I' for Inactive)
REMARK    1  A    between atoms: C_1  and  C_2
REMARK    2  A    between atoms: C_2  and  C_3
REMARK    3  A    between atoms: N_5  and  C_6
REMARK    4  A    between atoms: C_6  and  C_7
REMARK    5  A    between atoms: C_7  and  O_8
REMARK    6  A    between atoms: C_9  and  C_10
REMARK    7  A    between atoms: C_10  and  C_11
REMARK    8  A    between atoms: C_12  and  O_13
REMARK    9  A    between atoms: O_13  and  C_14
REMARK   10  A    between atoms: C_16  and  C_17
REMARK                            x       y       z     vdW  Elec       q    Type
REMARK                         _______ _______ _______ _____ _____    ______ ____
ROOT
ATOM      1  C   UNL     1       4.358   3.983  16.888  0.00  0.00    +0.000 A 
ATOM      2  N   UNL     1       5.000   4.029  15.708  0.00  0.00    +0.000 NA
ATOM      3  N   UNL     1       6.236   4.481  16.004  0.00  0.00    +0.000 N 
ATOM      4  C   UNL     1       6.428   4.713  17.345  0.00  0.00    +0.000 A 
ATOM      5  C   UNL     1       5.212   4.423  17.935  0.00  0.00    +0.000 A 
ENDROOT
BRANCH   1   7
ATOM      6  C   UNL     1       2.704   2.126  17.466  0.00  0.00    +0.000 C 
ATOM      7  C   UNL     1       2.930   3.542  16.951  0.00  0.00    +0.000 C 
ENDBRANCH   1   7
BRANCH   4   8
ATOM      8  C   UNL     1       7.694   5.198  17.966  0.00  0.00    +0.000 C 
ATOM      9  C   UNL     1       7.685   6.708  18.161  0.00  0.00    +0.000 C 
ENDBRANCH   4   8
BRANCH   3  10
ATOM     10  C   UNL     1       7.207   4.570  14.927  0.00  0.00    +0.000 C 
BRANCH  10  11
ATOM     11  C   UNL     1       6.597   4.456  13.534  0.00  0.00    +0.000 C 
BRANCH  11  12
ATOM     12  O   UNL     1       6.358   3.100  13.165  0.00  0.00    +0.000 OA
ATOM     13  H   UNL     1       6.694   3.002  12.253  0.00  0.00    +0.000 HD
ENDBRANCH  11  12
ENDBRANCH  10  11
ENDBRANCH   3  10
BRANCH   5  14
ATOM     14  O   UNL     1       5.046   4.526  19.274  0.00  0.00    +0.000 OA
BRANCH  14  15
ATOM     15  C   UNL     1       3.796   4.713  19.834  0.00  0.00    +0.000 A 
ATOM     16  C   UNL     1       3.250   3.642  20.517  0.00  0.00    +0.000 A 
ATOM     17  C   UNL     1       1.961   3.774  21.044  0.00  0.00    +0.000 A 
ATOM     18  C   UNL     1       1.279   2.635  21.736  0.00  0.00    +0.000 C 
ATOM     19  C   UNL     1       1.298   4.990  20.875  0.00  0.00    +0.000 A 
ATOM     20  C   UNL     1       1.948   6.018  20.210  0.00  0.00    +0.000 A 
ATOM     21  N   UNL     1       3.188   5.910  19.693  0.00  0.00    +0.000 NA
ENDBRANCH  14  15
ENDBRANCH   5  14
TORSDOF 7
ENDMDL
MODEL 9
REMARK VINA RESULT:      -6.2      1.227      1.312
REMARK  Name = 
REMARK  10 active torsions:
REMARK  status: ('A' for Active; 'I' for Inactive)
REMARK    1  A    between atoms: C_1  and  C_2
REMARK    2  A    between atoms: C_2  and  C_3
REMARK    3  A    between atoms: N_5  and  C_6
REMARK    4  A    between atoms: C_6  and  C_7
REMARK    5  A    between atoms: C_7  and  O_8
REMARK    6  A    between atoms: C_9  and  C_10
REMARK    7  A    between atoms: C_10  and  C_11
REMARK    8  A    between atoms: C_12  and  O_13
REMARK    9  A    between atoms: O_13  and  C_14
REMARK   10  A    between atoms: C_16  and  C_17
REMARK                            x       y       z     vdW  Elec       q    Type
REMARK                         _______ _______ _______ _____ _____    ______ ____
ROOT
ATOM      1  C   UNL     1       2.534   6.094  19.555  0.00  0.00    +0.000 A 
ATOM      2  N   UNL     1       2.321   5.408  20.690  0.00  0.00    +0.000 NA
ATOM      3  N   UNL     1       2.705   4.146  20.409  0.00  0.00    +0.000 N 
ATOM      4  C   UNL     1       3.183   3.991  19.130  0.00  0.00    +0.000 A 
ATOM      5  C   UNL     1       3.054   5.237  18.548  0.00  0.00    +0.000 A 
ENDROOT
BRANCH   1   7
ATOM      6  C   UNL     1       2.118   8.133  18.076  0.00  0.00    +0.000 C 
ATOM      7  C   UNL     1       2.196   7.550  19.481  0.00  0.00    +0.000 C 
ENDBRANCH   1   7
BRANCH   4   8
ATOM      8  C   UNL     1       3.692   2.716  18.546  0.00  0.00    +0.000 C 
ATOM      9  C   UNL     1       2.593   1.943  17.832  0.00  0.00    +0.000 C 
ENDBRANCH   4   8
BRANCH   3  10
ATOM     10  C   UNL     1       2.663   3.165  21.480  0.00  0.00    +0.000 C 
BRANCH  10  11
ATOM     11  C   UNL     1       1.289   2.540  21.692  0.00  0.00    +0.000 C 
BRANCH  11  12
ATOM     12  O   UNL     1       0.380   2.879  20.647  0.00  0.00    +0.000 OA
ATOM     13  H   UNL     1       0.595   2.292  19.897  0.00  0.00    +0.000 HD
ENDBRANCH  11  12
ENDBRANCH  10  11
ENDBRANCH   3  10
BRANCH   5  14
ATOM     14  O   UNL     1       3.454   5.454  17.273  0.00  0.00    +0.000 OA
BRANCH  14  15
ATOM     15  C   UNL     1       4.794   5.500  16.935  0.00  0.00    +0.000 A 
ATOM     16  C   UNL     1       5.544   6.524  17.484  0.00  0.00    +0.000 A 
ATOM     17  C   UNL     1       6.888   6.637  17.116  0.00  0.00    +0.000 A 
ATOM     18  C   UNL     1       7.743   7.760  17.617  0.00  0.00    +0.000 C 
ATOM     19  C   UNL     1       7.413   5.697  16.230  0.00  0.00    +0.000 A 
ATOM     20  C   UNL     1       6.590   4.682  15.767  0.00  0.00    +0.000 A 
ATOM     21  N   UNL     1       5.292   4.557  16.107  0.00  0.00    +0.000 NA
ENDBRANCH  14  15
ENDBRANCH   5  14
TORSDOF 7
ENDMDL
