MODEL 1
REMARK VINA RESULT:      -7.4      0.000      0.000
REMARK  Name = 
REMARK  8 active torsions:
REMARK  status: ('A' for Active; 'I' for Inactive)
REMARK    1  A    between atoms: C_1  and  C_2
REMARK    2  A    between atoms: C_2  and  C_3
REMARK    3  A    between atoms: C_2  and  C_12
REMARK    4  A    between atoms: N_5  and  C_6
REMARK    5  A    between atoms: C_6  and  C_7
REMARK    6  A    between atoms: C_7  and  C_8
REMARK    7  A    between atoms: N_14  and  C_15
REMARK    8  A    between atoms: N_18  and  C_19
REMARK                            x       y       z     vdW  Elec       q    Type
REMARK                         _______ _______ _______ _____ _____    ______ ____
ROOT
ATOM      1  C   UNL     1      -1.382  11.806  19.003  0.00  0.00    +0.000 C 
ATOM      2  C   UNL     1      -0.834  13.255  18.925  0.00  0.00    +0.000 C 
ATOM      3  O   UNL     1      -0.203  13.617  17.930  0.00  0.00    +0.000 OA
ATOM      4  N   UNL     1      -1.141  14.141  19.973  0.00  0.00    +0.000 N 
ATOM      5  C   UNL     1      -0.910  15.565  19.755  0.00  0.00    +0.000 C 
ATOM      6  C   UNL     1      -1.836  13.789  21.170  0.00  0.00    +0.000 A 
ATOM      7  C   UNL     1      -1.250  14.164  22.392  0.00  0.00    +0.000 A 
ATOM      8  C   UNL     1      -1.765  13.711  23.606  0.00  0.00    +0.000 A 
ATOM      9  C   UNL     1      -2.892  12.900  23.619  0.00  0.00    +0.000 A 
ATOM     10  C   UNL     1      -3.507  12.546  22.419  0.00  0.00    +0.000 A 
ATOM     11  C   UNL     1      -2.997  12.975  21.176  0.00  0.00    +0.000 A 
ATOM     12  C   UNL     1      -3.646  12.516  19.933  0.00  0.00    +0.000 A 
ATOM     13  C   UNL     1      -5.028  12.713  19.744  0.00  0.00    +0.000 A 
ATOM     14  C   UNL     1      -5.647  12.353  18.549  0.00  0.00    +0.000 A 
ATOM     15  C   UNL     1      -4.901  11.780  17.524  0.00  0.00    +0.000 A 
ATOM     16  C   UNL     1      -3.537  11.555  17.697  0.00  0.00    +0.000 A 
ATOM     17  C   UNL     1      -2.898  11.909  18.900  0.00  0.00    +0.000 A 
ENDROOT
BRANCH   1  20
ATOM     18  C   UNL     1       0.340  10.694  20.471  0.00  0.00    +0.000 C 
ATOM     19  O   UNL     1       1.273  10.860  19.692  0.00  0.00    +0.000 OA
ATOM     20  N   UNL     1      -0.937  11.103  20.204  0.00  0.00    +0.000 N 
ATOM     21  H   UNL     1      -1.637  10.915  20.902  0.00  0.00    +0.000 HD
BRANCH  18  23
ATOM     22  C   UNL     1      -0.464  10.249  22.873  0.00  0.00    +0.000 C 
ATOM     23  C   UNL     1       0.516   9.885  21.754  0.00  0.00    +0.000 C 
BRANCH  23  24
ATOM     24  C   UNL     1       0.459   8.398  21.445  0.00  0.00    +0.000 C 
ATOM     25  O   UNL     1      -0.549   7.713  21.607  0.00  0.00    +0.000 OA
ATOM     26  N   UNL     1       1.642   7.873  20.969  0.00  0.00    +0.000 N 
ATOM     27  H   UNL     1       2.386   8.518  20.705  0.00  0.00    +0.000 HD
BRANCH  26  28
ATOM     28  C   UNL     1       1.742   6.486  20.558  0.00  0.00    +0.000 C 
BRANCH  28  29
ATOM     29  C   UNL     1       2.937   6.251  19.648  0.00  0.00    +0.000 C 
BRANCH  29  30
ATOM     30  C   UNL     1       2.524   6.213  18.195  0.00  0.00    +0.000 C 
ATOM     31  F   UNL     1       1.653   5.220  17.923  0.00  0.00    +0.000 F 
ATOM     32  F   UNL     1       1.945   7.377  17.825  0.00  0.00    +0.000 F 
ATOM     33  F   UNL     1       3.603   6.030  17.398  0.00  0.00    +0.000 F 
ENDBRANCH  29  30
ENDBRANCH  28  29
ENDBRANCH  26  28
ENDBRANCH  23  24
ENDBRANCH  18  23
ENDBRANCH   1  20
TORSDOF 6
ENDMDL
MODEL 2
REMARK VINA RESULT:      -7.3      4.214      9.875
REMARK  Name = 
REMARK  8 active torsions:
REMARK  status: ('A' for Active; 'I' for Inactive)
REMARK    1  A    between atoms: C_1  and  C_2
REMARK    2  A    between atoms: C_2  and  C_3
REMARK    3  A    between atoms: C_2  and  C_12
REMARK    4  A    between atoms: N_5  and  C_6
REMARK    5  A    between atoms: C_6  and  C_7
REMARK    6  A    between atoms: C_7  and  C_8
REMARK    7  A    between atoms: N_14  and  C_15
REMARK    8  A    between atoms: N_18  and  C_19
REMARK                            x       y       z     vdW  Elec       q    Type
REMARK                         _______ _______ _______ _____ _____    ______ ____
ROOT
ATOM      1  C   UNL     1       5.037   7.002  16.691  0.00  0.00    +0.000 C 
ATOM      2  C   UNL     1       5.297   5.968  15.565  0.00  0.00    +0.000 C 
ATOM      3  O   UNL     1       5.544   6.357  14.422  0.00  0.00    +0.000 OA
ATOM      4  N   UNL     1       5.312   4.603  15.905  0.00  0.00    +0.000 N 
ATOM      5  C   UNL     1       5.867   3.663  14.936  0.00  0.00    +0.000 C 
ATOM      6  C   UNL     1       5.004   4.073  17.195  0.00  0.00    +0.000 A 
ATOM      7  C   UNL     1       4.066   3.027  17.256  0.00  0.00    +0.000 A 
ATOM      8  C   UNL     1       3.576   2.571  18.480  0.00  0.00    +0.000 A 
ATOM      9  C   UNL     1       4.037   3.135  19.662  0.00  0.00    +0.000 A 
ATOM     10  C   UNL     1       4.992   4.149  19.622  0.00  0.00    +0.000 A 
ATOM     11  C   UNL     1       5.493   4.641  18.398  0.00  0.00    +0.000 A 
ATOM     12  C   UNL     1       6.452   5.762  18.410  0.00  0.00    +0.000 A 
ATOM     13  C   UNL     1       7.633   5.672  19.172  0.00  0.00    +0.000 A 
ATOM     14  C   UNL     1       8.586   6.688  19.140  0.00  0.00    +0.000 A 
ATOM     15  C   UNL     1       8.374   7.817  18.356  0.00  0.00    +0.000 A 
ATOM     16  C   UNL     1       7.201   7.938  17.612  0.00  0.00    +0.000 A 
ATOM     17  C   UNL     1       6.227   6.922  17.637  0.00  0.00    +0.000 A 
ENDROOT
BRANCH   1  20
ATOM     18  C   UNL     1       2.886   7.762  17.765  0.00  0.00    +0.000 C 
ATOM     19  O   UNL     1       3.107   8.961  17.618  0.00  0.00    +0.000 OA
ATOM     20  N   UNL     1       3.756   6.788  17.364  0.00  0.00    +0.000 N 
ATOM     21  H   UNL     1       3.491   5.833  17.534  0.00  0.00    +0.000 HD
BRANCH  18  23
ATOM     22  C   UNL     1       1.658   5.769  18.829  0.00  0.00    +0.000 C 
ATOM     23  C   UNL     1       1.665   7.273  18.541  0.00  0.00    +0.000 C 
BRANCH  23  24
ATOM     24  C   UNL     1       1.508   8.072  19.824  0.00  0.00    +0.000 C 
ATOM     25  O   UNL     1       1.701   7.599  20.942  0.00  0.00    +0.000 OA
ATOM     26  N   UNL     1       1.122   9.383  19.631  0.00  0.00    +0.000 N 
ATOM     27  H   UNL     1       1.136   9.756  18.682  0.00  0.00    +0.000 HD
BRANCH  26  28
ATOM     28  C   UNL     1       0.995  10.304  20.743  0.00  0.00    +0.000 C 
BRANCH  28  29
ATOM     29  C   UNL     1      -0.421  10.334  21.293  0.00  0.00    +0.000 C 
BRANCH  29  30
ATOM     30  C   UNL     1      -0.504   9.653  22.640  0.00  0.00    +0.000 C 
ATOM     31  F   UNL     1       0.691   9.574  23.261  0.00  0.00    +0.000 F 
ATOM     32  F   UNL     1      -1.351  10.309  23.464  0.00  0.00    +0.000 F 
ATOM     33  F   UNL     1      -0.970   8.390  22.507  0.00  0.00    +0.000 F 
ENDBRANCH  29  30
ENDBRANCH  28  29
ENDBRANCH  26  28
ENDBRANCH  23  24
ENDBRANCH  18  23
ENDBRANCH   1  20
TORSDOF 6
ENDMDL
MODEL 3
REMARK VINA RESULT:      -6.9      1.336      1.634
REMARK  Name = 
REMARK  8 active torsions:
REMARK  status: ('A' for Active; 'I' for Inactive)
REMARK    1  A    between atoms: C_1  and  C_2
REMARK    2  A    between atoms: C_2  and  C_3
REMARK    3  A    between atoms: C_2  and  C_12
REMARK    4  A    between atoms: N_5  and  C_6
REMARK    5  A    between atoms: C_6  and  C_7
REMARK    6  A    between atoms: C_7  and  C_8
REMARK    7  A    between atoms: N_14  and  C_15
REMARK    8  A    between atoms: N_18  and  C_19
REMARK                            x       y       z     vdW  Elec       q    Type
REMARK                         _______ _______ _______ _____ _____    ______ ____
ROOT
ATOM      1  C   UNL     1      -1.216  11.812  18.923  0.00  0.00    +0.000 C 
ATOM      2  C   UNL     1      -0.714  13.279  18.893  0.00  0.00    +0.000 C 
ATOM      3  O   UNL     1      -0.092  13.694  17.913  0.00  0.00    +0.000 OA
ATOM      4  N   UNL     1      -1.051  14.120  19.969  0.00  0.00    +0.000 N 
ATOM      5  C   UNL     1      -0.866  15.558  19.798  0.00  0.00    +0.000 C 
ATOM      6  C   UNL     1      -1.738  13.707  21.152  0.00  0.00    +0.000 A 
ATOM      7  C   UNL     1      -1.167  14.061  22.387  0.00  0.00    +0.000 A 
ATOM      8  C   UNL     1      -1.670  13.553  23.584  0.00  0.00    +0.000 A 
ATOM      9  C   UNL     1      -2.770  12.706  23.567  0.00  0.00    +0.000 A 
ATOM     10  C   UNL     1      -3.371  12.372  22.354  0.00  0.00    +0.000 A 
ATOM     11  C   UNL     1      -2.872  12.857  21.127  0.00  0.00    +0.000 A 
ATOM     12  C   UNL     1      -3.504  12.418  19.868  0.00  0.00    +0.000 A 
ATOM     13  C   UNL     1      -4.890  12.577  19.681  0.00  0.00    +0.000 A 
ATOM     14  C   UNL     1      -5.495  12.237  18.473  0.00  0.00    +0.000 A 
ATOM     15  C   UNL     1      -4.729  11.722  17.432  0.00  0.00    +0.000 A 
ATOM     16  C   UNL     1      -3.358  11.535  17.603  0.00  0.00    +0.000 A 
ATOM     17  C   UNL     1      -2.734  11.870  18.819  0.00  0.00    +0.000 A 
ENDROOT
BRANCH   1  20
ATOM     18  C   UNL     1       0.514  10.608  20.307  0.00  0.00    +0.000 C 
ATOM     19  O   UNL     1       1.416  10.724  19.483  0.00  0.00    +0.000 OA
ATOM     20  N   UNL     1      -0.751  11.084  20.102  0.00  0.00    +0.000 N 
ATOM     21  H   UNL     1      -1.425  10.934  20.834  0.00  0.00    +0.000 HD
BRANCH  18  23
ATOM     22  C   UNL     1      -0.184  10.214  22.750  0.00  0.00    +0.000 C 
ATOM     23  C   UNL     1       0.708   9.789  21.581  0.00  0.00    +0.000 C 
BRANCH  23  24
ATOM     24  C   UNL     1       0.541   8.308  21.281  0.00  0.00    +0.000 C 
ATOM     25  O   UNL     1      -0.458   7.665  21.595  0.00  0.00    +0.000 OA
ATOM     26  N   UNL     1       1.614   7.739  20.626  0.00  0.00    +0.000 N 
ATOM     27  H   UNL     1       2.335   8.356  20.253  0.00  0.00    +0.000 HD
BRANCH  26  28
ATOM     28  C   UNL     1       1.590   6.354  20.201  0.00  0.00    +0.000 C 
BRANCH  28  29
ATOM     29  C   UNL     1       2.391   5.461  21.135  0.00  0.00    +0.000 C 
BRANCH  29  30
ATOM     30  C   UNL     1       1.947   4.020  21.035  0.00  0.00    +0.000 C 
ATOM     31  F   UNL     1       0.666   3.893  20.635  0.00  0.00    +0.000 F 
ATOM     32  F   UNL     1       2.718   3.335  20.161  0.00  0.00    +0.000 F 
ATOM     33  F   UNL     1       2.056   3.404  22.235  0.00  0.00    +0.000 F 
ENDBRANCH  29  30
ENDBRANCH  28  29
ENDBRANCH  26  28
ENDBRANCH  23  24
ENDBRANCH  18  23
ENDBRANCH   1  20
TORSDOF 6
ENDMDL
MODEL 4
REMARK VINA RESULT:      -6.8      4.287      9.968
REMARK  Name = 
REMARK  8 active torsions:
REMARK  status: ('A' for Active; 'I' for Inactive)
REMARK    1  A    between atoms: C_1  and  C_2
REMARK    2  A    between atoms: C_2  and  C_3
REMARK    3  A    between atoms: C_2  and  C_12
REMARK    4  A    between atoms: N_5  and  C_6
REMARK    5  A    between atoms: C_6  and  C_7
REMARK    6  A    between atoms: C_7  and  C_8
REMARK    7  A    between atoms: N_14  and  C_15
REMARK    8  A    between atoms: N_18  and  C_19
REMARK                            x       y       z     vdW  Elec       q    Type
REMARK                         _______ _______ _______ _____ _____    ______ ____
ROOT
ATOM      1  C   UNL     1       4.965   6.838  16.584  0.00  0.00    +0.000 C 
ATOM      2  C   UNL     1       5.317   5.861  15.432  0.00  0.00    +0.000 C 
ATOM      3  O   UNL     1       5.557   6.303  14.307  0.00  0.00    +0.000 OA
ATOM      4  N   UNL     1       5.422   4.490  15.729  0.00  0.00    +0.000 N 
ATOM      5  C   UNL     1       6.059   3.623  14.743  0.00  0.00    +0.000 C 
ATOM      6  C   UNL     1       5.128   3.899  16.996  0.00  0.00    +0.000 A 
ATOM      7  C   UNL     1       4.264   2.789  17.006  0.00  0.00    +0.000 A 
ATOM      8  C   UNL     1       3.785   2.261  18.204  0.00  0.00    +0.000 A 
ATOM      9  C   UNL     1       4.184   2.816  19.413  0.00  0.00    +0.000 A 
ATOM     10  C   UNL     1       5.067   3.895  19.423  0.00  0.00    +0.000 A 
ATOM     11  C   UNL     1       5.554   4.460  18.226  0.00  0.00    +0.000 A 
ATOM     12  C   UNL     1       6.432   5.644  18.293  0.00  0.00    +0.000 A 
ATOM     13  C   UNL     1       7.603   5.611  19.074  0.00  0.00    +0.000 A 
ATOM     14  C   UNL     1       8.483   6.691  19.094  0.00  0.00    +0.000 A 
ATOM     15  C   UNL     1       8.207   7.827  18.341  0.00  0.00    +0.000 A 
ATOM     16  C   UNL     1       7.042   7.891  17.578  0.00  0.00    +0.000 A 
ATOM     17  C   UNL     1       6.141   6.810  17.551  0.00  0.00    +0.000 A 
ENDROOT
BRANCH   1  20
ATOM     18  C   UNL     1       2.877   7.391  17.884  0.00  0.00    +0.000 C 
ATOM     19  O   UNL     1       3.152   8.578  18.035  0.00  0.00    +0.000 OA
ATOM     20  N   UNL     1       3.691   6.514  17.224  0.00  0.00    +0.000 N 
ATOM     21  H   UNL     1       3.384   5.558  17.158  0.00  0.00    +0.000 HD
BRANCH  18  23
ATOM     22  C   UNL     1       1.473   5.275  18.288  0.00  0.00    +0.000 C 
ATOM     23  C   UNL     1       1.652   6.773  18.553  0.00  0.00    +0.000 C 
BRANCH  23  24
ATOM     24  C   UNL     1       1.670   7.062  20.045  0.00  0.00    +0.000 C 
ATOM     25  O   UNL     1       1.890   6.202  20.896  0.00  0.00    +0.000 OA
ATOM     26  N   UNL     1       1.411   8.377  20.370  0.00  0.00    +0.000 N 
ATOM     27  H   UNL     1       1.398   9.067  19.619  0.00  0.00    +0.000 HD
BRANCH  26  28
ATOM     28  C   UNL     1       1.460   8.840  21.743  0.00  0.00    +0.000 C 
BRANCH  28  29
ATOM     29  C   UNL     1       0.084   9.227  22.258  0.00  0.00    +0.000 C 
BRANCH  29  30
ATOM     30  C   UNL     1      -0.268  10.647  21.879  0.00  0.00    +0.000 C 
ATOM     31  F   UNL     1      -1.096  10.715  20.817  0.00  0.00    +0.000 F 
ATOM     32  F   UNL     1      -0.867  11.289  22.907  0.00  0.00    +0.000 F 
ATOM     33  F   UNL     1       0.847  11.346  21.564  0.00  0.00    +0.000 F 
ENDBRANCH  29  30
ENDBRANCH  28  29
ENDBRANCH  26  28
ENDBRANCH  23  24
ENDBRANCH  18  23
ENDBRANCH   1  20
TORSDOF 6
ENDMDL
MODEL 5
REMARK VINA RESULT:      -6.8      4.097      9.803
REMARK  Name = 
REMARK  8 active torsions:
REMARK  status: ('A' for Active; 'I' for Inactive)
REMARK    1  A    between atoms: C_1  and  C_2
REMARK    2  A    between atoms: C_2  and  C_3
REMARK    3  A    between atoms: C_2  and  C_12
REMARK    4  A    between atoms: N_5  and  C_6
REMARK    5  A    between atoms: C_6  and  C_7
REMARK    6  A    between atoms: C_7  and  C_8
REMARK    7  A    between atoms: N_14  and  C_15
REMARK    8  A    between atoms: N_18  and  C_19
REMARK                            x       y       z     vdW  Elec       q    Type
REMARK                         _______ _______ _______ _____ _____    ______ ____
ROOT
ATOM      1  C   UNL     1       5.001   7.102  16.738  0.00  0.00    +0.000 C 
ATOM      2  C   UNL     1       5.156   6.013  15.645  0.00  0.00    +0.000 C 
ATOM      3  O   UNL     1       5.447   6.339  14.492  0.00  0.00    +0.000 OA
ATOM      4  N   UNL     1       5.028   4.664  16.025  0.00  0.00    +0.000 N 
ATOM      5  C   UNL     1       5.486   3.643  15.088  0.00  0.00    +0.000 C 
ATOM      6  C   UNL     1       4.661   4.209  17.328  0.00  0.00    +0.000 A 
ATOM      7  C   UNL     1       3.619   3.269  17.413  0.00  0.00    +0.000 A 
ATOM      8  C   UNL     1       3.080   2.903  18.647  0.00  0.00    +0.000 A 
ATOM      9  C   UNL     1       3.592   3.451  19.815  0.00  0.00    +0.000 A 
ATOM     10  C   UNL     1       4.648   4.359  19.751  0.00  0.00    +0.000 A 
ATOM     11  C   UNL     1       5.202   4.759  18.517  0.00  0.00    +0.000 A 
ATOM     12  C   UNL     1       6.272   5.774  18.503  0.00  0.00    +0.000 A 
ATOM     13  C   UNL     1       7.435   5.585  19.274  0.00  0.00    +0.000 A 
ATOM     14  C   UNL     1       8.489   6.494  19.219  0.00  0.00    +0.000 A 
ATOM     15  C   UNL     1       8.398   7.615  18.401  0.00  0.00    +0.000 A 
ATOM     16  C   UNL     1       7.248   7.835  17.645  0.00  0.00    +0.000 A 
ATOM     17  C   UNL     1       6.173   6.928  17.693  0.00  0.00    +0.000 A 
ENDROOT
BRANCH   1  20
ATOM     18  C   UNL     1       2.912   8.111  17.725  0.00  0.00    +0.000 C 
ATOM     19  O   UNL     1       3.232   9.274  17.495  0.00  0.00    +0.000 OA
ATOM     20  N   UNL     1       3.703   7.043  17.407  0.00  0.00    +0.000 N 
ATOM     21  H   UNL     1       3.359   6.127  17.643  0.00  0.00    +0.000 HD
BRANCH  18  23
ATOM     22  C   UNL     1       1.875   6.834  19.701  0.00  0.00    +0.000 C 
ATOM     23  C   UNL     1       1.651   7.781  18.519  0.00  0.00    +0.000 C 
BRANCH  23  24
ATOM     24  C   UNL     1       0.969   9.062  18.972  0.00  0.00    +0.000 C 
ATOM     25  O   UNL     1       1.028   9.486  20.125  0.00  0.00    +0.000 OA
ATOM     26  N   UNL     1       0.267   9.712  17.978  0.00  0.00    +0.000 N 
ATOM     27  H   UNL     1       0.391   9.399  17.016  0.00  0.00    +0.000 HD
BRANCH  26  28
ATOM     28  C   UNL     1      -0.383  10.985  18.221  0.00  0.00    +0.000 C 
BRANCH  28  29
ATOM     29  C   UNL     1      -1.833  10.808  18.639  0.00  0.00    +0.000 C 
BRANCH  29  30
ATOM     30  C   UNL     1      -2.737  10.644  17.439  0.00  0.00    +0.000 C 
ATOM     31  F   UNL     1      -2.104  10.878  16.271  0.00  0.00    +0.000 F 
ATOM     32  F   UNL     1      -3.247   9.393  17.383  0.00  0.00    +0.000 F 
ATOM     33  F   UNL     1      -3.781  11.501  17.508  0.00  0.00    +0.000 F 
ENDBRANCH  29  30
ENDBRANCH  28  29
ENDBRANCH  26  28
ENDBRANCH  23  24
ENDBRANCH  18  23
ENDBRANCH   1  20
TORSDOF 6
ENDMDL
MODEL 6
REMARK VINA RESULT:      -6.7      1.184      1.404
REMARK  Name = 
REMARK  8 active torsions:
REMARK  status: ('A' for Active; 'I' for Inactive)
REMARK    1  A    between atoms: C_1  and  C_2
REMARK    2  A    between atoms: C_2  and  C_3
REMARK    3  A    between atoms: C_2  and  C_12
REMARK    4  A    between atoms: N_5  and  C_6
REMARK    5  A    between atoms: C_6  and  C_7
REMARK    6  A    between atoms: C_7  and  C_8
REMARK    7  A    between atoms: N_14  and  C_15
REMARK    8  A    between atoms: N_18  and  C_19
REMARK                            x       y       z     vdW  Elec       q    Type
REMARK                         _______ _______ _______ _____ _____    ______ ____
ROOT
ATOM      1  C   UNL     1      -0.626  11.920  18.591  0.00  0.00    +0.000 C 
ATOM      2  C   UNL     1      -0.285  13.432  18.637  0.00  0.00    +0.000 C 
ATOM      3  O   UNL     1       0.285  13.961  17.681  0.00  0.00    +0.000 OA
ATOM      4  N   UNL     1      -0.708  14.177  19.754  0.00  0.00    +0.000 N 
ATOM      5  C   UNL     1      -0.679  15.632  19.656  0.00  0.00    +0.000 C 
ATOM      6  C   UNL     1      -1.343  13.632  20.911  0.00  0.00    +0.000 A 
ATOM      7  C   UNL     1      -0.809  13.982  22.165  0.00  0.00    +0.000 A 
ATOM      8  C   UNL     1      -1.252  13.362  23.333  0.00  0.00    +0.000 A 
ATOM      9  C   UNL     1      -2.254  12.403  23.270  0.00  0.00    +0.000 A 
ATOM     10  C   UNL     1      -2.819  12.069  22.040  0.00  0.00    +0.000 A 
ATOM     11  C   UNL     1      -2.379  12.667  20.841  0.00  0.00    +0.000 A 
ATOM     12  C   UNL     1      -2.963  12.228  19.560  0.00  0.00    +0.000 A 
ATOM     13  C   UNL     1      -4.359  12.245  19.377  0.00  0.00    +0.000 A 
ATOM     14  C   UNL     1      -4.927  11.904  18.152  0.00  0.00    +0.000 A 
ATOM     15  C   UNL     1      -4.113  11.528  17.088  0.00  0.00    +0.000 A 
ATOM     16  C   UNL     1      -2.730  11.481  17.252  0.00  0.00    +0.000 A 
ATOM     17  C   UNL     1      -2.142  11.820  18.485  0.00  0.00    +0.000 A 
ENDROOT
BRANCH   1  20
ATOM     18  C   UNL     1       0.654  10.038  19.675  0.00  0.00    +0.000 C 
ATOM     19  O   UNL     1       0.924   9.467  18.622  0.00  0.00    +0.000 OA
ATOM     20  N   UNL     1      -0.082  11.188  19.733  0.00  0.00    +0.000 N 
ATOM     21  H   UNL     1      -0.258  11.578  20.643  0.00  0.00    +0.000 HD
BRANCH  18  23
ATOM     22  C   UNL     1      -0.020   9.666  22.128  0.00  0.00    +0.000 C 
ATOM     23  C   UNL     1       1.011   9.418  21.023  0.00  0.00    +0.000 C 
BRANCH  23  24
ATOM     24  C   UNL     1       1.284   7.932  20.859  0.00  0.00    +0.000 C 
ATOM     25  O   UNL     1       0.561   7.057  21.331  0.00  0.00    +0.000 OA
ATOM     26  N   UNL     1       2.423   7.642  20.136  0.00  0.00    +0.000 N 
ATOM     27  H   UNL     1       2.886   8.402  19.638  0.00  0.00    +0.000 HD
BRANCH  26  28
ATOM     28  C   UNL     1       2.793   6.275  19.824  0.00  0.00    +0.000 C 
BRANCH  28  29
ATOM     29  C   UNL     1       2.347   5.873  18.428  0.00  0.00    +0.000 C 
BRANCH  29  30
ATOM     30  C   UNL     1       1.757   4.482  18.417  0.00  0.00    +0.000 C 
ATOM     31  F   UNL     1       1.066   4.216  17.290  0.00  0.00    +0.000 F 
ATOM     32  F   UNL     1       2.724   3.544  18.535  0.00  0.00    +0.000 F 
ATOM     33  F   UNL     1       0.908   4.317  19.457  0.00  0.00    +0.000 F 
ENDBRANCH  29  30
ENDBRANCH  28  29
ENDBRANCH  26  28
ENDBRANCH  23  24
ENDBRANCH  18  23
ENDBRANCH   1  20
TORSDOF 6
ENDMDL
MODEL 7
REMARK VINA RESULT:      -6.6      4.123      9.874
REMARK  Name = 
REMARK  8 active torsions:
REMARK  status: ('A' for Active; 'I' for Inactive)
REMARK    1  A    between atoms: C_1  and  C_2
REMARK    2  A    between atoms: C_2  and  C_3
REMARK    3  A    between atoms: C_2  and  C_12
REMARK    4  A    between atoms: N_5  and  C_6
REMARK    5  A    between atoms: C_6  and  C_7
REMARK    6  A    between atoms: C_7  and  C_8
REMARK    7  A    between atoms: N_14  and  C_15
REMARK    8  A    between atoms: N_18  and  C_19
REMARK                            x       y       z     vdW  Elec       q    Type
REMARK                         _______ _______ _______ _____ _____    ______ ____
ROOT
ATOM      1  C   UNL     1       5.046   6.976  16.732  0.00  0.00    +0.000 C 
ATOM      2  C   UNL     1       5.272   5.905  15.634  0.00  0.00    +0.000 C 
ATOM      3  O   UNL     1       5.528   6.257  14.480  0.00  0.00    +0.000 OA
ATOM      4  N   UNL     1       5.247   4.550  16.009  0.00  0.00    +0.000 N 
ATOM      5  C   UNL     1       5.772   3.569  15.065  0.00  0.00    +0.000 C 
ATOM      6  C   UNL     1       4.926   4.064  17.313  0.00  0.00    +0.000 A 
ATOM      7  C   UNL     1       3.957   3.049  17.403  0.00  0.00    +0.000 A 
ATOM      8  C   UNL     1       3.456   2.640  18.639  0.00  0.00    +0.000 A 
ATOM      9  C   UNL     1       3.936   3.220  19.806  0.00  0.00    +0.000 A 
ATOM     10  C   UNL     1       4.922   4.204  19.737  0.00  0.00    +0.000 A 
ATOM     11  C   UNL     1       5.434   4.649  18.501  0.00  0.00    +0.000 A 
ATOM     12  C   UNL     1       6.426   5.740  18.482  0.00  0.00    +0.000 A 
ATOM     13  C   UNL     1       7.606   5.635  19.243  0.00  0.00    +0.000 A 
ATOM     14  C   UNL     1       8.589   6.620  19.184  0.00  0.00    +0.000 A 
ATOM     15  C   UNL     1       8.409   7.734  18.370  0.00  0.00    +0.000 A 
ATOM     16  C   UNL     1       7.239   7.871  17.625  0.00  0.00    +0.000 A 
ATOM     17  C   UNL     1       6.235   6.886  17.678  0.00  0.00    +0.000 A 
ENDROOT
BRANCH   1  20
ATOM     18  C   UNL     1       2.907   7.827  17.762  0.00  0.00    +0.000 C 
ATOM     19  O   UNL     1       3.149   9.012  17.556  0.00  0.00    +0.000 OA
ATOM     20  N   UNL     1       3.761   6.819  17.412  0.00  0.00    +0.000 N 
ATOM     21  H   UNL     1       3.479   5.878  17.629  0.00  0.00    +0.000 HD
BRANCH  18  23
ATOM     22  C   UNL     1       1.775   5.998  19.171  0.00  0.00    +0.000 C 
ATOM     23  C   UNL     1       1.677   7.399  18.559  0.00  0.00    +0.000 C 
BRANCH  23  24
ATOM     24  C   UNL     1       1.359   8.435  19.624  0.00  0.00    +0.000 C 
ATOM     25  O   UNL     1       1.496   8.230  20.828  0.00  0.00    +0.000 OA
ATOM     26  N   UNL     1       0.892   9.634  19.125  0.00  0.00    +0.000 N 
ATOM     27  H   UNL     1       0.954   9.797  18.121  0.00  0.00    +0.000 HD
BRANCH  26  28
ATOM     28  C   UNL     1       0.608  10.756  19.998  0.00  0.00    +0.000 C 
BRANCH  28  29
ATOM     29  C   UNL     1      -0.881  10.898  20.269  0.00  0.00    +0.000 C 
BRANCH  29  30
ATOM     30  C   UNL     1      -1.640  11.247  19.009  0.00  0.00    +0.000 C 
ATOM     31  F   UNL     1      -0.910  11.981  18.145  0.00  0.00    +0.000 F 
ATOM     32  F   UNL     1      -2.041  10.131  18.360  0.00  0.00    +0.000 F 
ATOM     33  F   UNL     1      -2.750  11.962  19.305  0.00  0.00    +0.000 F 
ENDBRANCH  29  30
ENDBRANCH  28  29
ENDBRANCH  26  28
ENDBRANCH  23  24
ENDBRANCH  18  23
ENDBRANCH   1  20
TORSDOF 6
ENDMDL
MODEL 8
REMARK VINA RESULT:      -6.5      4.164      9.867
REMARK  Name = 
REMARK  8 active torsions:
REMARK  status: ('A' for Active; 'I' for Inactive)
REMARK    1  A    between atoms: C_1  and  C_2
REMARK    2  A    between atoms: C_2  and  C_3
REMARK    3  A    between atoms: C_2  and  C_12
REMARK    4  A    between atoms: N_5  and  C_6
REMARK    5  A    between atoms: C_6  and  C_7
REMARK    6  A    between atoms: C_7  and  C_8
REMARK    7  A    between atoms: N_14  and  C_15
REMARK    8  A    between atoms: N_18  and  C_19
REMARK                            x       y       z     vdW  Elec       q    Type
REMARK                         _______ _______ _______ _____ _____    ______ ____
ROOT
ATOM      1  C   UNL     1       5.047   6.992  16.717  0.00  0.00    +0.000 C 
ATOM      2  C   UNL     1       5.269   5.915  15.623  0.00  0.00    +0.000 C 
ATOM      3  O   UNL     1       5.532   6.260  14.469  0.00  0.00    +0.000 OA
ATOM      4  N   UNL     1       5.234   4.562  16.004  0.00  0.00    +0.000 N 
ATOM      5  C   UNL     1       5.754   3.573  15.065  0.00  0.00    +0.000 C 
ATOM      6  C   UNL     1       4.904   4.083  17.309  0.00  0.00    +0.000 A 
ATOM      7  C   UNL     1       3.928   3.076  17.400  0.00  0.00    +0.000 A 
ATOM      8  C   UNL     1       3.420   2.675  18.635  0.00  0.00    +0.000 A 
ATOM      9  C   UNL     1       3.901   3.256  19.801  0.00  0.00    +0.000 A 
ATOM     10  C   UNL     1       4.893   4.233  19.732  0.00  0.00    +0.000 A 
ATOM     11  C   UNL     1       5.413   4.669  18.496  0.00  0.00    +0.000 A 
ATOM     12  C   UNL     1       6.413   5.753  18.476  0.00  0.00    +0.000 A 
ATOM     13  C   UNL     1       7.590   5.642  19.242  0.00  0.00    +0.000 A 
ATOM     14  C   UNL     1       8.581   6.619  19.181  0.00  0.00    +0.000 A 
ATOM     15  C   UNL     1       8.411   7.732  18.363  0.00  0.00    +0.000 A 
ATOM     16  C   UNL     1       7.245   7.874  17.613  0.00  0.00    +0.000 A 
ATOM     17  C   UNL     1       6.233   6.897  17.667  0.00  0.00    +0.000 A 
ENDROOT
BRANCH   1  20
ATOM     18  C   UNL     1       2.915   7.863  17.743  0.00  0.00    +0.000 C 
ATOM     19  O   UNL     1       3.171   9.046  17.540  0.00  0.00    +0.000 OA
ATOM     20  N   UNL     1       3.760   6.847  17.393  0.00  0.00    +0.000 N 
ATOM     21  H   UNL     1       3.467   5.909  17.608  0.00  0.00    +0.000 HD
BRANCH  18  23
ATOM     22  C   UNL     1       1.809   6.097  19.249  0.00  0.00    +0.000 C 
ATOM     23  C   UNL     1       1.679   7.446  18.536  0.00  0.00    +0.000 C 
BRANCH  23  24
ATOM     24  C   UNL     1       1.293   8.542  19.515  0.00  0.00    +0.000 C 
ATOM     25  O   UNL     1       1.391   8.423  20.735  0.00  0.00    +0.000 OA
ATOM     26  N   UNL     1       0.813   9.691  18.920  0.00  0.00    +0.000 N 
ATOM     27  H   UNL     1       0.909   9.787  17.909  0.00  0.00    +0.000 HD
BRANCH  26  28
ATOM     28  C   UNL     1       0.466  10.860  19.703  0.00  0.00    +0.000 C 
BRANCH  28  29
ATOM     29  C   UNL     1       0.396  12.113  18.847  0.00  0.00    +0.000 C 
BRANCH  29  30
ATOM     30  C   UNL     1       1.744  12.787  18.743  0.00  0.00    +0.000 C 
ATOM     31  F   UNL     1       1.662  14.060  18.304  0.00  0.00    +0.000 F 
ATOM     32  F   UNL     1       2.369  12.808  19.943  0.00  0.00    +0.000 F 
ATOM     33  F   UNL     1       2.547  12.118  17.884  0.00  0.00    +0.000 F 
ENDBRANCH  29  30
ENDBRANCH  28  29
ENDBRANCH  26  28
ENDBRANCH  23  24
ENDBRANCH  18  23
ENDBRANCH   1  20
TORSDOF 6
ENDMDL
MODEL 9
REMARK VINA RESULT:      -6.5      3.990      6.016
REMARK  Name = 
REMARK  8 active torsions:
REMARK  status: ('A' for Active; 'I' for Inactive)
REMARK    1  A    between atoms: C_1  and  C_2
REMARK    2  A    between atoms: C_2  and  C_3
REMARK    3  A    between atoms: C_2  and  C_12
REMARK    4  A    between atoms: N_5  and  C_6
REMARK    5  A    between atoms: C_6  and  C_7
REMARK    6  A    between atoms: C_7  and  C_8
REMARK    7  A    between atoms: N_14  and  C_15
REMARK    8  A    between atoms: N_18  and  C_19
REMARK                            x       y       z     vdW  Elec       q    Type
REMARK                         _______ _______ _______ _____ _____    ______ ____
ROOT
ATOM      1  C   UNL     1      -0.509  12.264  19.624  0.00  0.00    +0.000 C 
ATOM      2  C   UNL     1      -2.005  12.255  19.214  0.00  0.00    +0.000 C 
ATOM      3  O   UNL     1      -2.341  11.757  18.138  0.00  0.00    +0.000 OA
ATOM      4  N   UNL     1      -2.949  12.756  20.128  0.00  0.00    +0.000 N 
ATOM      5  C   UNL     1      -4.357  12.457  19.890  0.00  0.00    +0.000 C 
ATOM      6  C   UNL     1      -2.636  13.377  21.376  0.00  0.00    +0.000 A 
ATOM      7  C   UNL     1      -3.232  14.621  21.645  0.00  0.00    +0.000 A 
ATOM      8  C   UNL     1      -2.850  15.377  22.754  0.00  0.00    +0.000 A 
ATOM      9  C   UNL     1      -1.885  14.888  23.625  0.00  0.00    +0.000 A 
ATOM     10  C   UNL     1      -1.308  13.640  23.392  0.00  0.00    +0.000 A 
ATOM     11  C   UNL     1      -1.664  12.862  22.271  0.00  0.00    +0.000 A 
ATOM     12  C   UNL     1      -0.974  11.580  22.035  0.00  0.00    +0.000 A 
ATOM     13  C   UNL     1      -0.939  10.600  23.046  0.00  0.00    +0.000 A 
ATOM     14  C   UNL     1      -0.356   9.355  22.819  0.00  0.00    +0.000 A 
ATOM     15  C   UNL     1       0.212   9.068  21.582  0.00  0.00    +0.000 A 
ATOM     16  C   UNL     1       0.210  10.030  20.574  0.00  0.00    +0.000 A 
ATOM     17  C   UNL     1      -0.372  11.294  20.789  0.00  0.00    +0.000 A 
ENDROOT
BRANCH   1  20
ATOM     18  C   UNL     1       0.927  14.301  19.241  0.00  0.00    +0.000 C 
ATOM     19  O   UNL     1       1.508  13.844  18.261  0.00  0.00    +0.000 OA
ATOM     20  N   UNL     1      -0.022  13.607  19.937  0.00  0.00    +0.000 N 
ATOM     21  H   UNL     1      -0.437  14.062  20.733  0.00  0.00    +0.000 HD
BRANCH  18  23
ATOM     22  C   UNL     1       1.246  15.706  21.370  0.00  0.00    +0.000 C 
ATOM     23  C   UNL     1       1.330  15.645  19.843  0.00  0.00    +0.000 C 
BRANCH  23  24
ATOM     24  C   UNL     1       2.716  16.039  19.359  0.00  0.00    +0.000 C 
ATOM     25  O   UNL     1       2.966  17.124  18.838  0.00  0.00    +0.000 OA
ATOM     26  N   UNL     1       3.679  15.069  19.549  0.00  0.00    +0.000 N 
ATOM     27  H   UNL     1       3.446  14.263  20.129  0.00  0.00    +0.000 HD
BRANCH  26  28
ATOM     28  C   UNL     1       5.068  15.307  19.210  0.00  0.00    +0.000 C 
BRANCH  28  29
ATOM     29  C   UNL     1       5.445  14.664  17.886  0.00  0.00    +0.000 C 
BRANCH  29  30
ATOM     30  C   UNL     1       6.926  14.370  17.817  0.00  0.00    +0.000 C 
ATOM     31  F   UNL     1       7.207  13.261  17.103  0.00  0.00    +0.000 F 
ATOM     32  F   UNL     1       7.599  15.399  17.255  0.00  0.00    +0.000 F 
ATOM     33  F   UNL     1       7.433  14.188  19.058  0.00  0.00    +0.000 F 
ENDBRANCH  29  30
ENDBRANCH  28  29
ENDBRANCH  26  28
ENDBRANCH  23  24
ENDBRANCH  18  23
ENDBRANCH   1  20
TORSDOF 6
ENDMDL
