MODEL 1
REMARK VINA RESULT:      -7.9      0.000      0.000
REMARK  Name = 
REMARK  5 active torsions:
REMARK  status: ('A' for Active; 'I' for Inactive)
REMARK    1  A    between atoms: C_1  and  N_2
REMARK    2  A    between atoms: C_5  and  N_6
REMARK    3  A    between atoms: N_6  and  C_7
REMARK    4  A    between atoms: C_11  and  C_12
REMARK    5  A    between atoms: C_13  and  C_14
REMARK                            x       y       z     vdW  Elec       q    Type
REMARK                         _______ _______ _______ _____ _____    ______ ____
ROOT
ATOM      1  C   UNL     1       7.945   8.106  17.567  0.00  0.00    +0.000 C 
ATOM      2  N   UNL     1       7.106   7.087  18.183  0.00  0.00    +0.000 N 
ATOM      3  C   UNL     1       6.750   6.038  17.309  0.00  0.00    +0.000 A 
ATOM      4  C   UNL     1       5.959   5.018  17.804  0.00  0.00    +0.000 A 
ATOM      5  C   UNL     1       5.570   4.031  16.921  0.00  0.00    +0.000 A 
ATOM      6  N   UNL     1       6.004   4.032  15.650  0.00  0.00    +0.000 NA
ATOM      7  C   UNL     1       6.781   5.038  15.262  0.00  0.00    +0.000 A 
ATOM      8  N   UNL     1       7.230   5.030  13.956  0.00  0.00    +0.000 N 
ATOM      9  N   UNL     1       7.183   6.038  16.043  0.00  0.00    +0.000 NA
ATOM     10  H   UNL     1       6.258   7.490  18.572  0.00  0.00    +0.000 HD
ATOM     11  H   UNL     1       7.227   4.077  13.617  0.00  0.00    +0.000 HD
ATOM     12  H   UNL     1       8.103   5.536  13.903  0.00  0.00    +0.000 HD
ENDROOT
BRANCH   5  13
ATOM     13  N   UNL     1       4.763   2.960  17.393  0.00  0.00    +0.000 N 
ATOM     14  H   UNL     1       5.320   2.321  17.952  0.00  0.00    +0.000 HD
BRANCH  13  15
ATOM     15  C   UNL     1       3.511   3.125  18.060  0.00  0.00    +0.000 A 
ATOM     16  C   UNL     1       2.440   3.765  17.415  0.00  0.00    +0.000 A 
ATOM     17  C   UNL     1       1.237   3.996  18.073  0.00  0.00    +0.000 A 
ATOM     18  C   UNL     1       1.092   3.606  19.400  0.00  0.00    +0.000 A 
ATOM     19  C   UNL     1       2.153   3.000  20.093  0.00  0.00    +0.000 A 
ATOM     20  C   UNL     1       1.927   2.601  21.525  0.00  0.00    +0.000 C 
ATOM     21  C   UNL     1       3.384   2.778  19.428  0.00  0.00    +0.000 A 
ATOM     22  C   UNL     1       4.563   2.161  20.139  0.00  0.00    +0.000 C 
ENDBRANCH  13  15
ENDBRANCH   5  13
TORSDOF 2
ENDMDL
MODEL 2
REMARK VINA RESULT:      -7.9      1.341      2.716
REMARK  Name = 
REMARK  5 active torsions:
REMARK  status: ('A' for Active; 'I' for Inactive)
REMARK    1  A    between atoms: C_1  and  N_2
REMARK    2  A    between atoms: C_5  and  N_6
REMARK    3  A    between atoms: N_6  and  C_7
REMARK    4  A    between atoms: C_11  and  C_12
REMARK    5  A    between atoms: C_13  and  C_14
REMARK                            x       y       z     vdW  Elec       q    Type
REMARK                         _______ _______ _______ _____ _____    ______ ____
ROOT
ATOM      1  C   UNL     1       7.447   5.031  13.283  0.00  0.00    +0.000 C 
ATOM      2  N   UNL     1       6.743   4.198  14.249  0.00  0.00    +0.000 N 
ATOM      3  C   UNL     1       6.677   4.758  15.542  0.00  0.00    +0.000 A 
ATOM      4  C   UNL     1       6.023   4.045  16.528  0.00  0.00    +0.000 A 
ATOM      5  C   UNL     1       6.020   4.578  17.802  0.00  0.00    +0.000 A 
ATOM      6  N   UNL     1       6.573   5.777  18.049  0.00  0.00    +0.000 NA
ATOM      7  C   UNL     1       7.162   6.407  17.038  0.00  0.00    +0.000 A 
ATOM      8  N   UNL     1       7.723   7.643  17.297  0.00  0.00    +0.000 N 
ATOM      9  N   UNL     1       7.228   5.953  15.789  0.00  0.00    +0.000 NA
ATOM     10  H   UNL     1       7.159   3.273  14.314  0.00  0.00    +0.000 HD
ATOM     11  H   UNL     1       7.261   8.047  18.101  0.00  0.00    +0.000 HD
ATOM     12  H   UNL     1       7.729   8.188  16.446  0.00  0.00    +0.000 HD
ENDROOT
BRANCH   5  13
ATOM     13  N   UNL     1       5.350   3.879  18.843  0.00  0.00    +0.000 N 
ATOM     14  H   UNL     1       5.874   3.954  19.709  0.00  0.00    +0.000 HD
BRANCH  13  15
ATOM     15  C   UNL     1       3.969   4.043  19.168  0.00  0.00    +0.000 A 
ATOM     16  C   UNL     1       3.545   5.140  19.937  0.00  0.00    +0.000 A 
ATOM     17  C   UNL     1       2.217   5.279  20.321  0.00  0.00    +0.000 A 
ATOM     18  C   UNL     1       1.289   4.309  19.957  0.00  0.00    +0.000 A 
ATOM     19  C   UNL     1       1.680   3.178  19.222  0.00  0.00    +0.000 A 
ATOM     20  C   UNL     1       0.626   2.169  18.860  0.00  0.00    +0.000 C 
ATOM     21  C   UNL     1       3.037   3.026  18.843  0.00  0.00    +0.000 A 
ATOM     22  C   UNL     1       3.513   1.813  18.084  0.00  0.00    +0.000 C 
ENDBRANCH  13  15
ENDBRANCH   5  13
TORSDOF 2
ENDMDL
MODEL 3
REMARK VINA RESULT:      -7.6      0.961      2.313
REMARK  Name = 
REMARK  5 active torsions:
REMARK  status: ('A' for Active; 'I' for Inactive)
REMARK    1  A    between atoms: C_1  and  N_2
REMARK    2  A    between atoms: C_5  and  N_6
REMARK    3  A    between atoms: N_6  and  C_7
REMARK    4  A    between atoms: C_11  and  C_12
REMARK    5  A    between atoms: C_13  and  C_14
REMARK                            x       y       z     vdW  Elec       q    Type
REMARK                         _______ _______ _______ _____ _____    ______ ____
ROOT
ATOM      1  C   UNL     1       8.015   5.603  12.970  0.00  0.00    +0.000 C 
ATOM      2  N   UNL     1       7.123   4.556  13.451  0.00  0.00    +0.000 N 
ATOM      3  C   UNL     1       6.800   4.668  14.820  0.00  0.00    +0.000 A 
ATOM      4  C   UNL     1       5.953   3.724  15.368  0.00  0.00    +0.000 A 
ATOM      5  C   UNL     1       5.695   3.813  16.722  0.00  0.00    +0.000 A 
ATOM      6  N   UNL     1       6.196   4.820  17.455  0.00  0.00    +0.000 NA
ATOM      7  C   UNL     1       6.983   5.699  16.844  0.00  0.00    +0.000 A 
ATOM      8  N   UNL     1       7.489   6.737  17.602  0.00  0.00    +0.000 N 
ATOM      9  N   UNL     1       7.298   5.672  15.552  0.00  0.00    +0.000 NA
ATOM     10  H   UNL     1       7.510   3.632  13.281  0.00  0.00    +0.000 HD
ATOM     11  H   UNL     1       6.877   6.891  18.392  0.00  0.00    +0.000 HD
ATOM     12  H   UNL     1       7.673   7.527  16.999  0.00  0.00    +0.000 HD
ENDROOT
BRANCH   5  13
ATOM     13  N   UNL     1       4.822   2.864  17.323  0.00  0.00    +0.000 N 
ATOM     14  H   UNL     1       5.342   2.255  17.947  0.00  0.00    +0.000 HD
BRANCH  13  15
ATOM     15  C   UNL     1       3.598   3.197  17.980  0.00  0.00    +0.000 A 
ATOM     16  C   UNL     1       2.610   3.938  17.311  0.00  0.00    +0.000 A 
ATOM     17  C   UNL     1       1.443   4.329  17.956  0.00  0.00    +0.000 A 
ATOM     18  C   UNL     1       1.252   4.000  19.293  0.00  0.00    +0.000 A 
ATOM     19  C   UNL     1       2.233   3.294  20.009  0.00  0.00    +0.000 A 
ATOM     20  C   UNL     1       1.960   2.969  21.452  0.00  0.00    +0.000 C 
ATOM     21  C   UNL     1       3.430   2.908  19.357  0.00  0.00    +0.000 A 
ATOM     22  C   UNL     1       4.527   2.178  20.091  0.00  0.00    +0.000 C 
ENDBRANCH  13  15
ENDBRANCH   5  13
TORSDOF 2
ENDMDL
MODEL 4
REMARK VINA RESULT:      -7.5      1.526      2.304
REMARK  Name = 
REMARK  5 active torsions:
REMARK  status: ('A' for Active; 'I' for Inactive)
REMARK    1  A    between atoms: C_1  and  N_2
REMARK    2  A    between atoms: C_5  and  N_6
REMARK    3  A    between atoms: N_6  and  C_7
REMARK    4  A    between atoms: C_11  and  C_12
REMARK    5  A    between atoms: C_13  and  C_14
REMARK                            x       y       z     vdW  Elec       q    Type
REMARK                         _______ _______ _______ _____ _____    ______ ____
ROOT
ATOM      1  C   UNL     1       8.223   8.949  17.570  0.00  0.00    +0.000 C 
ATOM      2  N   UNL     1       7.211   8.038  17.052  0.00  0.00    +0.000 N 
ATOM      3  C   UNL     1       7.115   6.827  17.770  0.00  0.00    +0.000 A 
ATOM      4  C   UNL     1       6.177   5.899  17.358  0.00  0.00    +0.000 A 
ATOM      5  C   UNL     1       6.137   4.695  18.034  0.00  0.00    +0.000 A 
ATOM      6  N   UNL     1       6.934   4.471  19.092  0.00  0.00    +0.000 NA
ATOM      7  C   UNL     1       7.791   5.426  19.435  0.00  0.00    +0.000 A 
ATOM      8  N   UNL     1       8.602   5.193  20.528  0.00  0.00    +0.000 N 
ATOM      9  N   UNL     1       7.907   6.603  18.825  0.00  0.00    +0.000 NA
ATOM     10  H   UNL     1       7.371   7.824  16.071  0.00  0.00    +0.000 HD
ATOM     11  H   UNL     1       8.153   4.512  21.127  0.00  0.00    +0.000 HD
ATOM     12  H   UNL     1       8.857   6.076  20.945  0.00  0.00    +0.000 HD
ENDROOT
BRANCH   5  13
ATOM     13  N   UNL     1       5.181   3.716  17.646  0.00  0.00    +0.000 N 
ATOM     14  H   UNL     1       5.550   2.784  17.806  0.00  0.00    +0.000 HD
BRANCH  13  15
ATOM     15  C   UNL     1       3.817   3.709  18.067  0.00  0.00    +0.000 A 
ATOM     16  C   UNL     1       2.854   4.460  17.373  0.00  0.00    +0.000 A 
ATOM     17  C   UNL     1       1.536   4.519  17.809  0.00  0.00    +0.000 A 
ATOM     18  C   UNL     1       1.161   3.841  18.963  0.00  0.00    +0.000 A 
ATOM     19  C   UNL     1       2.101   3.111  19.708  0.00  0.00    +0.000 A 
ATOM     20  C   UNL     1       1.628   2.399  20.945  0.00  0.00    +0.000 C 
ATOM     21  C   UNL     1       3.449   3.062  19.274  0.00  0.00    +0.000 A 
ATOM     22  C   UNL     1       4.504   2.320  20.057  0.00  0.00    +0.000 C 
ENDBRANCH  13  15
ENDBRANCH   5  13
TORSDOF 2
ENDMDL
MODEL 5
REMARK VINA RESULT:      -7.5      1.647      2.603
REMARK  Name = 
REMARK  5 active torsions:
REMARK  status: ('A' for Active; 'I' for Inactive)
REMARK    1  A    between atoms: C_1  and  N_2
REMARK    2  A    between atoms: C_5  and  N_6
REMARK    3  A    between atoms: N_6  and  C_7
REMARK    4  A    between atoms: C_11  and  C_12
REMARK    5  A    between atoms: C_13  and  C_14
REMARK                            x       y       z     vdW  Elec       q    Type
REMARK                         _______ _______ _______ _____ _____    ______ ____
ROOT
ATOM      1  C   UNL     1       8.223   5.336  13.276  0.00  0.00    +0.000 C 
ATOM      2  N   UNL     1       6.814   5.055  13.521  0.00  0.00    +0.000 N 
ATOM      3  C   UNL     1       6.514   4.784  14.872  0.00  0.00    +0.000 A 
ATOM      4  C   UNL     1       5.201   4.513  15.205  0.00  0.00    +0.000 A 
ATOM      5  C   UNL     1       4.934   4.190  16.521  0.00  0.00    +0.000 A 
ATOM      6  N   UNL     1       5.907   4.210  17.448  0.00  0.00    +0.000 NA
ATOM      7  C   UNL     1       7.138   4.504  17.046  0.00  0.00    +0.000 A 
ATOM      8  N   UNL     1       8.133   4.529  18.004  0.00  0.00    +0.000 N 
ATOM      9  N   UNL     1       7.483   4.804  15.796  0.00  0.00    +0.000 NA
ATOM     10  H   UNL     1       6.486   4.280  12.951  0.00  0.00    +0.000 HD
ATOM     11  H   UNL     1       7.711   4.709  18.905  0.00  0.00    +0.000 HD
ATOM     12  H   UNL     1       8.864   5.158  17.704  0.00  0.00    +0.000 HD
ENDROOT
BRANCH   5  13
ATOM     13  N   UNL     1       3.594   3.912  16.907  0.00  0.00    +0.000 N 
ATOM     14  H   UNL     1       3.397   2.922  16.799  0.00  0.00    +0.000 HD
BRANCH  13  15
ATOM     15  C   UNL     1       3.005   4.328  18.140  0.00  0.00    +0.000 A 
ATOM     16  C   UNL     1       2.846   5.694  18.427  0.00  0.00    +0.000 A 
ATOM     17  C   UNL     1       2.339   6.118  19.649  0.00  0.00    +0.000 A 
ATOM     18  C   UNL     1       1.999   5.180  20.617  0.00  0.00    +0.000 A 
ATOM     19  C   UNL     1       2.181   3.807  20.385  0.00  0.00    +0.000 A 
ATOM     20  C   UNL     1       1.790   2.846  21.474  0.00  0.00    +0.000 C 
ATOM     21  C   UNL     1       2.712   3.373  19.145  0.00  0.00    +0.000 A 
ATOM     22  C   UNL     1       2.957   1.912  18.860  0.00  0.00    +0.000 C 
ENDBRANCH  13  15
ENDBRANCH   5  13
TORSDOF 2
ENDMDL
MODEL 6
REMARK VINA RESULT:      -7.2      0.583      1.839
REMARK  Name = 
REMARK  5 active torsions:
REMARK  status: ('A' for Active; 'I' for Inactive)
REMARK    1  A    between atoms: C_1  and  N_2
REMARK    2  A    between atoms: C_5  and  N_6
REMARK    3  A    between atoms: N_6  and  C_7
REMARK    4  A    between atoms: C_11  and  C_12
REMARK    5  A    between atoms: C_13  and  C_14
REMARK                            x       y       z     vdW  Elec       q    Type
REMARK                         _______ _______ _______ _____ _____    ______ ____
ROOT
ATOM      1  C   UNL     1       7.947   8.122  17.558  0.00  0.00    +0.000 C 
ATOM      2  N   UNL     1       7.036   7.142  18.135  0.00  0.00    +0.000 N 
ATOM      3  C   UNL     1       6.675   6.108  17.246  0.00  0.00    +0.000 A 
ATOM      4  C   UNL     1       5.818   5.125  17.704  0.00  0.00    +0.000 A 
ATOM      5  C   UNL     1       5.428   4.154  16.803  0.00  0.00    +0.000 A 
ATOM      6  N   UNL     1       5.920   4.132  15.554  0.00  0.00    +0.000 NA
ATOM      7  C   UNL     1       6.758   5.102  15.202  0.00  0.00    +0.000 A 
ATOM      8  N   UNL     1       7.266   5.071  13.919  0.00  0.00    +0.000 N 
ATOM      9  N   UNL     1       7.166   6.085  16.001  0.00  0.00    +0.000 NA
ATOM     10  H   UNL     1       6.189   7.583  18.484  0.00  0.00    +0.000 HD
ATOM     11  H   UNL     1       7.237   4.119  13.581  0.00  0.00    +0.000 HD
ATOM     12  H   UNL     1       8.162   5.538  13.907  0.00  0.00    +0.000 HD
ENDROOT
BRANCH   5  13
ATOM     13  N   UNL     1       4.553   3.120  17.238  0.00  0.00    +0.000 N 
ATOM     14  H   UNL     1       4.965   2.211  17.051  0.00  0.00    +0.000 HD
BRANCH  13  15
ATOM     15  C   UNL     1       3.958   3.057  18.534  0.00  0.00    +0.000 A 
ATOM     16  C   UNL     1       4.590   2.354  19.573  0.00  0.00    +0.000 A 
ATOM     17  C   UNL     1       3.993   2.224  20.822  0.00  0.00    +0.000 A 
ATOM     18  C   UNL     1       2.740   2.782  21.048  0.00  0.00    +0.000 A 
ATOM     19  C   UNL     1       2.057   3.459  20.024  0.00  0.00    +0.000 A 
ATOM     20  C   UNL     1       0.707   4.041  20.336  0.00  0.00    +0.000 C 
ATOM     21  C   UNL     1       2.658   3.579  18.746  0.00  0.00    +0.000 A 
ATOM     22  C   UNL     1       1.951   4.267  17.604  0.00  0.00    +0.000 C 
ENDBRANCH  13  15
ENDBRANCH   5  13
TORSDOF 2
ENDMDL
MODEL 7
REMARK VINA RESULT:      -7.2      1.465      2.795
REMARK  Name = 
REMARK  5 active torsions:
REMARK  status: ('A' for Active; 'I' for Inactive)
REMARK    1  A    between atoms: C_1  and  N_2
REMARK    2  A    between atoms: C_5  and  N_6
REMARK    3  A    between atoms: N_6  and  C_7
REMARK    4  A    between atoms: C_11  and  C_12
REMARK    5  A    between atoms: C_13  and  C_14
REMARK                            x       y       z     vdW  Elec       q    Type
REMARK                         _______ _______ _______ _____ _____    ______ ____
ROOT
ATOM      1  C   UNL     1       6.910   4.413  12.965  0.00  0.00    +0.000 C 
ATOM      2  N   UNL     1       6.325   3.648  14.058  0.00  0.00    +0.000 N 
ATOM      3  C   UNL     1       6.422   4.284  15.314  0.00  0.00    +0.000 A 
ATOM      4  C   UNL     1       5.889   3.639  16.413  0.00  0.00    +0.000 A 
ATOM      5  C   UNL     1       6.046   4.247  17.643  0.00  0.00    +0.000 A 
ATOM      6  N   UNL     1       6.633   5.450  17.749  0.00  0.00    +0.000 NA
ATOM      7  C   UNL     1       7.097   6.012  16.637  0.00  0.00    +0.000 A 
ATOM      8  N   UNL     1       7.693   7.253  16.751  0.00  0.00    +0.000 N 
ATOM      9  N   UNL     1       7.006   5.484  15.420  0.00  0.00    +0.000 NA
ATOM     10  H   UNL     1       6.741   2.723  14.127  0.00  0.00    +0.000 HD
ATOM     11  H   UNL     1       7.336   7.710  17.579  0.00  0.00    +0.000 HD
ATOM     12  H   UNL     1       7.598   7.747  15.875  0.00  0.00    +0.000 HD
ENDROOT
BRANCH   5  13
ATOM     13  N   UNL     1       5.505   3.618  18.799  0.00  0.00    +0.000 N 
ATOM     14  H   UNL     1       5.732   4.157  19.629  0.00  0.00    +0.000 HD
BRANCH  13  15
ATOM     15  C   UNL     1       4.147   3.195  18.927  0.00  0.00    +0.000 A 
ATOM     16  C   UNL     1       3.730   1.970  18.383  0.00  0.00    +0.000 A 
ATOM     17  C   UNL     1       2.398   1.574  18.438  0.00  0.00    +0.000 A 
ATOM     18  C   UNL     1       1.455   2.410  19.024  0.00  0.00    +0.000 A 
ATOM     19  C   UNL     1       1.825   3.661  19.544  0.00  0.00    +0.000 A 
ATOM     20  C   UNL     1       0.754   4.515  20.166  0.00  0.00    +0.000 C 
ATOM     21  C   UNL     1       3.179   4.073  19.475  0.00  0.00    +0.000 A 
ATOM     22  C   UNL     1       3.620   5.421  19.989  0.00  0.00    +0.000 C 
ENDBRANCH  13  15
ENDBRANCH   5  13
TORSDOF 2
ENDMDL
MODEL 8
REMARK VINA RESULT:      -7.2      1.862      2.805
REMARK  Name = 
REMARK  5 active torsions:
REMARK  status: ('A' for Active; 'I' for Inactive)
REMARK    1  A    between atoms: C_1  and  N_2
REMARK    2  A    between atoms: C_5  and  N_6
REMARK    3  A    between atoms: N_6  and  C_7
REMARK    4  A    between atoms: C_11  and  C_12
REMARK    5  A    between atoms: C_13  and  C_14
REMARK                            x       y       z     vdW  Elec       q    Type
REMARK                         _______ _______ _______ _____ _____    ______ ____
ROOT
ATOM      1  C   UNL     1       8.580   9.454  17.970  0.00  0.00    +0.000 C 
ATOM      2  N   UNL     1       7.466   8.781  17.315  0.00  0.00    +0.000 N 
ATOM      3  C   UNL     1       7.224   7.478  17.798  0.00  0.00    +0.000 A 
ATOM      4  C   UNL     1       6.182   6.761  17.243  0.00  0.00    +0.000 A 
ATOM      5  C   UNL     1       5.997   5.465  17.683  0.00  0.00    +0.000 A 
ATOM      6  N   UNL     1       6.761   4.954  18.663  0.00  0.00    +0.000 NA
ATOM      7  C   UNL     1       7.727   5.720  19.158  0.00  0.00    +0.000 A 
ATOM      8  N   UNL     1       8.504   5.192  20.170  0.00  0.00    +0.000 N 
ATOM      9  N   UNL     1       7.984   6.968  18.774  0.00  0.00    +0.000 NA
ATOM     10  H   UNL     1       7.598   8.738  16.308  0.00  0.00    +0.000 HD
ATOM     11  H   UNL     1       7.976   4.470  20.642  0.00  0.00    +0.000 HD
ATOM     12  H   UNL     1       8.864   5.945  20.738  0.00  0.00    +0.000 HD
ENDROOT
BRANCH   5  13
ATOM     13  N   UNL     1       4.930   4.696  17.143  0.00  0.00    +0.000 N 
ATOM     14  H   UNL     1       5.265   4.123  16.375  0.00  0.00    +0.000 HD
BRANCH  13  15
ATOM     15  C   UNL     1       4.043   3.889  17.918  0.00  0.00    +0.000 A 
ATOM     16  C   UNL     1       4.099   2.488  17.835  0.00  0.00    +0.000 A 
ATOM     17  C   UNL     1       3.199   1.689  18.529  0.00  0.00    +0.000 A 
ATOM     18  C   UNL     1       2.210   2.281  19.306  0.00  0.00    +0.000 A 
ATOM     19  C   UNL     1       2.094   3.678  19.385  0.00  0.00    +0.000 A 
ATOM     20  C   UNL     1       1.004   4.252  20.246  0.00  0.00    +0.000 C 
ATOM     21  C   UNL     1       3.002   4.495  18.665  0.00  0.00    +0.000 A 
ATOM     22  C   UNL     1       2.898   6.000  18.690  0.00  0.00    +0.000 C 
ENDBRANCH  13  15
ENDBRANCH   5  13
TORSDOF 2
ENDMDL
MODEL 9
REMARK VINA RESULT:      -7.2      2.025      2.801
REMARK  Name = 
REMARK  5 active torsions:
REMARK  status: ('A' for Active; 'I' for Inactive)
REMARK    1  A    between atoms: C_1  and  N_2
REMARK    2  A    between atoms: C_5  and  N_6
REMARK    3  A    between atoms: N_6  and  C_7
REMARK    4  A    between atoms: C_11  and  C_12
REMARK    5  A    between atoms: C_13  and  C_14
REMARK                            x       y       z     vdW  Elec       q    Type
REMARK                         _______ _______ _______ _____ _____    ______ ____
ROOT
ATOM      1  C   UNL     1       8.610   9.224  17.790  0.00  0.00    +0.000 C 
ATOM      2  N   UNL     1       7.414   8.539  17.316  0.00  0.00    +0.000 N 
ATOM      3  C   UNL     1       7.186   7.295  17.941  0.00  0.00    +0.000 A 
ATOM      4  C   UNL     1       6.071   6.572  17.563  0.00  0.00    +0.000 A 
ATOM      5  C   UNL     1       5.894   5.330  18.140  0.00  0.00    +0.000 A 
ATOM      6  N   UNL     1       6.740   4.880  19.082  0.00  0.00    +0.000 NA
ATOM      7  C   UNL     1       7.774   5.650  19.403  0.00  0.00    +0.000 A 
ATOM      8  N   UNL     1       8.636   5.185  20.377  0.00  0.00    +0.000 N 
ATOM      9  N   UNL     1       8.027   6.847  18.880  0.00  0.00    +0.000 NA
ATOM     10  H   UNL     1       7.441   8.400  16.310  0.00  0.00    +0.000 HD
ATOM     11  H   UNL     1       8.139   4.530  20.965  0.00  0.00    +0.000 HD
ATOM     12  H   UNL     1       9.075   5.972  20.833  0.00  0.00    +0.000 HD
ENDROOT
BRANCH   5  13
ATOM     13  N   UNL     1       4.755   4.558  17.784  0.00  0.00    +0.000 N 
ATOM     14  H   UNL     1       5.032   3.606  17.564  0.00  0.00    +0.000 HD
BRANCH  13  15
ATOM     15  C   UNL     1       3.556   4.482  18.557  0.00  0.00    +0.000 A 
ATOM     16  C   UNL     1       3.318   5.403  19.590  0.00  0.00    +0.000 A 
ATOM     17  C   UNL     1       2.190   5.303  20.397  0.00  0.00    +0.000 A 
ATOM     18  C   UNL     1       1.288   4.265  20.195  0.00  0.00    +0.000 A 
ATOM     19  C   UNL     1       1.510   3.301  19.197  0.00  0.00    +0.000 A 
ATOM     20  C   UNL     1       0.493   2.206  19.030  0.00  0.00    +0.000 C 
ATOM     21  C   UNL     1       2.667   3.392  18.384  0.00  0.00    +0.000 A 
ATOM     22  C   UNL     1       2.968   2.364  17.322  0.00  0.00    +0.000 C 
ENDBRANCH  13  15
ENDBRANCH   5  13
TORSDOF 2
ENDMDL
