MODEL 1
REMARK VINA RESULT:      -7.4      0.000      0.000
REMARK  Name = 
REMARK  4 active torsions:
REMARK  status: ('A' for Active; 'I' for Inactive)
REMARK    1  A    between atoms: C_1  and  O_2
REMARK    2  A    between atoms: O_2  and  C_3
REMARK    3  A    between atoms: C_10  and  C_11
REMARK    4  A    between atoms: C_15  and  C_16
REMARK                            x       y       z     vdW  Elec       q    Type
REMARK                         _______ _______ _______ _____ _____    ______ ____
ROOT
ATOM      1  C   UNL     1       0.425  10.076  21.917  0.00  0.00    +0.000 A 
ATOM      2  C   UNL     1       0.499  10.917  20.803  0.00  0.00    +0.000 A 
ATOM      3  C   UNL     1       1.007  10.440  19.598  0.00  0.00    +0.000 A 
ATOM      4  C   UNL     1       1.447   9.115  19.507  0.00  0.00    +0.000 A 
ATOM      5  C   UNL     1       2.009   8.598  18.254  0.00  0.00    +0.000 A 
ATOM      6  O   UNL     1       2.100   9.284  17.246  0.00  0.00    +0.000 OA
ATOM      7  C   UNL     1       2.499   7.212  18.278  0.00  0.00    +0.000 A 
ATOM      8  C   UNL     1       2.409   6.516  19.413  0.00  0.00    +0.000 A 
ATOM      9  O   UNL     1       1.842   6.978  20.591  0.00  0.00    +0.000 OA
ATOM     10  C   UNL     1       1.382   8.274  20.615  0.00  0.00    +0.000 A 
ATOM     11  C   UNL     1       0.861   8.749  21.818  0.00  0.00    +0.000 A 
ENDROOT
BRANCH   8  12
ATOM     12  C   UNL     1       2.995   5.219  19.501  0.00  0.00    +0.000 A 
ATOM     13  S   UNL     1       4.665   5.000  19.148  0.00  0.00    +0.000 S 
ATOM     14  C   UNL     1       4.596   3.328  19.481  0.00  0.00    +0.000 A 
ATOM     15  C   UNL     1       3.330   2.929  19.842  0.00  0.00    +0.000 A 
ATOM     16  C   UNL     1       2.391   4.013  19.849  0.00  0.00    +0.000 A 
ATOM     17  C   UNL     1       0.942   3.845  20.182  0.00  0.00    +0.000 C 
ENDBRANCH   8  12
BRANCH   1  19
ATOM     18  C   UNL     1      -1.339  11.005  23.186  0.00  0.00    +0.000 C 
ATOM     19  O   UNL     1      -0.023  10.457  23.153  0.00  0.00    +0.000 OA
ENDBRANCH   1  19
TORSDOF 2
ENDMDL
MODEL 2
REMARK VINA RESULT:      -7.4      4.266      7.606
REMARK  Name = 
REMARK  4 active torsions:
REMARK  status: ('A' for Active; 'I' for Inactive)
REMARK    1  A    between atoms: C_1  and  O_2
REMARK    2  A    between atoms: O_2  and  C_3
REMARK    3  A    between atoms: C_10  and  C_11
REMARK    4  A    between atoms: C_15  and  C_16
REMARK                            x       y       z     vdW  Elec       q    Type
REMARK                         _______ _______ _______ _____ _____    ______ ____
ROOT
ATOM      1  C   UNL     1       6.009   4.124  14.263  0.00  0.00    +0.000 A 
ATOM      2  C   UNL     1       7.173   4.837  14.560  0.00  0.00    +0.000 A 
ATOM      3  C   UNL     1       7.421   5.262  15.863  0.00  0.00    +0.000 A 
ATOM      4  C   UNL     1       6.498   4.973  16.874  0.00  0.00    +0.000 A 
ATOM      5  C   UNL     1       6.727   5.431  18.248  0.00  0.00    +0.000 A 
ATOM      6  O   UNL     1       7.726   6.059  18.571  0.00  0.00    +0.000 OA
ATOM      7  C   UNL     1       5.669   5.130  19.224  0.00  0.00    +0.000 A 
ATOM      8  C   UNL     1       4.582   4.473  18.815  0.00  0.00    +0.000 A 
ATOM      9  O   UNL     1       4.373   3.997  17.530  0.00  0.00    +0.000 OA
ATOM     10  C   UNL     1       5.333   4.268  16.583  0.00  0.00    +0.000 A 
ATOM     11  C   UNL     1       5.092   3.832  15.280  0.00  0.00    +0.000 A 
ENDROOT
BRANCH   8  12
ATOM     12  C   UNL     1       3.486   4.285  19.708  0.00  0.00    +0.000 A 
ATOM     13  S   UNL     1       3.244   2.761  20.470  0.00  0.00    +0.000 S 
ATOM     14  C   UNL     1       1.872   3.317  21.318  0.00  0.00    +0.000 A 
ATOM     15  C   UNL     1       1.586   4.630  21.027  0.00  0.00    +0.000 A 
ATOM     16  C   UNL     1       2.507   5.200  20.088  0.00  0.00    +0.000 A 
ATOM     17  C   UNL     1       2.406   6.606  19.584  0.00  0.00    +0.000 C 
ENDBRANCH   8  12
BRANCH   1  19
ATOM     18  C   UNL     1       6.725   3.585  12.076  0.00  0.00    +0.000 C 
ATOM     19  O   UNL     1       5.656   3.694  13.012  0.00  0.00    +0.000 OA
ENDBRANCH   1  19
TORSDOF 2
ENDMDL
MODEL 3
REMARK VINA RESULT:      -7.3      5.195      7.609
REMARK  Name = 
REMARK  4 active torsions:
REMARK  status: ('A' for Active; 'I' for Inactive)
REMARK    1  A    between atoms: C_1  and  O_2
REMARK    2  A    between atoms: O_2  and  C_3
REMARK    3  A    between atoms: C_10  and  C_11
REMARK    4  A    between atoms: C_15  and  C_16
REMARK                            x       y       z     vdW  Elec       q    Type
REMARK                         _______ _______ _______ _____ _____    ______ ____
ROOT
ATOM      1  C   UNL     1       6.241   4.042  14.341  0.00  0.00    +0.000 A 
ATOM      2  C   UNL     1       7.252   4.876  14.825  0.00  0.00    +0.000 A 
ATOM      3  C   UNL     1       7.271   5.248  16.167  0.00  0.00    +0.000 A 
ATOM      4  C   UNL     1       6.270   4.786  17.028  0.00  0.00    +0.000 A 
ATOM      5  C   UNL     1       6.256   5.186  18.440  0.00  0.00    +0.000 A 
ATOM      6  O   UNL     1       7.112   5.913  18.923  0.00  0.00    +0.000 OA
ATOM      7  C   UNL     1       5.129   4.697  19.247  0.00  0.00    +0.000 A 
ATOM      8  C   UNL     1       4.201   3.935  18.666  0.00  0.00    +0.000 A 
ATOM      9  O   UNL     1       4.225   3.515  17.344  0.00  0.00    +0.000 OA
ATOM     10  C   UNL     1       5.256   3.960  16.550  0.00  0.00    +0.000 A 
ATOM     11  C   UNL     1       5.246   3.577  15.210  0.00  0.00    +0.000 A 
ENDROOT
BRANCH   8  12
ATOM     12  C   UNL     1       3.032   3.558  19.391  0.00  0.00    +0.000 A 
ATOM     13  S   UNL     1       3.176   2.796  20.927  0.00  0.00    +0.000 S 
ATOM     14  C   UNL     1       1.484   2.703  21.125  0.00  0.00    +0.000 A 
ATOM     15  C   UNL     1       0.811   3.227  20.046  0.00  0.00    +0.000 A 
ATOM     16  C   UNL     1       1.696   3.717  19.030  0.00  0.00    +0.000 A 
ATOM     17  C   UNL     1       1.220   4.314  17.742  0.00  0.00    +0.000 C 
ENDBRANCH   8  12
BRANCH   1  19
ATOM     18  C   UNL     1       7.117   4.134  12.147  0.00  0.00    +0.000 C 
ATOM     19  O   UNL     1       6.114   3.648  13.036  0.00  0.00    +0.000 OA
ENDBRANCH   1  19
TORSDOF 2
ENDMDL
MODEL 4
REMARK VINA RESULT:      -6.9      0.972      1.489
REMARK  Name = 
REMARK  4 active torsions:
REMARK  status: ('A' for Active; 'I' for Inactive)
REMARK    1  A    between atoms: C_1  and  O_2
REMARK    2  A    between atoms: O_2  and  C_3
REMARK    3  A    between atoms: C_10  and  C_11
REMARK    4  A    between atoms: C_15  and  C_16
REMARK                            x       y       z     vdW  Elec       q    Type
REMARK                         _______ _______ _______ _____ _____    ______ ____
ROOT
ATOM      1  C   UNL     1       0.466   9.975  21.890  0.00  0.00    +0.000 A 
ATOM      2  C   UNL     1       0.583  10.813  20.778  0.00  0.00    +0.000 A 
ATOM      3  C   UNL     1       1.095  10.321  19.581  0.00  0.00    +0.000 A 
ATOM      4  C   UNL     1       1.496   8.983  19.496  0.00  0.00    +0.000 A 
ATOM      5  C   UNL     1       2.061   8.450  18.251  0.00  0.00    +0.000 A 
ATOM      6  O   UNL     1       2.189   9.133  17.245  0.00  0.00    +0.000 OA
ATOM      7  C   UNL     1       2.509   7.050  18.283  0.00  0.00    +0.000 A 
ATOM      8  C   UNL     1       2.380   6.356  19.416  0.00  0.00    +0.000 A 
ATOM      9  O   UNL     1       1.809   6.835  20.585  0.00  0.00    +0.000 OA
ATOM     10  C   UNL     1       1.388   8.145  20.602  0.00  0.00    +0.000 A 
ATOM     11  C   UNL     1       0.864   8.635  21.797  0.00  0.00    +0.000 A 
ENDROOT
BRANCH   8  12
ATOM     12  C   UNL     1       2.926   5.042  19.512  0.00  0.00    +0.000 A 
ATOM     13  S   UNL     1       1.900   3.704  19.857  0.00  0.00    +0.000 S 
ATOM     14  C   UNL     1       3.194   2.595  19.782  0.00  0.00    +0.000 A 
ATOM     15  C   UNL     1       4.390   3.218  19.512  0.00  0.00    +0.000 A 
ATOM     16  C   UNL     1       4.250   4.637  19.363  0.00  0.00    +0.000 A 
ATOM     17  C   UNL     1       5.402   5.554  19.091  0.00  0.00    +0.000 C 
ENDBRANCH   8  12
BRANCH   1  19
ATOM     18  C   UNL     1      -1.194  11.132  23.111  0.00  0.00    +0.000 C 
ATOM     19  O   UNL     1       0.010  10.369  23.119  0.00  0.00    +0.000 OA
ENDBRANCH   1  19
TORSDOF 2
ENDMDL
MODEL 5
REMARK VINA RESULT:      -6.9      4.863      7.664
REMARK  Name = 
REMARK  4 active torsions:
REMARK  status: ('A' for Active; 'I' for Inactive)
REMARK    1  A    between atoms: C_1  and  O_2
REMARK    2  A    between atoms: O_2  and  C_3
REMARK    3  A    between atoms: C_10  and  C_11
REMARK    4  A    between atoms: C_15  and  C_16
REMARK                            x       y       z     vdW  Elec       q    Type
REMARK                         _______ _______ _______ _____ _____    ______ ____
ROOT
ATOM      1  C   UNL     1       6.290   4.018  13.832  0.00  0.00    +0.000 A 
ATOM      2  C   UNL     1       7.321   4.878  14.218  0.00  0.00    +0.000 A 
ATOM      3  C   UNL     1       7.364   5.384  15.514  0.00  0.00    +0.000 A 
ATOM      4  C   UNL     1       6.366   5.030  16.429  0.00  0.00    +0.000 A 
ATOM      5  C   UNL     1       6.377   5.570  17.793  0.00  0.00    +0.000 A 
ATOM      6  O   UNL     1       7.252   6.326  18.190  0.00  0.00    +0.000 OA
ATOM      7  C   UNL     1       5.253   5.186  18.659  0.00  0.00    +0.000 A 
ATOM      8  C   UNL     1       4.304   4.386  18.168  0.00  0.00    +0.000 A 
ATOM      9  O   UNL     1       4.304   3.835  16.896  0.00  0.00    +0.000 OA
ATOM     10  C   UNL     1       5.332   4.178  16.049  0.00  0.00    +0.000 A 
ATOM     11  C   UNL     1       5.298   3.662  14.754  0.00  0.00    +0.000 A 
ENDROOT
BRANCH   8  12
ATOM     12  C   UNL     1       3.139   4.106  18.940  0.00  0.00    +0.000 A 
ATOM     13  S   UNL     1       2.309   5.381  19.745  0.00  0.00    +0.000 S 
ATOM     14  C   UNL     1       1.124   4.322  20.365  0.00  0.00    +0.000 A 
ATOM     15  C   UNL     1       1.350   3.020  19.985  0.00  0.00    +0.000 A 
ATOM     16  C   UNL     1       2.519   2.879  19.168  0.00  0.00    +0.000 A 
ATOM     17  C   UNL     1       3.003   1.565  18.641  0.00  0.00    +0.000 C 
ENDBRANCH   8  12
BRANCH   1  19
ATOM     18  C   UNL     1       4.795   3.389  12.112  0.00  0.00    +0.000 C 
ATOM     19  O   UNL     1       6.139   3.497  12.575  0.00  0.00    +0.000 OA
ENDBRANCH   1  19
TORSDOF 2
ENDMDL
MODEL 6
REMARK VINA RESULT:      -6.9      4.901      7.981
REMARK  Name = 
REMARK  4 active torsions:
REMARK  status: ('A' for Active; 'I' for Inactive)
REMARK    1  A    between atoms: C_1  and  O_2
REMARK    2  A    between atoms: O_2  and  C_3
REMARK    3  A    between atoms: C_10  and  C_11
REMARK    4  A    between atoms: C_15  and  C_16
REMARK                            x       y       z     vdW  Elec       q    Type
REMARK                         _______ _______ _______ _____ _____    ______ ____
ROOT
ATOM      1  C   UNL     1       6.019   3.664  13.168  0.00  0.00    +0.000 A 
ATOM      2  C   UNL     1       7.107   4.539  13.189  0.00  0.00    +0.000 A 
ATOM      3  C   UNL     1       7.385   5.287  14.330  0.00  0.00    +0.000 A 
ATOM      4  C   UNL     1       6.566   5.159  15.458  0.00  0.00    +0.000 A 
ATOM      5  C   UNL     1       6.825   5.954  16.663  0.00  0.00    +0.000 A 
ATOM      6  O   UNL     1       7.761   6.737  16.742  0.00  0.00    +0.000 OA
ATOM      7  C   UNL     1       5.872   5.793  17.771  0.00  0.00    +0.000 A 
ATOM      8  C   UNL     1       4.846   4.953  17.623  0.00  0.00    +0.000 A 
ATOM      9  O   UNL     1       4.615   4.164  16.507  0.00  0.00    +0.000 OA
ATOM     10  C   UNL     1       5.476   4.293  15.442  0.00  0.00    +0.000 A 
ATOM     11  C   UNL     1       5.207   3.536  14.302  0.00  0.00    +0.000 A 
ENDROOT
BRANCH   8  12
ATOM     12  C   UNL     1       3.837   4.877  18.628  0.00  0.00    +0.000 A 
ATOM     13  S   UNL     1       2.847   6.245  18.962  0.00  0.00    +0.000 S 
ATOM     14  C   UNL     1       1.960   5.408  20.155  0.00  0.00    +0.000 A 
ATOM     15  C   UNL     1       2.406   4.116  20.315  0.00  0.00    +0.000 A 
ATOM     16  C   UNL     1       3.500   3.799  19.443  0.00  0.00    +0.000 A 
ATOM     17  C   UNL     1       4.186   2.469  19.433  0.00  0.00    +0.000 C 
ENDBRANCH   8  12
BRANCH   1  19
ATOM     18  C   UNL     1       4.342   3.189  11.572  0.00  0.00    +0.000 C 
ATOM     19  O   UNL     1       5.642   2.914  12.087  0.00  0.00    +0.000 OA
ENDBRANCH   1  19
TORSDOF 2
ENDMDL
MODEL 7
REMARK VINA RESULT:      -6.7      3.223      5.383
REMARK  Name = 
REMARK  4 active torsions:
REMARK  status: ('A' for Active; 'I' for Inactive)
REMARK    1  A    between atoms: C_1  and  O_2
REMARK    2  A    between atoms: O_2  and  C_3
REMARK    3  A    between atoms: C_10  and  C_11
REMARK    4  A    between atoms: C_15  and  C_16
REMARK                            x       y       z     vdW  Elec       q    Type
REMARK                         _______ _______ _______ _____ _____    ______ ____
ROOT
ATOM      1  C   UNL     1       1.698   6.139  20.481  0.00  0.00    +0.000 A 
ATOM      2  C   UNL     1       1.034   4.921  20.649  0.00  0.00    +0.000 A 
ATOM      3  C   UNL     1       1.456   3.791  19.953  0.00  0.00    +0.000 A 
ATOM      4  C   UNL     1       2.548   3.881  19.083  0.00  0.00    +0.000 A 
ATOM      5  C   UNL     1       2.994   2.709  18.321  0.00  0.00    +0.000 A 
ATOM      6  O   UNL     1       2.455   1.617  18.424  0.00  0.00    +0.000 OA
ATOM      7  C   UNL     1       4.110   2.921  17.388  0.00  0.00    +0.000 A 
ATOM      8  C   UNL     1       4.643   4.141  17.286  0.00  0.00    +0.000 A 
ATOM      9  O   UNL     1       4.259   5.246  18.030  0.00  0.00    +0.000 OA
ATOM     10  C   UNL     1       3.210   5.093  18.907  0.00  0.00    +0.000 A 
ATOM     11  C   UNL     1       2.794   6.221  19.613  0.00  0.00    +0.000 A 
ENDROOT
BRANCH   8  12
ATOM     12  C   UNL     1       5.635   4.403  16.296  0.00  0.00    +0.000 A 
ATOM     13  S   UNL     1       5.208   4.422  14.628  0.00  0.00    +0.000 S 
ATOM     14  C   UNL     1       6.800   4.800  14.146  0.00  0.00    +0.000 A 
ATOM     15  C   UNL     1       7.653   4.901  15.220  0.00  0.00    +0.000 A 
ATOM     16  C   UNL     1       6.992   4.664  16.471  0.00  0.00    +0.000 A 
ATOM     17  C   UNL     1       7.697   4.688  17.792  0.00  0.00    +0.000 C 
ENDBRANCH   8  12
BRANCH   1  19
ATOM     18  C   UNL     1       1.451   8.481  20.282  0.00  0.00    +0.000 C 
ATOM     19  O   UNL     1       1.340   7.312  21.090  0.00  0.00    +0.000 OA
ENDBRANCH   1  19
TORSDOF 2
ENDMDL
MODEL 8
REMARK VINA RESULT:      -6.7      5.007      8.231
REMARK  Name = 
REMARK  4 active torsions:
REMARK  status: ('A' for Active; 'I' for Inactive)
REMARK    1  A    between atoms: C_1  and  O_2
REMARK    2  A    between atoms: O_2  and  C_3
REMARK    3  A    between atoms: C_10  and  C_11
REMARK    4  A    between atoms: C_15  and  C_16
REMARK                            x       y       z     vdW  Elec       q    Type
REMARK                         _______ _______ _______ _____ _____    ______ ____
ROOT
ATOM      1  C   UNL     1       5.908   3.694  12.938  0.00  0.00    +0.000 A 
ATOM      2  C   UNL     1       7.018   4.541  12.953  0.00  0.00    +0.000 A 
ATOM      3  C   UNL     1       7.350   5.242  14.110  0.00  0.00    +0.000 A 
ATOM      4  C   UNL     1       6.564   5.095  15.258  0.00  0.00    +0.000 A 
ATOM      5  C   UNL     1       6.880   5.841  16.481  0.00  0.00    +0.000 A 
ATOM      6  O   UNL     1       7.838   6.597  16.557  0.00  0.00    +0.000 OA
ATOM      7  C   UNL     1       5.958   5.665  17.613  0.00  0.00    +0.000 A 
ATOM      8  C   UNL     1       4.907   4.855  17.469  0.00  0.00    +0.000 A 
ATOM      9  O   UNL     1       4.620   4.112  16.334  0.00  0.00    +0.000 OA
ATOM     10  C   UNL     1       5.452   4.257  15.247  0.00  0.00    +0.000 A 
ATOM     11  C   UNL     1       5.128   3.547  14.092  0.00  0.00    +0.000 A 
ENDROOT
BRANCH   8  12
ATOM     12  C   UNL     1       3.927   4.770  18.502  0.00  0.00    +0.000 A 
ATOM     13  S   UNL     1       3.855   3.378  19.511  0.00  0.00    +0.000 S 
ATOM     14  C   UNL     1       2.556   4.009  20.419  0.00  0.00    +0.000 A 
ATOM     15  C   UNL     1       2.167   5.248  19.967  0.00  0.00    +0.000 A 
ATOM     16  C   UNL     1       2.947   5.696  18.850  0.00  0.00    +0.000 A 
ATOM     17  C   UNL     1       2.713   7.000  18.153  0.00  0.00    +0.000 C 
ENDBRANCH   8  12
BRANCH   1  19
ATOM     18  C   UNL     1       6.210   1.804  11.551  0.00  0.00    +0.000 C 
ATOM     19  O   UNL     1       5.478   2.991  11.844  0.00  0.00    +0.000 OA
ENDBRANCH   1  19
TORSDOF 2
ENDMDL
MODEL 9
REMARK VINA RESULT:      -6.6      4.220      7.448
REMARK  Name = 
REMARK  4 active torsions:
REMARK  status: ('A' for Active; 'I' for Inactive)
REMARK    1  A    between atoms: C_1  and  O_2
REMARK    2  A    between atoms: O_2  and  C_3
REMARK    3  A    between atoms: C_10  and  C_11
REMARK    4  A    between atoms: C_15  and  C_16
REMARK                            x       y       z     vdW  Elec       q    Type
REMARK                         _______ _______ _______ _____ _____    ______ ____
ROOT
ATOM      1  C   UNL     1       6.519   4.730  14.699  0.00  0.00    +0.000 A 
ATOM      2  C   UNL     1       7.558   5.269  15.463  0.00  0.00    +0.000 A 
ATOM      3  C   UNL     1       7.452   5.324  16.850  0.00  0.00    +0.000 A 
ATOM      4  C   UNL     1       6.298   4.840  17.477  0.00  0.00    +0.000 A 
ATOM      5  C   UNL     1       6.154   4.911  18.935  0.00  0.00    +0.000 A 
ATOM      6  O   UNL     1       7.026   5.371  19.657  0.00  0.00    +0.000 OA
ATOM      7  C   UNL     1       4.879   4.434  19.491  0.00  0.00    +0.000 A 
ATOM      8  C   UNL     1       3.944   3.973  18.658  0.00  0.00    +0.000 A 
ATOM      9  O   UNL     1       4.084   3.861  17.283  0.00  0.00    +0.000 OA
ATOM     10  C   UNL     1       5.257   4.308  16.720  0.00  0.00    +0.000 A 
ATOM     11  C   UNL     1       5.370   4.242  15.332  0.00  0.00    +0.000 A 
ENDROOT
BRANCH   8  12
ATOM     12  C   UNL     1       2.653   3.628  19.157  0.00  0.00    +0.000 A 
ATOM     13  S   UNL     1       2.004   2.061  18.864  0.00  0.00    +0.000 S 
ATOM     14  C   UNL     1       0.576   2.407  19.731  0.00  0.00    +0.000 A 
ATOM     15  C   UNL     1       0.574   3.690  20.228  0.00  0.00    +0.000 A 
ATOM     16  C   UNL     1       1.768   4.411  19.895  0.00  0.00    +0.000 A 
ATOM     17  C   UNL     1       2.009   5.833  20.293  0.00  0.00    +0.000 C 
ENDBRANCH   8  12
BRANCH   1  19
ATOM     18  C   UNL     1       7.712   5.082  12.689  0.00  0.00    +0.000 C 
ATOM     19  O   UNL     1       6.511   4.662  13.332  0.00  0.00    +0.000 OA
ENDBRANCH   1  19
TORSDOF 2
ENDMDL
