MODEL 1
REMARK VINA RESULT:      -6.7      0.000      0.000
REMARK  Name = 
REMARK  6 active torsions:
REMARK  status: ('A' for Active; 'I' for Inactive)
REMARK    1  A    between atoms: C_2  and  C_3
REMARK    2  A    between atoms: C_3  and  C_4
REMARK    3  A    between atoms: N_10  and  C_11
REMARK    4  A    between atoms: N_10  and  C_14
REMARK    5  A    between atoms: C_11  and  C_12
REMARK    6  A    between atoms: C_12  and  O_13
REMARK                            x       y       z     vdW  Elec       q    Type
REMARK                         _______ _______ _______ _____ _____    ______ ____
ROOT
ATOM      1  O   UNL     1       5.180   5.243  19.605  0.00  0.00    +0.000 OA
ATOM      2  C   UNL     1       4.987   5.230  18.387  0.00  0.00    +0.000 C 
ATOM      3  N   UNL     1       6.047   5.059  17.484  0.00  0.00    +0.000 N 
ENDROOT
BRANCH   3   4
ATOM      4  C   UNL     1       5.901   5.207  16.001  0.00  0.00    +0.000 C 
ATOM      5  C   UNL     1       7.215   5.014  15.183  0.00  0.00    +0.000 C 
ATOM      6  C   UNL     1       6.352   4.385  14.074  0.00  0.00    +0.000 C 
ATOM      7  C   UNL     1       5.356   4.000  15.180  0.00  0.00    +0.000 C 
ENDBRANCH   3   4
BRANCH   2   8
ATOM      8  C   UNL     1       3.588   5.427  17.810  0.00  0.00    +0.000 C 
BRANCH   8   9
ATOM      9  C   UNL     1       2.571   4.455  18.355  0.00  0.00    +0.000 A 
ATOM     10  C   UNL     1       1.848   4.733  19.519  0.00  0.00    +0.000 A 
ATOM     11  C   UNL     1       0.904   3.820  19.982  0.00  0.00    +0.000 A 
ATOM     12  C   UNL     1       0.715   2.651  19.263  0.00  0.00    +0.000 A 
ATOM     13  N   UNL     1       1.395   2.344  18.138  0.00  0.00    +0.000 NA
ATOM     14  C   UNL     1       2.296   3.255  17.703  0.00  0.00    +0.000 A 
ENDBRANCH   8   9
ENDBRANCH   2   8
BRANCH   3  15
ATOM     15  C   UNL     1       7.384   4.830  18.065  0.00  0.00    +0.000 C 
BRANCH  15  16
ATOM     16  C   UNL     1       7.914   5.964  18.949  0.00  0.00    +0.000 C 
BRANCH  16  17
ATOM     17  O   UNL     1       7.960   5.559  20.318  0.00  0.00    +0.000 OA
ATOM     18  H   UNL     1       8.295   4.647  20.312  0.00  0.00    +0.000 HD
ENDBRANCH  16  17
ENDBRANCH  15  16
ENDBRANCH   3  15
TORSDOF 6
ENDMDL
MODEL 2
REMARK VINA RESULT:      -6.6      2.230      5.649
REMARK  Name = 
REMARK  6 active torsions:
REMARK  status: ('A' for Active; 'I' for Inactive)
REMARK    1  A    between atoms: C_2  and  C_3
REMARK    2  A    between atoms: C_3  and  C_4
REMARK    3  A    between atoms: N_10  and  C_11
REMARK    4  A    between atoms: N_10  and  C_14
REMARK    5  A    between atoms: C_11  and  C_12
REMARK    6  A    between atoms: C_12  and  O_13
REMARK                            x       y       z     vdW  Elec       q    Type
REMARK                         _______ _______ _______ _____ _____    ______ ____
ROOT
ATOM      1  O   UNL     1       4.166   2.467  19.145  0.00  0.00    +0.000 OA
ATOM      2  C   UNL     1       4.271   3.692  19.231  0.00  0.00    +0.000 C 
ATOM      3  N   UNL     1       3.166   4.498  19.546  0.00  0.00    +0.000 N 
ENDROOT
BRANCH   3   4
ATOM      4  C   UNL     1       3.193   5.994  19.494  0.00  0.00    +0.000 C 
ATOM      5  C   UNL     1       2.687   6.619  18.158  0.00  0.00    +0.000 C 
ATOM      6  C   UNL     1       2.119   7.780  18.994  0.00  0.00    +0.000 C 
ATOM      7  C   UNL     1       2.030   6.786  20.163  0.00  0.00    +0.000 C 
ENDBRANCH   3   4
BRANCH   2   8
ATOM      8  C   UNL     1       5.605   4.387  18.970  0.00  0.00    +0.000 C 
BRANCH   8   9
ATOM      9  C   UNL     1       5.981   4.436  17.509  0.00  0.00    +0.000 A 
ATOM     10  C   UNL     1       5.015   4.337  16.504  0.00  0.00    +0.000 A 
ATOM     11  C   UNL     1       5.398   4.405  15.168  0.00  0.00    +0.000 A 
ATOM     12  C   UNL     1       6.743   4.566  14.878  0.00  0.00    +0.000 A 
ATOM     13  N   UNL     1       7.706   4.662  15.819  0.00  0.00    +0.000 NA
ATOM     14  C   UNL     1       7.305   4.607  17.110  0.00  0.00    +0.000 A 
ENDBRANCH   8   9
ENDBRANCH   2   8
BRANCH   3  15
ATOM     15  C   UNL     1       1.897   3.801  19.834  0.00  0.00    +0.000 C 
BRANCH  15  16
ATOM     16  C   UNL     1       1.185   3.212  18.611  0.00  0.00    +0.000 C 
BRANCH  16  17
ATOM     17  O   UNL     1       1.304   1.788  18.595  0.00  0.00    +0.000 OA
ATOM     18  H   UNL     1       2.137   1.588  19.054  0.00  0.00    +0.000 HD
ENDBRANCH  16  17
ENDBRANCH  15  16
ENDBRANCH   3  15
TORSDOF 6
ENDMDL
MODEL 3
REMARK VINA RESULT:      -6.6      2.241      5.681
REMARK  Name = 
REMARK  6 active torsions:
REMARK  status: ('A' for Active; 'I' for Inactive)
REMARK    1  A    between atoms: C_2  and  C_3
REMARK    2  A    between atoms: C_3  and  C_4
REMARK    3  A    between atoms: N_10  and  C_11
REMARK    4  A    between atoms: N_10  and  C_14
REMARK    5  A    between atoms: C_11  and  C_12
REMARK    6  A    between atoms: C_12  and  O_13
REMARK                            x       y       z     vdW  Elec       q    Type
REMARK                         _______ _______ _______ _____ _____    ______ ____
ROOT
ATOM      1  O   UNL     1       4.825   3.314  16.344  0.00  0.00    +0.000 OA
ATOM      2  C   UNL     1       4.161   4.018  17.107  0.00  0.00    +0.000 C 
ATOM      3  N   UNL     1       3.146   3.471  17.907  0.00  0.00    +0.000 N 
ENDROOT
BRANCH   3   4
ATOM      4  C   UNL     1       2.197   4.297  18.718  0.00  0.00    +0.000 C 
ATOM      5  C   UNL     1       1.003   3.513  19.342  0.00  0.00    +0.000 C 
ATOM      6  C   UNL     1       1.095   4.464  20.549  0.00  0.00    +0.000 C 
ATOM      7  C   UNL     1       2.578   4.644  20.189  0.00  0.00    +0.000 C 
ENDBRANCH   3   4
BRANCH   2   8
ATOM      8  C   UNL     1       4.398   5.524  17.193  0.00  0.00    +0.000 C 
BRANCH   8   9
ATOM      9  C   UNL     1       5.728   5.889  17.805  0.00  0.00    +0.000 A 
ATOM     10  C   UNL     1       6.529   6.895  17.259  0.00  0.00    +0.000 A 
ATOM     11  C   UNL     1       7.742   7.217  17.863  0.00  0.00    +0.000 A 
ATOM     12  C   UNL     1       8.118   6.515  18.995  0.00  0.00    +0.000 A 
ATOM     13  N   UNL     1       7.375   5.535  19.551  0.00  0.00    +0.000 NA
ATOM     14  C   UNL     1       6.195   5.252  18.953  0.00  0.00    +0.000 A 
ENDBRANCH   8   9
ENDBRANCH   2   8
BRANCH   3  15
ATOM     15  C   UNL     1       2.963   2.008  17.836  0.00  0.00    +0.000 C 
BRANCH  15  16
ATOM     16  C   UNL     1       3.842   1.193  18.791  0.00  0.00    +0.000 C 
BRANCH  16  17
ATOM     17  O   UNL     1       4.836   2.022  19.394  0.00  0.00    +0.000 OA
ATOM     18  H   UNL     1       4.869   2.829  18.854  0.00  0.00    +0.000 HD
ENDBRANCH  16  17
ENDBRANCH  15  16
ENDBRANCH   3  15
TORSDOF 6
ENDMDL
MODEL 4
REMARK VINA RESULT:      -6.5      2.158      3.236
REMARK  Name = 
REMARK  6 active torsions:
REMARK  status: ('A' for Active; 'I' for Inactive)
REMARK    1  A    between atoms: C_2  and  C_3
REMARK    2  A    between atoms: C_3  and  C_4
REMARK    3  A    between atoms: N_10  and  C_11
REMARK    4  A    between atoms: N_10  and  C_14
REMARK    5  A    between atoms: C_11  and  C_12
REMARK    6  A    between atoms: C_12  and  O_13
REMARK                            x       y       z     vdW  Elec       q    Type
REMARK                         _______ _______ _______ _____ _____    ______ ____
ROOT
ATOM      1  O   UNL     1       4.340   3.543  16.473  0.00  0.00    +0.000 OA
ATOM      2  C   UNL     1       4.665   4.555  17.098  0.00  0.00    +0.000 C 
ATOM      3  N   UNL     1       5.976   5.051  17.051  0.00  0.00    +0.000 N 
ENDROOT
BRANCH   3   4
ATOM      4  C   UNL     1       6.469   6.167  17.919  0.00  0.00    +0.000 C 
ATOM      5  C   UNL     1       7.717   5.826  18.790  0.00  0.00    +0.000 C 
ATOM      6  C   UNL     1       8.170   7.284  18.593  0.00  0.00    +0.000 C 
ATOM      7  C   UNL     1       7.367   7.269  17.282  0.00  0.00    +0.000 C 
ENDBRANCH   3   4
BRANCH   2   8
ATOM      8  C   UNL     1       3.657   5.295  17.973  0.00  0.00    +0.000 C 
BRANCH   8   9
ATOM      9  C   UNL     1       2.932   4.397  18.946  0.00  0.00    +0.000 A 
ATOM     10  C   UNL     1       1.536   4.310  18.954  0.00  0.00    +0.000 A 
ATOM     11  C   UNL     1       0.903   3.456  19.854  0.00  0.00    +0.000 A 
ATOM     12  C   UNL     1       1.690   2.717  20.722  0.00  0.00    +0.000 A 
ATOM     13  N   UNL     1       3.038   2.777  20.747  0.00  0.00    +0.000 NA
ATOM     14  C   UNL     1       3.628   3.603  19.853  0.00  0.00    +0.000 A 
ENDBRANCH   8   9
ENDBRANCH   2   8
BRANCH   3  15
ATOM     15  C   UNL     1       6.922   4.343  16.166  0.00  0.00    +0.000 C 
BRANCH  15  16
ATOM     16  C   UNL     1       6.914   4.799  14.703  0.00  0.00    +0.000 C 
BRANCH  16  17
ATOM     17  O   UNL     1       6.043   3.978  13.923  0.00  0.00    +0.000 OA
ATOM     18  H   UNL     1       5.691   4.557  13.225  0.00  0.00    +0.000 HD
ENDBRANCH  16  17
ENDBRANCH  15  16
ENDBRANCH   3  15
TORSDOF 6
ENDMDL
MODEL 5
REMARK VINA RESULT:      -6.4      1.201      1.457
REMARK  Name = 
REMARK  6 active torsions:
REMARK  status: ('A' for Active; 'I' for Inactive)
REMARK    1  A    between atoms: C_2  and  C_3
REMARK    2  A    between atoms: C_3  and  C_4
REMARK    3  A    between atoms: N_10  and  C_11
REMARK    4  A    between atoms: N_10  and  C_14
REMARK    5  A    between atoms: C_11  and  C_12
REMARK    6  A    between atoms: C_12  and  O_13
REMARK                            x       y       z     vdW  Elec       q    Type
REMARK                         _______ _______ _______ _____ _____    ______ ____
ROOT
ATOM      1  O   UNL     1       5.534   3.818  19.417  0.00  0.00    +0.000 OA
ATOM      2  C   UNL     1       5.323   3.996  18.216  0.00  0.00    +0.000 C 
ATOM      3  N   UNL     1       6.332   4.461  17.359  0.00  0.00    +0.000 N 
ENDROOT
BRANCH   3   4
ATOM      4  C   UNL     1       6.089   4.859  15.936  0.00  0.00    +0.000 C 
ATOM      5  C   UNL     1       7.367   5.246  15.130  0.00  0.00    +0.000 C 
ATOM      6  C   UNL     1       6.692   4.627  13.892  0.00  0.00    +0.000 C 
ATOM      7  C   UNL     1       5.903   3.740  14.868  0.00  0.00    +0.000 C 
ENDBRANCH   3   4
BRANCH   2   8
ATOM      8  C   UNL     1       3.942   3.745  17.615  0.00  0.00    +0.000 C 
BRANCH   8   9
ATOM      9  C   UNL     1       2.822   3.843  18.621  0.00  0.00    +0.000 A 
ATOM     10  C   UNL     1       1.987   2.755  18.890  0.00  0.00    +0.000 A 
ATOM     11  C   UNL     1       0.975   2.878  19.839  0.00  0.00    +0.000 A 
ATOM     12  C   UNL     1       0.828   4.092  20.488  0.00  0.00    +0.000 A 
ATOM     13  N   UNL     1       1.611   5.167  20.254  0.00  0.00    +0.000 NA
ATOM     14  C   UNL     1       2.595   5.016  19.338  0.00  0.00    +0.000 A 
ENDBRANCH   8   9
ENDBRANCH   2   8
BRANCH   3  15
ATOM     15  C   UNL     1       7.668   4.659  17.954  0.00  0.00    +0.000 C 
BRANCH  15  16
ATOM     16  C   UNL     1       7.809   5.897  18.846  0.00  0.00    +0.000 C 
BRANCH  16  17
ATOM     17  O   UNL     1       7.842   5.526  20.224  0.00  0.00    +0.000 OA
ATOM     18  H   UNL     1       8.395   4.728  20.269  0.00  0.00    +0.000 HD
ENDBRANCH  16  17
ENDBRANCH  15  16
ENDBRANCH   3  15
TORSDOF 6
ENDMDL
MODEL 6
REMARK VINA RESULT:      -6.4      2.053      5.427
REMARK  Name = 
REMARK  6 active torsions:
REMARK  status: ('A' for Active; 'I' for Inactive)
REMARK    1  A    between atoms: C_2  and  C_3
REMARK    2  A    between atoms: C_3  and  C_4
REMARK    3  A    between atoms: N_10  and  C_11
REMARK    4  A    between atoms: N_10  and  C_14
REMARK    5  A    between atoms: C_11  and  C_12
REMARK    6  A    between atoms: C_12  and  O_13
REMARK                            x       y       z     vdW  Elec       q    Type
REMARK                         _______ _______ _______ _____ _____    ______ ____
ROOT
ATOM      1  O   UNL     1       5.889   4.338  19.611  0.00  0.00    +0.000 OA
ATOM      2  C   UNL     1       4.773   4.431  19.096  0.00  0.00    +0.000 C 
ATOM      3  N   UNL     1       3.702   3.634  19.526  0.00  0.00    +0.000 N 
ENDROOT
BRANCH   3   4
ATOM      4  C   UNL     1       2.379   3.579  18.827  0.00  0.00    +0.000 C 
ATOM      5  C   UNL     1       1.850   2.144  18.524  0.00  0.00    +0.000 C 
ATOM      6  C   UNL     1       0.430   2.689  18.766  0.00  0.00    +0.000 C 
ATOM      7  C   UNL     1       1.081   3.748  19.671  0.00  0.00    +0.000 C 
ENDBRANCH   3   4
BRANCH   2   8
ATOM      8  C   UNL     1       4.518   5.402  17.945  0.00  0.00    +0.000 C 
BRANCH   8   9
ATOM      9  C   UNL     1       5.403   5.161  16.747  0.00  0.00    +0.000 A 
ATOM     10  C   UNL     1       5.090   4.187  15.794  0.00  0.00    +0.000 A 
ATOM     11  C   UNL     1       5.922   4.007  14.692  0.00  0.00    +0.000 A 
ATOM     12  C   UNL     1       7.046   4.806  14.581  0.00  0.00    +0.000 A 
ATOM     13  N   UNL     1       7.385   5.754  15.481  0.00  0.00    +0.000 NA
ATOM     14  C   UNL     1       6.552   5.918  16.534  0.00  0.00    +0.000 A 
ENDBRANCH   8   9
ENDBRANCH   2   8
BRANCH   3  15
ATOM     15  C   UNL     1       3.963   2.732  20.665  0.00  0.00    +0.000 C 
BRANCH  15  16
ATOM     16  C   UNL     1       4.871   1.537  20.358  0.00  0.00    +0.000 C 
BRANCH  16  17
ATOM     17  O   UNL     1       5.689   1.220  21.485  0.00  0.00    +0.000 OA
ATOM     18  H   UNL     1       5.708   2.024  22.031  0.00  0.00    +0.000 HD
ENDBRANCH  16  17
ENDBRANCH  15  16
ENDBRANCH   3  15
TORSDOF 6
ENDMDL
MODEL 7
REMARK VINA RESULT:      -6.3      2.074      3.179
REMARK  Name = 
REMARK  6 active torsions:
REMARK  status: ('A' for Active; 'I' for Inactive)
REMARK    1  A    between atoms: C_2  and  C_3
REMARK    2  A    between atoms: C_3  and  C_4
REMARK    3  A    between atoms: N_10  and  C_11
REMARK    4  A    between atoms: N_10  and  C_14
REMARK    5  A    between atoms: C_11  and  C_12
REMARK    6  A    between atoms: C_12  and  O_13
REMARK                            x       y       z     vdW  Elec       q    Type
REMARK                         _______ _______ _______ _____ _____    ______ ____
ROOT
ATOM      1  O   UNL     1       4.431   3.302  16.877  0.00  0.00    +0.000 OA
ATOM      2  C   UNL     1       4.908   4.146  17.639  0.00  0.00    +0.000 C 
ATOM      3  N   UNL     1       5.536   5.300  17.148  0.00  0.00    +0.000 N 
ENDROOT
BRANCH   3   4
ATOM      4  C   UNL     1       6.281   6.268  18.014  0.00  0.00    +0.000 C 
ATOM      5  C   UNL     1       7.718   5.820  18.422  0.00  0.00    +0.000 C 
ATOM      6  C   UNL     1       8.128   7.303  18.351  0.00  0.00    +0.000 C 
ATOM      7  C   UNL     1       6.984   7.485  17.341  0.00  0.00    +0.000 C 
ENDBRANCH   3   4
BRANCH   2   8
ATOM      8  C   UNL     1       4.858   3.955  19.153  0.00  0.00    +0.000 C 
BRANCH   8   9
ATOM      9  C   UNL     1       3.457   3.823  19.697  0.00  0.00    +0.000 A 
ATOM     10  C   UNL     1       2.701   4.947  20.043  0.00  0.00    +0.000 A 
ATOM     11  C   UNL     1       1.405   4.787  20.524  0.00  0.00    +0.000 A 
ATOM     12  C   UNL     1       0.905   3.501  20.648  0.00  0.00    +0.000 A 
ATOM     13  N   UNL     1       1.604   2.391  20.328  0.00  0.00    +0.000 NA
ATOM     14  C   UNL     1       2.856   2.576  19.850  0.00  0.00    +0.000 A 
ENDBRANCH   8   9
ENDBRANCH   2   8
BRANCH   3  15
ATOM     15  C   UNL     1       5.536   5.483  15.683  0.00  0.00    +0.000 C 
BRANCH  15  16
ATOM     16  C   UNL     1       6.701   4.817  14.943  0.00  0.00    +0.000 C 
BRANCH  16  17
ATOM     17  O   UNL     1       6.383   3.464  14.615  0.00  0.00    +0.000 OA
ATOM     18  H   UNL     1       6.129   3.042  15.453  0.00  0.00    +0.000 HD
ENDBRANCH  16  17
ENDBRANCH  15  16
ENDBRANCH   3  15
TORSDOF 6
ENDMDL
MODEL 8
REMARK VINA RESULT:      -6.3      1.744      1.913
REMARK  Name = 
REMARK  6 active torsions:
REMARK  status: ('A' for Active; 'I' for Inactive)
REMARK    1  A    between atoms: C_2  and  C_3
REMARK    2  A    between atoms: C_3  and  C_4
REMARK    3  A    between atoms: N_10  and  C_11
REMARK    4  A    between atoms: N_10  and  C_14
REMARK    5  A    between atoms: C_11  and  C_12
REMARK    6  A    between atoms: C_12  and  O_13
REMARK                            x       y       z     vdW  Elec       q    Type
REMARK                         _______ _______ _______ _____ _____    ______ ____
ROOT
ATOM      1  O   UNL     1       4.930   5.517  19.682  0.00  0.00    +0.000 OA
ATOM      2  C   UNL     1       4.874   4.850  18.647  0.00  0.00    +0.000 C 
ATOM      3  N   UNL     1       5.351   5.353  17.428  0.00  0.00    +0.000 N 
ENDROOT
BRANCH   3   4
ATOM      4  C   UNL     1       5.153   4.662  16.114  0.00  0.00    +0.000 C 
ATOM      5  C   UNL     1       5.410   5.547  14.856  0.00  0.00    +0.000 C 
ATOM      6  C   UNL     1       5.951   4.284  14.160  0.00  0.00    +0.000 C 
ATOM      7  C   UNL     1       6.299   3.762  15.563  0.00  0.00    +0.000 C 
ENDBRANCH   3   4
BRANCH   2   8
ATOM      8  C   UNL     1       4.255   3.454  18.645  0.00  0.00    +0.000 C 
BRANCH   8   9
ATOM      9  C   UNL     1       3.198   3.263  19.705  0.00  0.00    +0.000 A 
ATOM     10  C   UNL     1       1.880   3.683  19.502  0.00  0.00    +0.000 A 
ATOM     11  C   UNL     1       0.927   3.473  20.496  0.00  0.00    +0.000 A 
ATOM     12  C   UNL     1       1.327   2.851  21.667  0.00  0.00    +0.000 A 
ATOM     13  N   UNL     1       2.590   2.435  21.902  0.00  0.00    +0.000 NA
ATOM     14  C   UNL     1       3.492   2.639  20.914  0.00  0.00    +0.000 A 
ENDBRANCH   8   9
ENDBRANCH   2   8
BRANCH   3  15
ATOM     15  C   UNL     1       5.981   6.687  17.462  0.00  0.00    +0.000 C 
BRANCH  15  16
ATOM     16  C   UNL     1       7.480   6.693  17.785  0.00  0.00    +0.000 C 
BRANCH  16  17
ATOM     17  O   UNL     1       7.859   5.485  18.445  0.00  0.00    +0.000 OA
ATOM     18  H   UNL     1       8.262   4.926  17.760  0.00  0.00    +0.000 HD
ENDBRANCH  16  17
ENDBRANCH  15  16
ENDBRANCH   3  15
TORSDOF 6
ENDMDL
MODEL 9
REMARK VINA RESULT:      -6.3      1.832      2.092
REMARK  Name = 
REMARK  6 active torsions:
REMARK  status: ('A' for Active; 'I' for Inactive)
REMARK    1  A    between atoms: C_2  and  C_3
REMARK    2  A    between atoms: C_3  and  C_4
REMARK    3  A    between atoms: N_10  and  C_11
REMARK    4  A    between atoms: N_10  and  C_14
REMARK    5  A    between atoms: C_11  and  C_12
REMARK    6  A    between atoms: C_12  and  O_13
REMARK                            x       y       z     vdW  Elec       q    Type
REMARK                         _______ _______ _______ _____ _____    ______ ____
ROOT
ATOM      1  O   UNL     1       3.868   5.916  18.460  0.00  0.00    +0.000 OA
ATOM      2  C   UNL     1       4.331   5.033  17.735  0.00  0.00    +0.000 C 
ATOM      3  N   UNL     1       5.346   5.309  16.806  0.00  0.00    +0.000 N 
ENDROOT
BRANCH   3   4
ATOM      4  C   UNL     1       5.823   4.323  15.786  0.00  0.00    +0.000 C 
ATOM      5  C   UNL     1       5.065   4.359  14.424  0.00  0.00    +0.000 C 
ATOM      6  C   UNL     1       6.401   4.006  13.746  0.00  0.00    +0.000 C 
ATOM      7  C   UNL     1       7.092   4.669  14.949  0.00  0.00    +0.000 C 
ENDBRANCH   3   4
BRANCH   2   8
ATOM      8  C   UNL     1       3.799   3.603  17.800  0.00  0.00    +0.000 C 
BRANCH   8   9
ATOM      9  C   UNL     1       2.935   3.338  19.008  0.00  0.00    +0.000 A 
ATOM     10  C   UNL     1       1.546   3.491  18.958  0.00  0.00    +0.000 A 
ATOM     11  C   UNL     1       0.779   3.219  20.088  0.00  0.00    +0.000 A 
ATOM     12  C   UNL     1       1.430   2.804  21.238  0.00  0.00    +0.000 A 
ATOM     13  N   UNL     1       2.767   2.648  21.328  0.00  0.00    +0.000 NA
ATOM     14  C   UNL     1       3.487   2.905  20.212  0.00  0.00    +0.000 A 
ENDBRANCH   8   9
ENDBRANCH   2   8
BRANCH   3  15
ATOM     15  C   UNL     1       5.872   6.688  16.790  0.00  0.00    +0.000 C 
BRANCH  15  16
ATOM     16  C   UNL     1       7.176   6.899  17.566  0.00  0.00    +0.000 C 
BRANCH  16  17
ATOM     17  O   UNL     1       7.732   8.183  17.283  0.00  0.00    +0.000 OA
ATOM     18  H   UNL     1       8.011   8.545  18.141  0.00  0.00    +0.000 HD
ENDBRANCH  16  17
ENDBRANCH  15  16
ENDBRANCH   3  15
TORSDOF 6
ENDMDL
