MODEL 1
REMARK VINA RESULT:      -8.7      0.000      0.000
REMARK  Name = 
REMARK  5 active torsions:
REMARK  status: ('A' for Active; 'I' for Inactive)
REMARK    1  A    between atoms: C_2  and  C_3
REMARK    2  A    between atoms: C_3  and  N_4
REMARK    3  A    between atoms: C_5  and  C_7
REMARK    4  A    between atoms: C_12  and  N_13
REMARK    5  A    between atoms: C_14  and  C_16
REMARK                            x       y       z     vdW  Elec       q    Type
REMARK                         _______ _______ _______ _____ _____    ______ ____
ROOT
ATOM      1  N   UNL     1       4.324   3.314  18.131  0.00  0.00    +0.000 N 
ATOM      2  C   UNL     1       5.308   4.276  17.963  0.00  0.00    +0.000 C 
ATOM      3  O   UNL     1       5.689   5.063  18.835  0.00  0.00    +0.000 OA
ATOM      4  H   UNL     1       4.181   2.632  17.380  0.00  0.00    +0.000 HD
ENDROOT
BRANCH   2   5
ATOM      5  C   UNL     1       5.980   4.343  16.592  0.00  0.00    +0.000 C 
ATOM      6  C   UNL     1       6.252   5.811  16.253  0.00  0.00    +0.000 C 
ATOM      7  O   UNL     1       7.400   5.837  15.387  0.00  0.00    +0.000 OA
ATOM      8  C   UNL     1       7.157   5.011  14.313  0.00  0.00    +0.000 A 
ATOM      9  C   UNL     1       7.960   5.196  13.192  0.00  0.00    +0.000 A 
ATOM     10  C   UNL     1       7.611   4.567  12.001  0.00  0.00    +0.000 A 
ATOM     11  C   UNL     1       6.470   3.760  11.945  0.00  0.00    +0.000 A 
ATOM     12  C   UNL     1       5.734   3.487  13.104  0.00  0.00    +0.000 A 
ATOM     13  C   UNL     1       6.103   4.077  14.306  0.00  0.00    +0.000 A 
ATOM     14  O   UNL     1       5.376   3.752  15.443  0.00  0.00    +0.000 OA
ENDBRANCH   2   5
BRANCH   1  20
ATOM     15  C   UNL     1       2.216   3.815  19.351  0.00  0.00    +0.000 A 
ATOM     16  C   UNL     1       1.495   3.810  20.560  0.00  0.00    +0.000 A 
ATOM     17  C   UNL     1       1.886   3.011  21.626  0.00  0.00    +0.000 A 
ATOM     18  C   UNL     1       3.078   2.317  21.540  0.00  0.00    +0.000 A 
ATOM     19  C   UNL     1       3.885   2.450  20.407  0.00  0.00    +0.000 A 
ATOM     20  C   UNL     1       3.479   3.187  19.281  0.00  0.00    +0.000 A 
BRANCH  15  22
ATOM     21  N   UNL     1       1.811   5.768  17.863  0.00  0.00    +0.000 N 
ATOM     22  C   UNL     1       1.559   4.427  18.165  0.00  0.00    +0.000 C 
ATOM     23  O   UNL     1       0.792   3.761  17.472  0.00  0.00    +0.000 OA
ATOM     24  H   UNL     1       1.456   6.072  16.971  0.00  0.00    +0.000 HD
BRANCH  21  25
ATOM     25  C   UNL     1       2.543   6.708  18.692  0.00  0.00    +0.000 C 
BRANCH  25  27
ATOM     26  C   UNL     1       2.090   9.000  17.846  0.00  0.00    +0.000 C 
ATOM     27  C   UNL     1       2.908   7.940  17.939  0.00  0.00    +0.000 C 
ENDBRANCH  25  27
ENDBRANCH  21  25
ENDBRANCH  15  22
ENDBRANCH   1  20
TORSDOF 5
ENDMDL
MODEL 2
REMARK VINA RESULT:      -8.1      2.637      7.585
REMARK  Name = 
REMARK  5 active torsions:
REMARK  status: ('A' for Active; 'I' for Inactive)
REMARK    1  A    between atoms: C_2  and  C_3
REMARK    2  A    between atoms: C_3  and  N_4
REMARK    3  A    between atoms: C_5  and  C_7
REMARK    4  A    between atoms: C_12  and  N_13
REMARK    5  A    between atoms: C_14  and  C_16
REMARK                            x       y       z     vdW  Elec       q    Type
REMARK                         _______ _______ _______ _____ _____    ______ ____
ROOT
ATOM      1  N   UNL     1       4.221   6.681  17.747  0.00  0.00    +0.000 N 
ATOM      2  C   UNL     1       2.905   6.329  18.009  0.00  0.00    +0.000 C 
ATOM      3  O   UNL     1       2.391   5.244  17.726  0.00  0.00    +0.000 OA
ATOM      4  H   UNL     1       4.575   7.558  18.141  0.00  0.00    +0.000 HD
ENDROOT
BRANCH   2   5
ATOM      5  C   UNL     1       2.042   7.370  18.722  0.00  0.00    +0.000 C 
ATOM      6  C   UNL     1       2.354   8.748  18.132  0.00  0.00    +0.000 C 
ATOM      7  O   UNL     1       1.165   9.546  18.280  0.00  0.00    +0.000 OA
ATOM      8  C   UNL     1       0.792   9.534  19.604  0.00  0.00    +0.000 A 
ATOM      9  C   UNL     1      -0.081  10.537  20.013  0.00  0.00    +0.000 A 
ATOM     10  C   UNL     1      -0.304  10.724  21.374  0.00  0.00    +0.000 A 
ATOM     11  C   UNL     1       0.343   9.906  22.306  0.00  0.00    +0.000 A 
ATOM     12  C   UNL     1       1.128   8.827  21.884  0.00  0.00    +0.000 A 
ATOM     13  C   UNL     1       1.319   8.609  20.526  0.00  0.00    +0.000 A 
ATOM     14  O   UNL     1       2.069   7.505  20.142  0.00  0.00    +0.000 OA
ENDBRANCH   2   5
BRANCH   1  20
ATOM     15  C   UNL     1       6.098   5.062  17.562  0.00  0.00    +0.000 A 
ATOM     16  C   UNL     1       7.096   4.461  16.770  0.00  0.00    +0.000 A 
ATOM     17  C   UNL     1       7.034   4.502  15.384  0.00  0.00    +0.000 A 
ATOM     18  C   UNL     1       6.049   5.259  14.780  0.00  0.00    +0.000 A 
ATOM     19  C   UNL     1       5.155   5.996  15.561  0.00  0.00    +0.000 A 
ATOM     20  C   UNL     1       5.143   5.914  16.964  0.00  0.00    +0.000 A 
BRANCH  15  22
ATOM     21  N   UNL     1       5.320   3.577  19.401  0.00  0.00    +0.000 N 
ATOM     22  C   UNL     1       6.055   4.697  19.003  0.00  0.00    +0.000 C 
ATOM     23  O   UNL     1       6.648   5.386  19.832  0.00  0.00    +0.000 OA
ATOM     24  H   UNL     1       5.456   3.304  20.360  0.00  0.00    +0.000 HD
BRANCH  21  25
ATOM     25  C   UNL     1       4.435   2.792  18.559  0.00  0.00    +0.000 C 
BRANCH  25  27
ATOM     26  C   UNL     1       2.824   2.851  20.451  0.00  0.00    +0.000 C 
ATOM     27  C   UNL     1       3.264   2.275  19.321  0.00  0.00    +0.000 C 
ENDBRANCH  25  27
ENDBRANCH  21  25
ENDBRANCH  15  22
ENDBRANCH   1  20
TORSDOF 5
ENDMDL
MODEL 3
REMARK VINA RESULT:      -7.9      3.592      8.165
REMARK  Name = 
REMARK  5 active torsions:
REMARK  status: ('A' for Active; 'I' for Inactive)
REMARK    1  A    between atoms: C_2  and  C_3
REMARK    2  A    between atoms: C_3  and  N_4
REMARK    3  A    between atoms: C_5  and  C_7
REMARK    4  A    between atoms: C_12  and  N_13
REMARK    5  A    between atoms: C_14  and  C_16
REMARK                            x       y       z     vdW  Elec       q    Type
REMARK                         _______ _______ _______ _____ _____    ______ ____
ROOT
ATOM      1  N   UNL     1       2.469   7.065  18.508  0.00  0.00    +0.000 N 
ATOM      2  C   UNL     1       2.093   8.361  18.188  0.00  0.00    +0.000 C 
ATOM      3  O   UNL     1       2.426   8.966  17.165  0.00  0.00    +0.000 OA
ATOM      4  H   UNL     1       2.028   6.619  19.318  0.00  0.00    +0.000 HD
ENDROOT
BRANCH   2   5
ATOM      5  C   UNL     1       1.176   9.077  19.180  0.00  0.00    +0.000 C 
ATOM      6  C   UNL     1       1.420  10.585  19.067  0.00  0.00    +0.000 C 
ATOM      7  O   UNL     1       0.192  11.237  19.440  0.00  0.00    +0.000 OA
ATOM      8  C   UNL     1      -0.184  10.784  20.684  0.00  0.00    +0.000 A 
ATOM      9  C   UNL     1      -1.107  11.562  21.375  0.00  0.00    +0.000 A 
ATOM     10  C   UNL     1      -1.344  11.292  22.721  0.00  0.00    +0.000 A 
ATOM     11  C   UNL     1      -0.659  10.251  23.354  0.00  0.00    +0.000 A 
ATOM     12  C   UNL     1       0.180   9.401  22.624  0.00  0.00    +0.000 A 
ATOM     13  C   UNL     1       0.386   9.638  21.271  0.00  0.00    +0.000 A 
ATOM     14  O   UNL     1       1.192   8.752  20.569  0.00  0.00    +0.000 OA
ENDBRANCH   2   5
BRANCH   1  20
ATOM     15  C   UNL     1       3.278   4.889  17.618  0.00  0.00    +0.000 A 
ATOM     16  C   UNL     1       4.327   4.131  17.063  0.00  0.00    +0.000 A 
ATOM     17  C   UNL     1       5.423   4.746  16.472  0.00  0.00    +0.000 A 
ATOM     18  C   UNL     1       5.544   6.120  16.553  0.00  0.00    +0.000 A 
ATOM     19  C   UNL     1       4.590   6.866  17.251  0.00  0.00    +0.000 A 
ATOM     20  C   UNL     1       3.431   6.283  17.792  0.00  0.00    +0.000 A 
BRANCH  15  22
ATOM     21  N   UNL     1       1.947   3.351  19.051  0.00  0.00    +0.000 N 
ATOM     22  C   UNL     1       2.009   4.178  17.927  0.00  0.00    +0.000 C 
ATOM     23  O   UNL     1       1.034   4.307  17.188  0.00  0.00    +0.000 OA
ATOM     24  H   UNL     1       1.024   3.023  19.281  0.00  0.00    +0.000 HD
BRANCH  21  25
ATOM     25  C   UNL     1       3.065   2.970  19.895  0.00  0.00    +0.000 C 
BRANCH  25  27
ATOM     26  C   UNL     1       1.356   2.773  21.689  0.00  0.00    +0.000 C 
ATOM     27  C   UNL     1       2.643   2.756  21.307  0.00  0.00    +0.000 C 
ENDBRANCH  25  27
ENDBRANCH  21  25
ENDBRANCH  15  22
ENDBRANCH   1  20
TORSDOF 5
ENDMDL
MODEL 4
REMARK VINA RESULT:      -7.9      3.529      8.149
REMARK  Name = 
REMARK  5 active torsions:
REMARK  status: ('A' for Active; 'I' for Inactive)
REMARK    1  A    between atoms: C_2  and  C_3
REMARK    2  A    between atoms: C_3  and  N_4
REMARK    3  A    between atoms: C_5  and  C_7
REMARK    4  A    between atoms: C_12  and  N_13
REMARK    5  A    between atoms: C_14  and  C_16
REMARK                            x       y       z     vdW  Elec       q    Type
REMARK                         _______ _______ _______ _____ _____    ______ ____
ROOT
ATOM      1  N   UNL     1       2.819   6.974  18.728  0.00  0.00    +0.000 N 
ATOM      2  C   UNL     1       2.259   8.207  18.429  0.00  0.00    +0.000 C 
ATOM      3  O   UNL     1       2.263   8.739  17.315  0.00  0.00    +0.000 OA
ATOM      4  H   UNL     1       2.643   6.574  19.654  0.00  0.00    +0.000 HD
ENDROOT
BRANCH   2   5
ATOM      5  C   UNL     1       1.566   8.944  19.575  0.00  0.00    +0.000 C 
ATOM      6  C   UNL     1       1.044   7.910  20.575  0.00  0.00    +0.000 C 
ATOM      7  O   UNL     1       1.024   8.546  21.866  0.00  0.00    +0.000 OA
ATOM      8  C   UNL     1       0.292   9.707  21.770  0.00  0.00    +0.000 A 
ATOM      9  C   UNL     1      -0.166  10.253  22.965  0.00  0.00    +0.000 A 
ATOM     10  C   UNL     1      -1.106  11.279  22.922  0.00  0.00    +0.000 A 
ATOM     11  C   UNL     1      -1.571  11.748  21.689  0.00  0.00    +0.000 A 
ATOM     12  C   UNL     1      -1.021  11.274  20.492  0.00  0.00    +0.000 A 
ATOM     13  C   UNL     1      -0.051  10.281  20.531  0.00  0.00    +0.000 A 
ATOM     14  O   UNL     1       0.503   9.863  19.328  0.00  0.00    +0.000 OA
ENDBRANCH   2   5
BRANCH   1  20
ATOM     15  C   UNL     1       3.341   4.848  17.550  0.00  0.00    +0.000 A 
ATOM     16  C   UNL     1       4.258   4.072  16.814  0.00  0.00    +0.000 A 
ATOM     17  C   UNL     1       5.339   4.659  16.172  0.00  0.00    +0.000 A 
ATOM     18  C   UNL     1       5.590   6.003  16.372  0.00  0.00    +0.000 A 
ATOM     19  C   UNL     1       4.780   6.744  17.237  0.00  0.00    +0.000 A 
ATOM     20  C   UNL     1       3.633   6.199  17.840  0.00  0.00    +0.000 A 
BRANCH  15  22
ATOM     21  N   UNL     1       1.958   3.513  19.131  0.00  0.00    +0.000 N 
ATOM     22  C   UNL     1       2.050   4.209  17.923  0.00  0.00    +0.000 C 
ATOM     23  O   UNL     1       1.084   4.283  17.166  0.00  0.00    +0.000 OA
ATOM     24  H   UNL     1       1.024   3.237  19.387  0.00  0.00    +0.000 HD
BRANCH  21  25
ATOM     25  C   UNL     1       3.060   3.197  20.021  0.00  0.00    +0.000 C 
BRANCH  25  27
ATOM     26  C   UNL     1       1.339   2.603  21.713  0.00  0.00    +0.000 C 
ATOM     27  C   UNL     1       2.594   2.975  21.419  0.00  0.00    +0.000 C 
ENDBRANCH  25  27
ENDBRANCH  21  25
ENDBRANCH  15  22
ENDBRANCH   1  20
TORSDOF 5
ENDMDL
MODEL 5
REMARK VINA RESULT:      -7.8      2.604      7.598
REMARK  Name = 
REMARK  5 active torsions:
REMARK  status: ('A' for Active; 'I' for Inactive)
REMARK    1  A    between atoms: C_2  and  C_3
REMARK    2  A    between atoms: C_3  and  N_4
REMARK    3  A    between atoms: C_5  and  C_7
REMARK    4  A    between atoms: C_12  and  N_13
REMARK    5  A    between atoms: C_14  and  C_16
REMARK                            x       y       z     vdW  Elec       q    Type
REMARK                         _______ _______ _______ _____ _____    ______ ____
ROOT
ATOM      1  N   UNL     1       4.412   6.911  17.776  0.00  0.00    +0.000 N 
ATOM      2  C   UNL     1       3.077   6.719  18.097  0.00  0.00    +0.000 C 
ATOM      3  O   UNL     1       2.425   5.702  17.845  0.00  0.00    +0.000 OA
ATOM      4  H   UNL     1       4.885   7.740  18.147  0.00  0.00    +0.000 HD
ENDROOT
BRANCH   2   5
ATOM      5  C   UNL     1       2.376   7.857  18.838  0.00  0.00    +0.000 C 
ATOM      6  C   UNL     1       1.711   7.284  20.093  0.00  0.00    +0.000 C 
ATOM      7  O   UNL     1       1.662   8.346  21.064  0.00  0.00    +0.000 OA
ATOM      8  C   UNL     1       1.033   9.430  20.496  0.00  0.00    +0.000 A 
ATOM      9  C   UNL     1       0.547  10.395  21.372  0.00  0.00    +0.000 A 
ATOM     10  C   UNL     1      -0.303  11.383  20.883  0.00  0.00    +0.000 A 
ATOM     11  C   UNL     1      -0.652  11.397  19.529  0.00  0.00    +0.000 A 
ATOM     12  C   UNL     1      -0.068  10.493  18.633  0.00  0.00    +0.000 A 
ATOM     13  C   UNL     1       0.815   9.532  19.109  0.00  0.00    +0.000 A 
ATOM     14  O   UNL     1       1.407   8.678  18.187  0.00  0.00    +0.000 OA
ENDBRANCH   2   5
BRANCH   1  20
ATOM     15  C   UNL     1       6.063   5.069  17.523  0.00  0.00    +0.000 A 
ATOM     16  C   UNL     1       6.948   4.351  16.696  0.00  0.00    +0.000 A 
ATOM     17  C   UNL     1       6.841   4.404  15.313  0.00  0.00    +0.000 A 
ATOM     18  C   UNL     1       5.937   5.281  14.745  0.00  0.00    +0.000 A 
ATOM     19  C   UNL     1       5.172   6.122  15.558  0.00  0.00    +0.000 A 
ATOM     20  C   UNL     1       5.201   6.037  16.961  0.00  0.00    +0.000 A 
BRANCH  15  22
ATOM     21  N   UNL     1       5.234   3.635  19.380  0.00  0.00    +0.000 N 
ATOM     22  C   UNL     1       6.028   4.707  18.965  0.00  0.00    +0.000 C 
ATOM     23  O   UNL     1       6.680   5.358  19.781  0.00  0.00    +0.000 OA
ATOM     24  H   UNL     1       5.373   3.354  20.336  0.00  0.00    +0.000 HD
BRANCH  21  25
ATOM     25  C   UNL     1       4.285   2.907  18.557  0.00  0.00    +0.000 C 
BRANCH  25  27
ATOM     26  C   UNL     1       1.939   2.100  18.706  0.00  0.00    +0.000 C 
ATOM     27  C   UNL     1       3.032   2.598  19.303  0.00  0.00    +0.000 C 
ENDBRANCH  25  27
ENDBRANCH  21  25
ENDBRANCH  15  22
ENDBRANCH   1  20
TORSDOF 5
ENDMDL
MODEL 6
REMARK VINA RESULT:      -7.7      1.497      1.572
REMARK  Name = 
REMARK  5 active torsions:
REMARK  status: ('A' for Active; 'I' for Inactive)
REMARK    1  A    between atoms: C_2  and  C_3
REMARK    2  A    between atoms: C_3  and  N_4
REMARK    3  A    between atoms: C_5  and  C_7
REMARK    4  A    between atoms: C_12  and  N_13
REMARK    5  A    between atoms: C_14  and  C_16
REMARK                            x       y       z     vdW  Elec       q    Type
REMARK                         _______ _______ _______ _____ _____    ______ ____
ROOT
ATOM      1  N   UNL     1       4.201   3.768  18.132  0.00  0.00    +0.000 N 
ATOM      2  C   UNL     1       5.524   4.177  18.048  0.00  0.00    +0.000 C 
ATOM      3  O   UNL     1       6.249   4.441  19.011  0.00  0.00    +0.000 OA
ATOM      4  H   UNL     1       3.737   3.452  17.275  0.00  0.00    +0.000 HD
ENDROOT
BRANCH   2   5
ATOM      5  C   UNL     1       6.124   4.285  16.646  0.00  0.00    +0.000 C 
ATOM      6  C   UNL     1       6.297   5.767  16.303  0.00  0.00    +0.000 C 
ATOM      7  O   UNL     1       7.400   5.859  15.382  0.00  0.00    +0.000 OA
ATOM      8  C   UNL     1       7.151   5.024  14.317  0.00  0.00    +0.000 A 
ATOM      9  C   UNL     1       7.888   5.257  13.160  0.00  0.00    +0.000 A 
ATOM     10  C   UNL     1       7.517   4.613  11.983  0.00  0.00    +0.000 A 
ATOM     11  C   UNL     1       6.420   3.745  11.978  0.00  0.00    +0.000 A 
ATOM     12  C   UNL     1       5.757   3.427  13.169  0.00  0.00    +0.000 A 
ATOM     13  C   UNL     1       6.151   4.033  14.355  0.00  0.00    +0.000 A 
ATOM     14  O   UNL     1       5.499   3.665  15.523  0.00  0.00    +0.000 OA
ENDBRANCH   2   5
BRANCH   1  20
ATOM     15  C   UNL     1       2.667   4.866  19.750  0.00  0.00    +0.000 A 
ATOM     16  C   UNL     1       2.051   4.865  21.017  0.00  0.00    +0.000 A 
ATOM     17  C   UNL     1       1.972   3.705  21.774  0.00  0.00    +0.000 A 
ATOM     18  C   UNL     1       2.626   2.570  21.333  0.00  0.00    +0.000 A 
ATOM     19  C   UNL     1       3.381   2.611  20.158  0.00  0.00    +0.000 A 
ATOM     20  C   UNL     1       3.417   3.746  19.329  0.00  0.00    +0.000 A 
BRANCH  15  22
ATOM     21  N   UNL     1       2.121   7.276  19.453  0.00  0.00    +0.000 N 
ATOM     22  C   UNL     1       2.423   6.042  18.872  0.00  0.00    +0.000 C 
ATOM     23  O   UNL     1       2.470   5.919  17.649  0.00  0.00    +0.000 OA
ATOM     24  H   UNL     1       2.115   8.052  18.813  0.00  0.00    +0.000 HD
BRANCH  21  25
ATOM     25  C   UNL     1       1.856   7.516  20.860  0.00  0.00    +0.000 C 
BRANCH  25  27
ATOM     26  C   UNL     1      -0.271   8.568  21.602  0.00  0.00    +0.000 C 
ATOM     27  C   UNL     1       0.951   8.683  21.060  0.00  0.00    +0.000 C 
ENDBRANCH  25  27
ENDBRANCH  21  25
ENDBRANCH  15  22
ENDBRANCH   1  20
TORSDOF 5
ENDMDL
MODEL 7
REMARK VINA RESULT:      -7.6      2.862      7.460
REMARK  Name = 
REMARK  5 active torsions:
REMARK  status: ('A' for Active; 'I' for Inactive)
REMARK    1  A    between atoms: C_2  and  C_3
REMARK    2  A    between atoms: C_3  and  N_4
REMARK    3  A    between atoms: C_5  and  C_7
REMARK    4  A    between atoms: C_12  and  N_13
REMARK    5  A    between atoms: C_14  and  C_16
REMARK                            x       y       z     vdW  Elec       q    Type
REMARK                         _______ _______ _______ _____ _____    ______ ____
ROOT
ATOM      1  N   UNL     1       4.248   6.568  17.402  0.00  0.00    +0.000 N 
ATOM      2  C   UNL     1       3.058   6.150  17.979  0.00  0.00    +0.000 C 
ATOM      3  O   UNL     1       2.668   4.981  18.036  0.00  0.00    +0.000 OA
ATOM      4  H   UNL     1       4.529   7.545  17.527  0.00  0.00    +0.000 HD
ENDROOT
BRANCH   2   5
ATOM      5  C   UNL     1       2.179   7.232  18.606  0.00  0.00    +0.000 C 
ATOM      6  C   UNL     1       2.540   8.579  17.976  0.00  0.00    +0.000 C 
ATOM      7  O   UNL     1       1.359   9.400  18.034  0.00  0.00    +0.000 OA
ATOM      8  C   UNL     1       0.923   9.448  19.338  0.00  0.00    +0.000 A 
ATOM      9  C   UNL     1       0.048  10.480  19.663  0.00  0.00    +0.000 A 
ATOM     10  C   UNL     1      -0.236  10.727  21.003  0.00  0.00    +0.000 A 
ATOM     11  C   UNL     1       0.352   9.940  21.998  0.00  0.00    +0.000 A 
ATOM     12  C   UNL     1       1.139   8.832  21.658  0.00  0.00    +0.000 A 
ATOM     13  C   UNL     1       1.390   8.555  20.321  0.00  0.00    +0.000 A 
ATOM     14  O   UNL     1       2.140   7.426  20.019  0.00  0.00    +0.000 OA
ENDBRANCH   2   5
BRANCH   1  20
ATOM     15  C   UNL     1       6.196   5.032  17.243  0.00  0.00    +0.000 A 
ATOM     16  C   UNL     1       7.146   4.372  16.439  0.00  0.00    +0.000 A 
ATOM     17  C   UNL     1       6.942   4.207  15.076  0.00  0.00    +0.000 A 
ATOM     18  C   UNL     1       5.854   4.818  14.483  0.00  0.00    +0.000 A 
ATOM     19  C   UNL     1       4.999   5.617  15.246  0.00  0.00    +0.000 A 
ATOM     20  C   UNL     1       5.133   5.740  16.640  0.00  0.00    +0.000 A 
BRANCH  15  22
ATOM     21  N   UNL     1       7.263   5.652  19.404  0.00  0.00    +0.000 N 
ATOM     22  C   UNL     1       6.323   4.880  18.717  0.00  0.00    +0.000 C 
ATOM     23  O   UNL     1       5.617   4.071  19.317  0.00  0.00    +0.000 OA
ATOM     24  H   UNL     1       7.192   5.608  20.407  0.00  0.00    +0.000 HD
BRANCH  21  25
ATOM     25  C   UNL     1       8.275   6.502  18.802  0.00  0.00    +0.000 C 
BRANCH  25  27
ATOM     26  C   UNL     1       8.268   8.867  18.039  0.00  0.00    +0.000 C 
ATOM     27  C   UNL     1       7.669   7.668  18.100  0.00  0.00    +0.000 C 
ENDBRANCH  25  27
ENDBRANCH  21  25
ENDBRANCH  15  22
ENDBRANCH   1  20
TORSDOF 5
ENDMDL
MODEL 8
REMARK VINA RESULT:      -7.5      3.238      7.839
REMARK  Name = 
REMARK  5 active torsions:
REMARK  status: ('A' for Active; 'I' for Inactive)
REMARK    1  A    between atoms: C_2  and  C_3
REMARK    2  A    between atoms: C_3  and  N_4
REMARK    3  A    between atoms: C_5  and  C_7
REMARK    4  A    between atoms: C_12  and  N_13
REMARK    5  A    between atoms: C_14  and  C_16
REMARK                            x       y       z     vdW  Elec       q    Type
REMARK                         _______ _______ _______ _____ _____    ______ ____
ROOT
ATOM      1  N   UNL     1       2.881   6.872  18.086  0.00  0.00    +0.000 N 
ATOM      2  C   UNL     1       2.549   6.855  19.433  0.00  0.00    +0.000 C 
ATOM      3  O   UNL     1       3.016   6.078  20.270  0.00  0.00    +0.000 OA
ATOM      4  H   UNL     1       2.529   7.644  17.511  0.00  0.00    +0.000 HD
ENDROOT
BRANCH   2   5
ATOM      5  C   UNL     1       1.539   7.900  19.906  0.00  0.00    +0.000 C 
ATOM      6  C   UNL     1       1.822   9.217  19.178  0.00  0.00    +0.000 C 
ATOM      7  O   UNL     1       0.573   9.926  19.091  0.00  0.00    +0.000 OA
ATOM      8  C   UNL     1       0.048  10.045  20.358  0.00  0.00    +0.000 A 
ATOM      9  C   UNL     1      -0.933  11.015  20.536  0.00  0.00    +0.000 A 
ATOM     10  C   UNL     1      -1.326  11.348  21.829  0.00  0.00    +0.000 A 
ATOM     11  C   UNL     1      -0.737  10.707  22.925  0.00  0.00    +0.000 A 
ATOM     12  C   UNL     1       0.163   9.653  22.734  0.00  0.00    +0.000 A 
ATOM     13  C   UNL     1       0.526   9.287  21.444  0.00  0.00    +0.000 A 
ATOM     14  O   UNL     1       1.390   8.211  21.291  0.00  0.00    +0.000 OA
ENDBRANCH   2   5
BRANCH   1  20
ATOM     15  C   UNL     1       3.325   4.528  17.388  0.00  0.00    +0.000 A 
ATOM     16  C   UNL     1       4.227   3.574  16.877  0.00  0.00    +0.000 A 
ATOM     17  C   UNL     1       5.372   3.963  16.196  0.00  0.00    +0.000 A 
ATOM     18  C   UNL     1       5.696   5.305  16.140  0.00  0.00    +0.000 A 
ATOM     19  C   UNL     1       4.893   6.246  16.791  0.00  0.00    +0.000 A 
ATOM     20  C   UNL     1       3.687   5.893  17.421  0.00  0.00    +0.000 A 
BRANCH  15  22
ATOM     21  N   UNL     1       1.867   3.238  18.937  0.00  0.00    +0.000 N 
ATOM     22  C   UNL     1       1.980   4.045  17.802  0.00  0.00    +0.000 C 
ATOM     23  O   UNL     1       0.987   4.343  17.141  0.00  0.00    +0.000 OA
ATOM     24  H   UNL     1       0.922   3.073  19.242  0.00  0.00    +0.000 HD
BRANCH  21  25
ATOM     25  C   UNL     1       2.966   2.667  19.693  0.00  0.00    +0.000 C 
BRANCH  25  27
ATOM     26  C   UNL     1       1.501   2.752  21.700  0.00  0.00    +0.000 C 
ATOM     27  C   UNL     1       2.731   2.757  21.162  0.00  0.00    +0.000 C 
ENDBRANCH  25  27
ENDBRANCH  21  25
ENDBRANCH  15  22
ENDBRANCH   1  20
TORSDOF 5
ENDMDL
MODEL 9
REMARK VINA RESULT:      -7.3      3.122      7.411
REMARK  Name = 
REMARK  5 active torsions:
REMARK  status: ('A' for Active; 'I' for Inactive)
REMARK    1  A    between atoms: C_2  and  C_3
REMARK    2  A    between atoms: C_3  and  N_4
REMARK    3  A    between atoms: C_5  and  C_7
REMARK    4  A    between atoms: C_12  and  N_13
REMARK    5  A    between atoms: C_14  and  C_16
REMARK                            x       y       z     vdW  Elec       q    Type
REMARK                         _______ _______ _______ _____ _____    ______ ____
ROOT
ATOM      1  N   UNL     1       2.461   6.335  18.828  0.00  0.00    +0.000 N 
ATOM      2  C   UNL     1       2.019   6.817  20.051  0.00  0.00    +0.000 C 
ATOM      3  O   UNL     1       1.878   6.140  21.073  0.00  0.00    +0.000 OA
ATOM      4  H   UNL     1       2.664   7.011  18.085  0.00  0.00    +0.000 HD
ENDROOT
BRANCH   2   5
ATOM      5  C   UNL     1       1.705   8.310  20.129  0.00  0.00    +0.000 C 
ATOM      6  C   UNL     1       0.945   8.581  21.430  0.00  0.00    +0.000 C 
ATOM      7  O   UNL     1       1.239   9.936  21.816  0.00  0.00    +0.000 OA
ATOM      8  C   UNL     1       0.934  10.766  20.762  0.00  0.00    +0.000 A 
ATOM      9  C   UNL     1       0.779  12.116  21.060  0.00  0.00    +0.000 A 
ATOM     10  C   UNL     1       0.237  12.962  20.096  0.00  0.00    +0.000 A 
ATOM     11  C   UNL     1      -0.138  12.450  18.849  0.00  0.00    +0.000 A 
ATOM     12  C   UNL     1       0.128  11.117  18.517  0.00  0.00    +0.000 A 
ATOM     13  C   UNL     1       0.708  10.279  19.460  0.00  0.00    +0.000 A 
ATOM     14  O   UNL     1       0.995   8.974  19.084  0.00  0.00    +0.000 OA
ENDBRANCH   2   5
BRANCH   1  20
ATOM     15  C   UNL     1       3.954   4.429  18.262  0.00  0.00    +0.000 A 
ATOM     16  C   UNL     1       4.097   3.112  17.783  0.00  0.00    +0.000 A 
ATOM     17  C   UNL     1       3.019   2.237  17.758  0.00  0.00    +0.000 A 
ATOM     18  C   UNL     1       1.763   2.712  18.083  0.00  0.00    +0.000 A 
ATOM     19  C   UNL     1       1.585   4.061  18.398  0.00  0.00    +0.000 A 
ATOM     20  C   UNL     1       2.666   4.954  18.508  0.00  0.00    +0.000 A 
BRANCH  15  22
ATOM     21  N   UNL     1       5.708   6.069  17.610  0.00  0.00    +0.000 N 
ATOM     22  C   UNL     1       5.199   5.185  18.565  0.00  0.00    +0.000 C 
ATOM     23  O   UNL     1       5.776   5.018  19.638  0.00  0.00    +0.000 OA
ATOM     24  H   UNL     1       6.461   6.652  17.937  0.00  0.00    +0.000 HD
BRANCH  21  25
ATOM     25  C   UNL     1       5.233   6.221  16.247  0.00  0.00    +0.000 C 
BRANCH  25  27
ATOM     26  C   UNL     1       5.577   4.332  14.669  0.00  0.00    +0.000 C 
ATOM     27  C   UNL     1       6.048   5.426  15.287  0.00  0.00    +0.000 C 
ENDBRANCH  25  27
ENDBRANCH  21  25
ENDBRANCH  15  22
ENDBRANCH   1  20
TORSDOF 5
ENDMDL
