MODEL 1
REMARK VINA RESULT:      -7.7      0.000      0.000
REMARK  Name = 
REMARK  4 active torsions:
REMARK  status: ('A' for Active; 'I' for Inactive)
REMARK    1  A    between atoms: C_2  and  C_12
REMARK    2  A    between atoms: N_3  and  C_4
REMARK    3  A    between atoms: C_4  and  C_5
REMARK    4  A    between atoms: N_14  and  C_15
REMARK                            x       y       z     vdW  Elec       q    Type
REMARK                         _______ _______ _______ _____ _____    ______ ____
ROOT
ATOM      1  O   UNL     1       3.441   2.755  20.709  0.00  0.00    +0.000 OA
ATOM      2  C   UNL     1       3.449   3.290  19.609  0.00  0.00    +0.000 C 
ATOM      3  N   UNL     1       4.256   2.855  18.584  0.00  0.00    +0.000 N 
ATOM      4  H   UNL     1       4.787   2.019  18.790  0.00  0.00    +0.000 HD
ENDROOT
BRANCH   2   5
ATOM      5  C   UNL     1       2.538   4.487  19.323  0.00  0.00    +0.000 C 
ATOM      6  O   UNL     1       1.583   4.298  18.586  0.00  0.00    +0.000 OA
ATOM      7  N   UNL     1       2.984   5.676  19.873  0.00  0.00    +0.000 N 
ATOM      8  H   UNL     1       3.885   5.651  20.343  0.00  0.00    +0.000 HD
BRANCH   7   9
ATOM      9  C   UNL     1       2.375   6.934  19.704  0.00  0.00    +0.000 A 
ATOM     10  C   UNL     1       1.673   7.579  20.728  0.00  0.00    +0.000 A 
ATOM     11  C   UNL     1       1.048   8.807  20.505  0.00  0.00    +0.000 A 
ATOM     12  C   UNL     1       1.122   9.400  19.250  0.00  0.00    +0.000 A 
ATOM     13 BR   UNL     1       0.248  11.047  18.942  0.00  0.00    +0.000 Br
ATOM     14  C   UNL     1       1.835   8.784  18.223  0.00  0.00    +0.000 A 
ATOM     15  C   UNL     1       2.470   7.556  18.453  0.00  0.00    +0.000 A 
ENDBRANCH   7   9
ENDBRANCH   2   5
BRANCH   3  16
ATOM     16  C   UNL     1       4.455   3.524  17.317  0.00  0.00    +0.000 C 
BRANCH  16  17
ATOM     17  C   UNL     1       5.374   4.719  17.444  0.00  0.00    +0.000 A 
ATOM     18  C   UNL     1       6.599   4.640  18.131  0.00  0.00    +0.000 A 
ATOM     19  C   UNL     1       7.441   5.751  18.216  0.00  0.00    +0.000 A 
ATOM     20  C   UNL     1       7.077   6.946  17.603  0.00  0.00    +0.000 A 
ATOM     21 CL   UNL     1       8.118   8.311  17.701  0.00  0.00    +0.000 Cl
ATOM     22  C   UNL     1       5.875   7.041  16.907  0.00  0.00    +0.000 A 
ATOM     23  C   UNL     1       5.029   5.931  16.826  0.00  0.00    +0.000 A 
ENDBRANCH  16  17
ENDBRANCH   3  16
TORSDOF 4
ENDMDL
MODEL 2
REMARK VINA RESULT:      -7.7      0.123      1.493
REMARK  Name = 
REMARK  4 active torsions:
REMARK  status: ('A' for Active; 'I' for Inactive)
REMARK    1  A    between atoms: C_2  and  C_12
REMARK    2  A    between atoms: N_3  and  C_4
REMARK    3  A    between atoms: C_4  and  C_5
REMARK    4  A    between atoms: N_14  and  C_15
REMARK                            x       y       z     vdW  Elec       q    Type
REMARK                         _______ _______ _______ _____ _____    ______ ____
ROOT
ATOM      1  O   UNL     1       3.520   2.823  20.782  0.00  0.00    +0.000 OA
ATOM      2  C   UNL     1       3.483   3.316  19.663  0.00  0.00    +0.000 C 
ATOM      3  N   UNL     1       4.269   2.859  18.630  0.00  0.00    +0.000 N 
ATOM      4  H   UNL     1       4.825   2.044  18.850  0.00  0.00    +0.000 HD
ENDROOT
BRANCH   2   5
ATOM      5  C   UNL     1       2.538   4.482  19.361  0.00  0.00    +0.000 C 
ATOM      6  O   UNL     1       1.515   4.225  18.745  0.00  0.00    +0.000 OA
ATOM      7  N   UNL     1       3.027   5.717  19.750  0.00  0.00    +0.000 N 
ATOM      8  H   UNL     1       3.970   5.734  20.126  0.00  0.00    +0.000 HD
BRANCH   7   9
ATOM      9  C   UNL     1       2.393   6.953  19.528  0.00  0.00    +0.000 A 
ATOM     10  C   UNL     1       2.427   7.609  18.292  0.00  0.00    +0.000 A 
ATOM     11  C   UNL     1       1.820   8.856  18.126  0.00  0.00    +0.000 A 
ATOM     12  C   UNL     1       1.172   9.456  19.200  0.00  0.00    +0.000 A 
ATOM     13 BR   UNL     1       0.379  11.157  18.981  0.00  0.00    +0.000 Br
ATOM     14  C   UNL     1       1.109   8.808  20.433  0.00  0.00    +0.000 A 
ATOM     15  C   UNL     1       1.710   7.553  20.593  0.00  0.00    +0.000 A 
ENDBRANCH   7   9
ENDBRANCH   2   5
BRANCH   3  16
ATOM     16  C   UNL     1       4.415   3.485  17.334  0.00  0.00    +0.000 C 
BRANCH  16  17
ATOM     17  C   UNL     1       5.326   4.692  17.385  0.00  0.00    +0.000 A 
ATOM     18  C   UNL     1       5.020   5.878  16.694  0.00  0.00    +0.000 A 
ATOM     19  C   UNL     1       5.865   6.988  16.773  0.00  0.00    +0.000 A 
ATOM     20  C   UNL     1       7.014   6.929  17.556  0.00  0.00    +0.000 A 
ATOM     21 CL   UNL     1       8.049   8.298  17.660  0.00  0.00    +0.000 Cl
ATOM     22  C   UNL     1       7.327   5.769  18.258  0.00  0.00    +0.000 A 
ATOM     23  C   UNL     1       6.485   4.656  18.175  0.00  0.00    +0.000 A 
ENDBRANCH  16  17
ENDBRANCH   3  16
TORSDOF 4
ENDMDL
MODEL 3
REMARK VINA RESULT:      -7.6      1.051      1.565
REMARK  Name = 
REMARK  4 active torsions:
REMARK  status: ('A' for Active; 'I' for Inactive)
REMARK    1  A    between atoms: C_2  and  C_12
REMARK    2  A    between atoms: N_3  and  C_4
REMARK    3  A    between atoms: C_4  and  C_5
REMARK    4  A    between atoms: N_14  and  C_15
REMARK                            x       y       z     vdW  Elec       q    Type
REMARK                         _______ _______ _______ _____ _____    ______ ____
ROOT
ATOM      1  O   UNL     1       2.767   2.965  22.022  0.00  0.00    +0.000 OA
ATOM      2  C   UNL     1       2.670   3.285  20.845  0.00  0.00    +0.000 C 
ATOM      3  N   UNL     1       3.278   2.575  19.836  0.00  0.00    +0.000 N 
ATOM      4  H   UNL     1       3.750   1.733  20.136  0.00  0.00    +0.000 HD
ENDROOT
BRANCH   2   5
ATOM      5  C   UNL     1       1.847   4.511  20.441  0.00  0.00    +0.000 C 
ATOM      6  O   UNL     1       0.704   4.315  20.060  0.00  0.00    +0.000 OA
ATOM      7  N   UNL     1       2.557   5.699  20.472  0.00  0.00    +0.000 N 
ATOM      8  H   UNL     1       3.547   5.632  20.687  0.00  0.00    +0.000 HD
BRANCH   7   9
ATOM      9  C   UNL     1       2.061   6.957  20.082  0.00  0.00    +0.000 A 
ATOM     10  C   UNL     1       2.289   7.500  18.813  0.00  0.00    +0.000 A 
ATOM     11  C   UNL     1       1.815   8.771  18.481  0.00  0.00    +0.000 A 
ATOM     12  C   UNL     1       1.105   9.509  19.422  0.00  0.00    +0.000 A 
ATOM     13 BR   UNL     1       0.491  11.241  18.981  0.00  0.00    +0.000 Br
ATOM     14  C   UNL     1       0.848   8.976  20.685  0.00  0.00    +0.000 A 
ATOM     15  C   UNL     1       1.318   7.696  21.010  0.00  0.00    +0.000 A 
ENDBRANCH   7   9
ENDBRANCH   2   5
BRANCH   3  16
ATOM     16  C   UNL     1       3.358   2.974  18.447  0.00  0.00    +0.000 C 
BRANCH  16  17
ATOM     17  C   UNL     1       4.390   4.057  18.225  0.00  0.00    +0.000 A 
ATOM     18  C   UNL     1       5.493   4.214  19.083  0.00  0.00    +0.000 A 
ATOM     19  C   UNL     1       6.446   5.207  18.845  0.00  0.00    +0.000 A 
ATOM     20  C   UNL     1       6.314   6.043  17.741  0.00  0.00    +0.000 A 
ATOM     21 CL   UNL     1       7.492   7.261  17.444  0.00  0.00    +0.000 Cl
ATOM     22  C   UNL     1       5.236   5.896  16.872  0.00  0.00    +0.000 A 
ATOM     23  C   UNL     1       4.280   4.905  17.112  0.00  0.00    +0.000 A 
ENDBRANCH  16  17
ENDBRANCH   3  16
TORSDOF 4
ENDMDL
MODEL 4
REMARK VINA RESULT:      -7.6      1.034      1.859
REMARK  Name = 
REMARK  4 active torsions:
REMARK  status: ('A' for Active; 'I' for Inactive)
REMARK    1  A    between atoms: C_2  and  C_12
REMARK    2  A    between atoms: N_3  and  C_4
REMARK    3  A    between atoms: C_4  and  C_5
REMARK    4  A    between atoms: N_14  and  C_15
REMARK                            x       y       z     vdW  Elec       q    Type
REMARK                         _______ _______ _______ _____ _____    ______ ____
ROOT
ATOM      1  O   UNL     1       2.792   2.863  21.950  0.00  0.00    +0.000 OA
ATOM      2  C   UNL     1       2.686   3.183  20.774  0.00  0.00    +0.000 C 
ATOM      3  N   UNL     1       3.273   2.465  19.759  0.00  0.00    +0.000 N 
ATOM      4  H   UNL     1       3.737   1.617  20.055  0.00  0.00    +0.000 HD
ENDROOT
BRANCH   2   5
ATOM      5  C   UNL     1       1.875   4.421  20.378  0.00  0.00    +0.000 C 
ATOM      6  O   UNL     1       0.726   4.239  20.008  0.00  0.00    +0.000 OA
ATOM      7  N   UNL     1       2.601   5.599  20.402  0.00  0.00    +0.000 N 
ATOM      8  H   UNL     1       3.592   5.519  20.608  0.00  0.00    +0.000 HD
BRANCH   7   9
ATOM      9  C   UNL     1       2.118   6.864  20.017  0.00  0.00    +0.000 A 
ATOM     10  C   UNL     1       2.349   7.408  18.748  0.00  0.00    +0.000 A 
ATOM     11  C   UNL     1       1.887   8.684  18.421  0.00  0.00    +0.000 A 
ATOM     12  C   UNL     1       1.188   9.428  19.366  0.00  0.00    +0.000 A 
ATOM     13 BR   UNL     1       0.593  11.167  18.931  0.00  0.00    +0.000 Br
ATOM     14  C   UNL     1       0.929   8.894  20.628  0.00  0.00    +0.000 A 
ATOM     15  C   UNL     1       1.385   7.608  20.949  0.00  0.00    +0.000 A 
ENDBRANCH   7   9
ENDBRANCH   2   5
BRANCH   3  16
ATOM     16  C   UNL     1       3.344   2.862  18.369  0.00  0.00    +0.000 C 
BRANCH  16  17
ATOM     17  C   UNL     1       4.376   3.943  18.138  0.00  0.00    +0.000 A 
ATOM     18  C   UNL     1       4.296   4.819  17.042  0.00  0.00    +0.000 A 
ATOM     19  C   UNL     1       5.249   5.824  16.861  0.00  0.00    +0.000 A 
ATOM     20  C   UNL     1       6.281   5.973  17.781  0.00  0.00    +0.000 A 
ATOM     21 CL   UNL     1       7.450   7.216  17.562  0.00  0.00    +0.000 Cl
ATOM     22  C   UNL     1       6.371   5.124  18.881  0.00  0.00    +0.000 A 
ATOM     23  C   UNL     1       5.421   4.115  19.059  0.00  0.00    +0.000 A 
ENDBRANCH  16  17
ENDBRANCH   3  16
TORSDOF 4
ENDMDL
MODEL 5
REMARK VINA RESULT:      -7.4      0.536      1.174
REMARK  Name = 
REMARK  4 active torsions:
REMARK  status: ('A' for Active; 'I' for Inactive)
REMARK    1  A    between atoms: C_2  and  C_12
REMARK    2  A    between atoms: N_3  and  C_4
REMARK    3  A    between atoms: C_4  and  C_5
REMARK    4  A    between atoms: N_14  and  C_15
REMARK                            x       y       z     vdW  Elec       q    Type
REMARK                         _______ _______ _______ _____ _____    ______ ____
ROOT
ATOM      1  O   UNL     1       4.135   2.526  20.466  0.00  0.00    +0.000 OA
ATOM      2  C   UNL     1       4.024   3.194  19.448  0.00  0.00    +0.000 C 
ATOM      3  N   UNL     1       4.843   3.017  18.358  0.00  0.00    +0.000 N 
ATOM      4  H   UNL     1       5.494   2.247  18.438  0.00  0.00    +0.000 HD
ENDROOT
BRANCH   2   5
ATOM      5  C   UNL     1       2.944   4.275  19.343  0.00  0.00    +0.000 C 
ATOM      6  O   UNL     1       1.862   3.939  18.885  0.00  0.00    +0.000 OA
ATOM      7  N   UNL     1       3.378   5.539  19.701  0.00  0.00    +0.000 N 
ATOM      8  H   UNL     1       4.363   5.635  19.926  0.00  0.00    +0.000 HD
BRANCH   7   9
ATOM      9  C   UNL     1       2.610   6.717  19.630  0.00  0.00    +0.000 A 
ATOM     10  C   UNL     1       2.539   7.505  18.476  0.00  0.00    +0.000 A 
ATOM     11  C   UNL     1       1.799   8.689  18.461  0.00  0.00    +0.000 A 
ATOM     12  C   UNL     1       1.121   9.092  19.606  0.00  0.00    +0.000 A 
ATOM     13 BR   UNL     1       0.146  10.711  19.593  0.00  0.00    +0.000 Br
ATOM     14  C   UNL     1       1.161   8.309  20.759  0.00  0.00    +0.000 A 
ATOM     15  C   UNL     1       1.897   7.116  20.767  0.00  0.00    +0.000 A 
ENDBRANCH   7   9
ENDBRANCH   2   5
BRANCH   3  16
ATOM     16  C   UNL     1       4.896   3.867  17.188  0.00  0.00    +0.000 C 
BRANCH  16  17
ATOM     17  C   UNL     1       5.754   5.093  17.414  0.00  0.00    +0.000 A 
ATOM     18  C   UNL     1       6.880   5.061  18.256  0.00  0.00    +0.000 A 
ATOM     19  C   UNL     1       7.670   6.199  18.432  0.00  0.00    +0.000 A 
ATOM     20  C   UNL     1       7.353   7.374  17.758  0.00  0.00    +0.000 A 
ATOM     21 CL   UNL     1       8.331   8.773  17.969  0.00  0.00    +0.000 Cl
ATOM     22  C   UNL     1       6.250   7.422  16.910  0.00  0.00    +0.000 A 
ATOM     23  C   UNL     1       5.456   6.285  16.737  0.00  0.00    +0.000 A 
ENDBRANCH  16  17
ENDBRANCH   3  16
TORSDOF 4
ENDMDL
MODEL 6
REMARK VINA RESULT:      -7.3      1.061      1.096
REMARK  Name = 
REMARK  4 active torsions:
REMARK  status: ('A' for Active; 'I' for Inactive)
REMARK    1  A    between atoms: C_2  and  C_12
REMARK    2  A    between atoms: N_3  and  C_4
REMARK    3  A    between atoms: C_4  and  C_5
REMARK    4  A    between atoms: N_14  and  C_15
REMARK                            x       y       z     vdW  Elec       q    Type
REMARK                         _______ _______ _______ _____ _____    ______ ____
ROOT
ATOM      1  O   UNL     1       3.700   1.906  18.795  0.00  0.00    +0.000 OA
ATOM      2  C   UNL     1       3.765   2.849  18.020  0.00  0.00    +0.000 C 
ATOM      3  N   UNL     1       4.678   2.896  16.992  0.00  0.00    +0.000 N 
ATOM      4  H   UNL     1       5.240   2.063  16.886  0.00  0.00    +0.000 HD
ENDROOT
BRANCH   2   5
ATOM      5  C   UNL     1       2.811   4.038  18.163  0.00  0.00    +0.000 C 
ATOM      6  O   UNL     1       1.772   3.999  17.522  0.00  0.00    +0.000 OA
ATOM      7  N   UNL     1       3.309   5.067  18.944  0.00  0.00    +0.000 N 
ATOM      8  H   UNL     1       4.262   4.964  19.279  0.00  0.00    +0.000 HD
BRANCH   7   9
ATOM      9  C   UNL     1       2.667   6.298  19.179  0.00  0.00    +0.000 A 
ATOM     10  C   UNL     1       2.045   6.607  20.394  0.00  0.00    +0.000 A 
ATOM     11  C   UNL     1       1.383   7.823  20.570  0.00  0.00    +0.000 A 
ATOM     12  C   UNL     1       1.340   8.743  19.528  0.00  0.00    +0.000 A 
ATOM     13 BR   UNL     1       0.416  10.375  19.759  0.00  0.00    +0.000 Br
ATOM     14  C   UNL     1       1.972   8.462  18.317  0.00  0.00    +0.000 A 
ATOM     15  C   UNL     1       2.644   7.244  18.147  0.00  0.00    +0.000 A 
ENDBRANCH   7   9
ENDBRANCH   2   5
BRANCH   3  16
ATOM     16  C   UNL     1       4.939   4.037  16.140  0.00  0.00    +0.000 C 
BRANCH  16  17
ATOM     17  C   UNL     1       5.845   5.049  16.806  0.00  0.00    +0.000 A 
ATOM     18  C   UNL     1       6.863   4.658  17.694  0.00  0.00    +0.000 A 
ATOM     19  C   UNL     1       7.701   5.609  18.280  0.00  0.00    +0.000 A 
ATOM     20  C   UNL     1       7.542   6.957  17.972  0.00  0.00    +0.000 A 
ATOM     21 CL   UNL     1       8.580   8.127  18.687  0.00  0.00    +0.000 Cl
ATOM     22  C   UNL     1       6.549   7.363  17.085  0.00  0.00    +0.000 A 
ATOM     23  C   UNL     1       5.706   6.412  16.502  0.00  0.00    +0.000 A 
ENDBRANCH  16  17
ENDBRANCH   3  16
TORSDOF 4
ENDMDL
MODEL 7
REMARK VINA RESULT:      -7.3      2.143      2.700
REMARK  Name = 
REMARK  4 active torsions:
REMARK  status: ('A' for Active; 'I' for Inactive)
REMARK    1  A    between atoms: C_2  and  C_12
REMARK    2  A    between atoms: N_3  and  C_4
REMARK    3  A    between atoms: C_4  and  C_5
REMARK    4  A    between atoms: N_14  and  C_15
REMARK                            x       y       z     vdW  Elec       q    Type
REMARK                         _______ _______ _______ _____ _____    ______ ____
ROOT
ATOM      1  O   UNL     1       3.948   2.643  20.224  0.00  0.00    +0.000 OA
ATOM      2  C   UNL     1       4.222   3.585  19.494  0.00  0.00    +0.000 C 
ATOM      3  N   UNL     1       5.477   3.762  18.959  0.00  0.00    +0.000 N 
ATOM      4  H   UNL     1       6.131   3.017  19.158  0.00  0.00    +0.000 HD
ENDROOT
BRANCH   2   5
ATOM      5  C   UNL     1       3.156   4.625  19.138  0.00  0.00    +0.000 C 
ATOM      6  O   UNL     1       2.282   4.282  18.357  0.00  0.00    +0.000 OA
ATOM      7  N   UNL     1       3.385   5.875  19.686  0.00  0.00    +0.000 N 
ATOM      8  H   UNL     1       4.252   5.994  20.201  0.00  0.00    +0.000 HD
BRANCH   7   9
ATOM      9  C   UNL     1       2.601   7.022  19.461  0.00  0.00    +0.000 A 
ATOM     10  C   UNL     1       2.535   7.661  18.217  0.00  0.00    +0.000 A 
ATOM     11  C   UNL     1       1.778   8.821  18.047  0.00  0.00    +0.000 A 
ATOM     12  C   UNL     1       1.078   9.352  19.125  0.00  0.00    +0.000 A 
ATOM     13 BR   UNL     1       0.079  10.940  18.901  0.00  0.00    +0.000 Br
ATOM     14  C   UNL     1       1.113   8.718  20.366  0.00  0.00    +0.000 A 
ATOM     15  C   UNL     1       1.867   7.547  20.530  0.00  0.00    +0.000 A 
ENDBRANCH   7   9
ENDBRANCH   2   5
BRANCH   3  16
ATOM     16  C   UNL     1       5.934   4.927  18.232  0.00  0.00    +0.000 C 
BRANCH  16  17
ATOM     17  C   UNL     1       6.085   4.651  16.753  0.00  0.00    +0.000 A 
ATOM     18  C   UNL     1       5.060   4.046  16.005  0.00  0.00    +0.000 A 
ATOM     19  C   UNL     1       5.214   3.821  14.635  0.00  0.00    +0.000 A 
ATOM     20  C   UNL     1       6.386   4.213  13.996  0.00  0.00    +0.000 A 
ATOM     21 CL   UNL     1       6.571   3.943  12.308  0.00  0.00    +0.000 Cl
ATOM     22  C   UNL     1       7.408   4.825  14.716  0.00  0.00    +0.000 A 
ATOM     23  C   UNL     1       7.257   5.046  16.088  0.00  0.00    +0.000 A 
ENDBRANCH  16  17
ENDBRANCH   3  16
TORSDOF 4
ENDMDL
MODEL 8
REMARK VINA RESULT:      -7.2      1.769      2.273
REMARK  Name = 
REMARK  4 active torsions:
REMARK  status: ('A' for Active; 'I' for Inactive)
REMARK    1  A    between atoms: C_2  and  C_12
REMARK    2  A    between atoms: N_3  and  C_4
REMARK    3  A    between atoms: C_4  and  C_5
REMARK    4  A    between atoms: N_14  and  C_15
REMARK                            x       y       z     vdW  Elec       q    Type
REMARK                         _______ _______ _______ _____ _____    ______ ____
ROOT
ATOM      1  O   UNL     1       2.946   2.557  20.487  0.00  0.00    +0.000 OA
ATOM      2  C   UNL     1       3.430   3.520  19.907  0.00  0.00    +0.000 C 
ATOM      3  N   UNL     1       4.773   3.614  19.629  0.00  0.00    +0.000 N 
ATOM      4  H   UNL     1       5.315   2.797  19.877  0.00  0.00    +0.000 HD
ENDROOT
BRANCH   2   5
ATOM      5  C   UNL     1       2.538   4.680  19.456  0.00  0.00    +0.000 C 
ATOM      6  O   UNL     1       1.695   4.438  18.606  0.00  0.00    +0.000 OA
ATOM      7  N   UNL     1       2.878   5.900  20.015  0.00  0.00    +0.000 N 
ATOM      8  H   UNL     1       3.707   5.916  20.602  0.00  0.00    +0.000 HD
BRANCH   7   9
ATOM      9  C   UNL     1       2.268   7.133  19.718  0.00  0.00    +0.000 A 
ATOM     10  C   UNL     1       2.374   7.747  18.465  0.00  0.00    +0.000 A 
ATOM     11  C   UNL     1       1.789   8.992  18.226  0.00  0.00    +0.000 A 
ATOM     12  C   UNL     1       1.089   9.632  19.243  0.00  0.00    +0.000 A 
ATOM     13 BR   UNL     1       0.324  11.330  18.925  0.00  0.00    +0.000 Br
ATOM     14  C   UNL     1       0.953   9.026  20.491  0.00  0.00    +0.000 A 
ATOM     15  C   UNL     1       1.534   7.772  20.725  0.00  0.00    +0.000 A 
ENDBRANCH   7   9
ENDBRANCH   2   5
BRANCH   3  16
ATOM     16  C   UNL     1       5.452   4.780  19.106  0.00  0.00    +0.000 C 
BRANCH  16  17
ATOM     17  C   UNL     1       5.776   4.637  17.635  0.00  0.00    +0.000 A 
ATOM     18  C   UNL     1       7.101   4.654  17.165  0.00  0.00    +0.000 A 
ATOM     19  C   UNL     1       7.377   4.498  15.804  0.00  0.00    +0.000 A 
ATOM     20  C   UNL     1       6.334   4.307  14.904  0.00  0.00    +0.000 A 
ATOM     21 CL   UNL     1       6.675   4.107  13.230  0.00  0.00    +0.000 Cl
ATOM     22  C   UNL     1       5.016   4.273  15.351  0.00  0.00    +0.000 A 
ATOM     23  C   UNL     1       4.739   4.435  16.711  0.00  0.00    +0.000 A 
ENDBRANCH  16  17
ENDBRANCH   3  16
TORSDOF 4
ENDMDL
MODEL 9
REMARK VINA RESULT:      -7.0      3.225      5.467
REMARK  Name = 
REMARK  4 active torsions:
REMARK  status: ('A' for Active; 'I' for Inactive)
REMARK    1  A    between atoms: C_2  and  C_12
REMARK    2  A    between atoms: N_3  and  C_4
REMARK    3  A    between atoms: C_4  and  C_5
REMARK    4  A    between atoms: N_14  and  C_15
REMARK                            x       y       z     vdW  Elec       q    Type
REMARK                         _______ _______ _______ _____ _____    ______ ____
ROOT
ATOM      1  O   UNL     1       4.871   1.822  21.345  0.00  0.00    +0.000 OA
ATOM      2  C   UNL     1       4.019   2.313  20.617  0.00  0.00    +0.000 C 
ATOM      3  N   UNL     1       2.779   2.685  21.081  0.00  0.00    +0.000 N 
ATOM      4  H   UNL     1       2.653   2.586  22.079  0.00  0.00    +0.000 HD
ENDROOT
BRANCH   2   5
ATOM      5  C   UNL     1       4.308   2.540  19.131  0.00  0.00    +0.000 C 
ATOM      6  O   UNL     1       3.839   1.733  18.342  0.00  0.00    +0.000 OA
ATOM      7  N   UNL     1       5.162   3.599  18.880  0.00  0.00    +0.000 N 
ATOM      8  H   UNL     1       5.558   4.066  19.690  0.00  0.00    +0.000 HD
BRANCH   7   9
ATOM      9  C   UNL     1       5.643   3.978  17.612  0.00  0.00    +0.000 A 
ATOM     10  C   UNL     1       4.864   3.898  16.452  0.00  0.00    +0.000 A 
ATOM     11  C   UNL     1       5.394   4.244  15.208  0.00  0.00    +0.000 A 
ATOM     12  C   UNL     1       6.713   4.675  15.116  0.00  0.00    +0.000 A 
ATOM     13 BR   UNL     1       7.437   5.112  13.426  0.00  0.00    +0.000 Br
ATOM     14  C   UNL     1       7.499   4.782  16.263  0.00  0.00    +0.000 A 
ATOM     15  C   UNL     1       6.960   4.443  17.512  0.00  0.00    +0.000 A 
ENDBRANCH   7   9
ENDBRANCH   2   5
BRANCH   3  16
ATOM     16  C   UNL     1       1.661   3.110  20.267  0.00  0.00    +0.000 C 
BRANCH  16  17
ATOM     17  C   UNL     1       1.848   4.512  19.732  0.00  0.00    +0.000 A 
ATOM     18  C   UNL     1       2.010   5.615  20.589  0.00  0.00    +0.000 A 
ATOM     19  C   UNL     1       2.203   6.898  20.072  0.00  0.00    +0.000 A 
ATOM     20  C   UNL     1       2.253   7.089  18.695  0.00  0.00    +0.000 A 
ATOM     21 CL   UNL     1       2.499   8.668  18.059  0.00  0.00    +0.000 Cl
ATOM     22  C   UNL     1       2.108   6.009  17.829  0.00  0.00    +0.000 A 
ATOM     23  C   UNL     1       1.909   4.725  18.346  0.00  0.00    +0.000 A 
ENDBRANCH  16  17
ENDBRANCH   3  16
TORSDOF 4
ENDMDL
