MODEL 1
REMARK VINA RESULT:      -7.4      0.000      0.000
REMARK  Name = 
REMARK  6 active torsions:
REMARK  status: ('A' for Active; 'I' for Inactive)
REMARK    1  A    between atoms: C_1  and  C_2
REMARK    2  A    between atoms: C_5  and  S_6
REMARK    3  A    between atoms: S_6  and  N_9
REMARK    4  A    between atoms: C_15  and  O_16
REMARK    5  A    between atoms: O_16  and  C_17
REMARK    6  A    between atoms: C_28  and  C_29
REMARK                            x       y       z     vdW  Elec       q    Type
REMARK                         _______ _______ _______ _____ _____    ______ ____
ROOT
ATOM      1  N   UNL     1      -0.795  10.844  20.811  0.00  0.00    +0.000 NA
ATOM      2  C   UNL     1      -0.930  10.208  19.456  0.00  0.00    +0.000 C 
ATOM      3  C   UNL     1       0.439   9.822  18.848  0.00  0.00    +0.000 C 
ATOM      4  N   UNL     1       1.254   9.022  19.782  0.00  0.00    +0.000 N 
ATOM      5  C   UNL     1       2.266   8.316  19.145  0.00  0.00    +0.000 A 
ATOM      6  C   UNL     1       2.740   7.143  19.689  0.00  0.00    +0.000 A 
ATOM      7  C   UNL     1       3.416   6.315  18.821  0.00  0.00    +0.000 A 
ATOM      8  N   UNL     1       3.671   6.608  17.533  0.00  0.00    +0.000 NA
ATOM      9  C   UNL     1       3.269   7.810  17.139  0.00  0.00    +0.000 A 
ATOM     10  N   UNL     1       2.583   8.676  17.887  0.00  0.00    +0.000 NA
ATOM     11  C   UNL     1       1.466   9.620  21.107  0.00  0.00    +0.000 C 
ATOM     12  C   UNL     1       0.062   9.902  21.723  0.00  0.00    +0.000 C 
ATOM     13  C   UNL     1      -0.616   8.522  21.938  0.00  0.00    +0.000 C 
ENDROOT
BRANCH   1  14
ATOM     14  S   UNL     1      -0.198  12.497  20.715  0.00  0.00    +0.000 S 
ATOM     15  O   UNL     1      -0.440  13.003  19.384  0.00  0.00    +0.000 OA
ATOM     16  O   UNL     1       1.136  12.465  21.250  0.00  0.00    +0.000 OA
BRANCH  14  21
ATOM     17  C   UNL     1      -2.144  15.388  25.642  0.00  0.00    +0.000 C 
ATOM     18  C   UNL     1      -1.925  14.836  24.253  0.00  0.00    +0.000 A 
ATOM     19  C   UNL     1      -2.422  13.575  23.918  0.00  0.00    +0.000 A 
ATOM     20  C   UNL     1      -2.051  12.954  22.706  0.00  0.00    +0.000 A 
ATOM     21  C   UNL     1      -1.171  13.578  21.816  0.00  0.00    +0.000 A 
ATOM     22  C   UNL     1      -0.722  14.869  22.117  0.00  0.00    +0.000 A 
ATOM     23  C   UNL     1      -1.108  15.501  23.333  0.00  0.00    +0.000 A 
ENDBRANCH  14  21
ENDBRANCH   1  14
BRANCH   7  24
ATOM     24  O   UNL     1       3.749   5.054  19.300  0.00  0.00    +0.000 OA
BRANCH  24  25
ATOM     25  C   UNL     1       2.717   4.171  19.520  0.00  0.00    +0.000 A 
ATOM     26  C   UNL     1       2.016   3.721  18.399  0.00  0.00    +0.000 A 
ATOM     27  C   UNL     1       0.927   2.859  18.558  0.00  0.00    +0.000 A 
ATOM     28  C   UNL     1       0.543   2.453  19.836  0.00  0.00    +0.000 A 
ATOM     29  C   UNL     1       1.244   2.915  20.944  0.00  0.00    +0.000 A 
ATOM     30  F   UNL     1       0.879   2.523  22.171  0.00  0.00    +0.000 F 
ATOM     31  C   UNL     1       2.315   3.783  20.801  0.00  0.00    +0.000 A 
ENDBRANCH  24  25
ENDBRANCH   7  24
TORSDOF 4
ENDMDL
MODEL 2
REMARK VINA RESULT:      -7.3      1.324      1.549
REMARK  Name = 
REMARK  6 active torsions:
REMARK  status: ('A' for Active; 'I' for Inactive)
REMARK    1  A    between atoms: C_1  and  C_2
REMARK    2  A    between atoms: C_5  and  S_6
REMARK    3  A    between atoms: S_6  and  N_9
REMARK    4  A    between atoms: C_15  and  O_16
REMARK    5  A    between atoms: O_16  and  C_17
REMARK    6  A    between atoms: C_28  and  C_29
REMARK                            x       y       z     vdW  Elec       q    Type
REMARK                         _______ _______ _______ _____ _____    ______ ____
ROOT
ATOM      1  N   UNL     1      -1.157  11.636  21.250  0.00  0.00    +0.000 NA
ATOM      2  C   UNL     1      -1.453  10.862  19.997  0.00  0.00    +0.000 C 
ATOM      3  C   UNL     1      -0.167  10.381  19.284  0.00  0.00    +0.000 C 
ATOM      4  N   UNL     1       0.739   9.666  20.202  0.00  0.00    +0.000 N 
ATOM      5  C   UNL     1       1.664   8.871  19.536  0.00  0.00    +0.000 A 
ATOM      6  C   UNL     1       2.182   7.751  20.148  0.00  0.00    +0.000 A 
ATOM      7  C   UNL     1       2.745   6.820  19.305  0.00  0.00    +0.000 A 
ATOM      8  N   UNL     1       2.854   6.967  17.972  0.00  0.00    +0.000 NA
ATOM      9  C   UNL     1       2.424   8.129  17.497  0.00  0.00    +0.000 A 
ATOM     10  N   UNL     1       1.838   9.087  18.219  0.00  0.00    +0.000 NA
ATOM     11  C   UNL     1       1.109  10.397  21.422  0.00  0.00    +0.000 C 
ATOM     12  C   UNL     1      -0.212  10.776  22.157  0.00  0.00    +0.000 C 
ATOM     13  C   UNL     1      -0.877   9.444  22.597  0.00  0.00    +0.000 C 
ENDROOT
BRANCH   1  14
ATOM     14  S   UNL     1      -0.555  13.254  20.909  0.00  0.00    +0.000 S 
ATOM     15  O   UNL     1      -1.176  13.735  19.696  0.00  0.00    +0.000 OA
ATOM     16  O   UNL     1       0.877  13.171  21.010  0.00  0.00    +0.000 OA
BRANCH  14  21
ATOM     17  C   UNL     1      -1.140  15.995  26.253  0.00  0.00    +0.000 C 
ATOM     18  C   UNL     1      -1.229  15.553  24.812  0.00  0.00    +0.000 A 
ATOM     19  C   UNL     1      -2.052  14.481  24.461  0.00  0.00    +0.000 A 
ATOM     20  C   UNL     1      -1.990  13.919  23.168  0.00  0.00    +0.000 A 
ATOM     21  C   UNL     1      -1.099  14.412  22.210  0.00  0.00    +0.000 A 
ATOM     22  C   UNL     1      -0.319  15.526  22.535  0.00  0.00    +0.000 A 
ATOM     23  C   UNL     1      -0.392  16.103  23.835  0.00  0.00    +0.000 A 
ENDBRANCH  14  21
ENDBRANCH   1  14
BRANCH   7  24
ATOM     24  O   UNL     1       3.115   5.610  19.878  0.00  0.00    +0.000 OA
BRANCH  24  25
ATOM     25  C   UNL     1       2.405   4.492  19.505  0.00  0.00    +0.000 A 
ATOM     26  C   UNL     1       1.287   4.164  20.276  0.00  0.00    +0.000 A 
ATOM     27  C   UNL     1       0.550   3.014  19.979  0.00  0.00    +0.000 A 
ATOM     28  C   UNL     1       0.935   2.197  18.915  0.00  0.00    +0.000 A 
ATOM     29  C   UNL     1       2.054   2.531  18.163  0.00  0.00    +0.000 A 
ATOM     30  F   UNL     1       2.422   1.750  17.139  0.00  0.00    +0.000 F 
ATOM     31  C   UNL     1       2.803   3.659  18.457  0.00  0.00    +0.000 A 
ENDBRANCH  24  25
ENDBRANCH   7  24
TORSDOF 4
ENDMDL
MODEL 3
REMARK VINA RESULT:      -7.2      0.854      1.060
REMARK  Name = 
REMARK  6 active torsions:
REMARK  status: ('A' for Active; 'I' for Inactive)
REMARK    1  A    between atoms: C_1  and  C_2
REMARK    2  A    between atoms: C_5  and  S_6
REMARK    3  A    between atoms: S_6  and  N_9
REMARK    4  A    between atoms: C_15  and  O_16
REMARK    5  A    between atoms: O_16  and  C_17
REMARK    6  A    between atoms: C_28  and  C_29
REMARK                            x       y       z     vdW  Elec       q    Type
REMARK                         _______ _______ _______ _____ _____    ______ ____
ROOT
ATOM      1  N   UNL     1      -0.558  10.529  20.320  0.00  0.00    +0.000 NA
ATOM      2  C   UNL     1      -0.544   9.989  18.918  0.00  0.00    +0.000 C 
ATOM      3  C   UNL     1       0.875   9.574  18.461  0.00  0.00    +0.000 C 
ATOM      4  N   UNL     1       1.528   8.676  19.431  0.00  0.00    +0.000 N 
ATOM      5  C   UNL     1       2.583   7.961  18.879  0.00  0.00    +0.000 A 
ATOM      6  C   UNL     1       2.933   6.733  19.394  0.00  0.00    +0.000 A 
ATOM      7  C   UNL     1       3.680   5.930  18.562  0.00  0.00    +0.000 A 
ATOM      8  N   UNL     1       4.111   6.292  17.340  0.00  0.00    +0.000 NA
ATOM      9  C   UNL     1       3.814   7.535  16.984  0.00  0.00    +0.000 A 
ATOM     10  N   UNL     1       3.074   8.385  17.699  0.00  0.00    +0.000 NA
ATOM     11  C   UNL     1       1.593   9.176  20.812  0.00  0.00    +0.000 C 
ATOM     12  C   UNL     1       0.134   9.488  21.264  0.00  0.00    +0.000 C 
ATOM     13  C   UNL     1      -0.624   8.133  21.295  0.00  0.00    +0.000 C 
ENDROOT
BRANCH   1  14
ATOM     14  S   UNL     1       0.115  12.152  20.416  0.00  0.00    +0.000 S 
ATOM     15  O   UNL     1       0.169  12.714  19.086  0.00  0.00    +0.000 OA
ATOM     16  O   UNL     1       1.311  12.036  21.206  0.00  0.00    +0.000 OA
BRANCH  14  21
ATOM     17  C   UNL     1      -4.340  14.048  24.018  0.00  0.00    +0.000 C 
ATOM     18  C   UNL     1      -3.167  13.921  23.076  0.00  0.00    +0.000 A 
ATOM     19  C   UNL     1      -3.386  13.708  21.714  0.00  0.00    +0.000 A 
ATOM     20  C   UNL     1      -2.316  13.377  20.855  0.00  0.00    +0.000 A 
ATOM     21  C   UNL     1      -1.014  13.244  21.345  0.00  0.00    +0.000 A 
ATOM     22  C   UNL     1      -0.778  13.519  22.696  0.00  0.00    +0.000 A 
ATOM     23  C   UNL     1      -1.855  13.868  23.560  0.00  0.00    +0.000 A 
ENDBRANCH  14  21
ENDBRANCH   1  14
BRANCH   7  24
ATOM     24  O   UNL     1       3.895   4.626  18.990  0.00  0.00    +0.000 OA
BRANCH  24  25
ATOM     25  C   UNL     1       2.789   3.890  19.351  0.00  0.00    +0.000 A 
ATOM     26  C   UNL     1       1.924   3.499  18.326  0.00  0.00    +0.000 A 
ATOM     27  C   UNL     1       0.759   2.791  18.630  0.00  0.00    +0.000 A 
ATOM     28  C   UNL     1       0.463   2.478  19.957  0.00  0.00    +0.000 A 
ATOM     29  C   UNL     1       1.328   2.880  20.968  0.00  0.00    +0.000 A 
ATOM     30  F   UNL     1       1.047   2.577  22.242  0.00  0.00    +0.000 F 
ATOM     31  C   UNL     1       2.478   3.598  20.681  0.00  0.00    +0.000 A 
ENDBRANCH  24  25
ENDBRANCH   7  24
TORSDOF 4
ENDMDL
MODEL 4
REMARK VINA RESULT:      -7.2      2.530      3.864
REMARK  Name = 
REMARK  6 active torsions:
REMARK  status: ('A' for Active; 'I' for Inactive)
REMARK    1  A    between atoms: C_1  and  C_2
REMARK    2  A    between atoms: C_5  and  S_6
REMARK    3  A    between atoms: S_6  and  N_9
REMARK    4  A    between atoms: C_15  and  O_16
REMARK    5  A    between atoms: O_16  and  C_17
REMARK    6  A    between atoms: C_28  and  C_29
REMARK                            x       y       z     vdW  Elec       q    Type
REMARK                         _______ _______ _______ _____ _____    ______ ____
ROOT
ATOM      1  N   UNL     1       0.450  11.904  19.996  0.00  0.00    +0.000 NA
ATOM      2  C   UNL     1       1.267  11.195  21.039  0.00  0.00    +0.000 C 
ATOM      3  C   UNL     1       1.131   9.657  20.948  0.00  0.00    +0.000 C 
ATOM      4  N   UNL     1       1.382   9.159  19.583  0.00  0.00    +0.000 N 
ATOM      5  C   UNL     1       1.687   7.805  19.550  0.00  0.00    +0.000 A 
ATOM      6  C   UNL     1       2.469   7.294  18.539  0.00  0.00    +0.000 A 
ATOM      7  C   UNL     1       3.054   6.075  18.796  0.00  0.00    +0.000 A 
ATOM      8  N   UNL     1       2.864   5.362  19.922  0.00  0.00    +0.000 NA
ATOM      9  C   UNL     1       2.006   5.891  20.784  0.00  0.00    +0.000 A 
ATOM     10  N   UNL     1       1.407   7.076  20.647  0.00  0.00    +0.000 NA
ATOM     11  C   UNL     1       0.572   9.778  18.525  0.00  0.00    +0.000 C 
ATOM     12  C   UNL     1       0.815  11.317  18.590  0.00  0.00    +0.000 C 
ATOM     13  C   UNL     1       2.307  11.549  18.229  0.00  0.00    +0.000 C 
ENDROOT
BRANCH   1  14
ATOM     14  S   UNL     1      -1.270  11.880  20.366  0.00  0.00    +0.000 S 
ATOM     15  O   UNL     1      -1.569  10.679  21.112  0.00  0.00    +0.000 OA
ATOM     16  O   UNL     1      -1.944  12.152  19.125  0.00  0.00    +0.000 OA
BRANCH  14  21
ATOM     17  C   UNL     1      -2.962  14.935  25.287  0.00  0.00    +0.000 C 
ATOM     18  C   UNL     1      -2.511  14.495  23.915  0.00  0.00    +0.000 A 
ATOM     19  C   UNL     1      -3.452  14.070  22.975  0.00  0.00    +0.000 A 
ATOM     20  C   UNL     1      -3.042  13.459  21.770  0.00  0.00    +0.000 A 
ATOM     21  C   UNL     1      -1.687  13.253  21.492  0.00  0.00    +0.000 A 
ATOM     22  C   UNL     1      -0.739  13.735  22.401  0.00  0.00    +0.000 A 
ATOM     23  C   UNL     1      -1.152  14.366  23.608  0.00  0.00    +0.000 A 
ENDBRANCH  14  21
ENDBRANCH   1  14
BRANCH   7  24
ATOM     24  O   UNL     1       3.983   5.625  17.866  0.00  0.00    +0.000 OA
BRANCH  24  25
ATOM     25  C   UNL     1       5.286   6.040  18.024  0.00  0.00    +0.000 A 
ATOM     26  C   UNL     1       5.733   7.061  17.182  0.00  0.00    +0.000 A 
ATOM     27  C   UNL     1       7.059   7.496  17.259  0.00  0.00    +0.000 A 
ATOM     28  C   UNL     1       7.931   6.907  18.175  0.00  0.00    +0.000 A 
ATOM     29  C   UNL     1       7.475   5.887  19.001  0.00  0.00    +0.000 A 
ATOM     30  F   UNL     1       8.310   5.324  19.883  0.00  0.00    +0.000 F 
ATOM     31  C   UNL     1       6.167   5.435  18.923  0.00  0.00    +0.000 A 
ENDBRANCH  24  25
ENDBRANCH   7  24
TORSDOF 4
ENDMDL
MODEL 5
REMARK VINA RESULT:      -7.2      2.537      3.413
REMARK  Name = 
REMARK  6 active torsions:
REMARK  status: ('A' for Active; 'I' for Inactive)
REMARK    1  A    between atoms: C_1  and  C_2
REMARK    2  A    between atoms: C_5  and  S_6
REMARK    3  A    between atoms: S_6  and  N_9
REMARK    4  A    between atoms: C_15  and  O_16
REMARK    5  A    between atoms: O_16  and  C_17
REMARK    6  A    between atoms: C_28  and  C_29
REMARK                            x       y       z     vdW  Elec       q    Type
REMARK                         _______ _______ _______ _____ _____    ______ ____
ROOT
ATOM      1  N   UNL     1      -1.156  11.946  20.747  0.00  0.00    +0.000 NA
ATOM      2  C   UNL     1      -1.518  10.986  19.650  0.00  0.00    +0.000 C 
ATOM      3  C   UNL     1      -0.271  10.366  18.976  0.00  0.00    +0.000 C 
ATOM      4  N   UNL     1       0.662   9.789  19.961  0.00  0.00    +0.000 N 
ATOM      5  C   UNL     1       1.545   8.877  19.399  0.00  0.00    +0.000 A 
ATOM      6  C   UNL     1       2.072   7.860  20.164  0.00  0.00    +0.000 A 
ATOM      7  C   UNL     1       2.583   6.791  19.464  0.00  0.00    +0.000 A 
ATOM      8  N   UNL     1       2.638   6.717  18.121  0.00  0.00    +0.000 NA
ATOM      9  C   UNL     1       2.207   7.796  17.480  0.00  0.00    +0.000 A 
ATOM     10  N   UNL     1       1.667   8.871  18.058  0.00  0.00    +0.000 NA
ATOM     11  C   UNL     1       1.095  10.701  21.030  0.00  0.00    +0.000 C 
ATOM     12  C   UNL     1      -0.188  11.225  21.745  0.00  0.00    +0.000 C 
ATOM     13  C   UNL     1      -0.854   9.997  22.422  0.00  0.00    +0.000 C 
ENDROOT
BRANCH   1  14
ATOM     14  S   UNL     1      -0.544  13.473  20.122  0.00  0.00    +0.000 S 
ATOM     15  O   UNL     1      -0.917  14.532  21.031  0.00  0.00    +0.000 OA
ATOM     16  O   UNL     1      -0.946  13.523  18.742  0.00  0.00    +0.000 OA
BRANCH  14  21
ATOM     17  C   UNL     1       5.191  15.198  19.377  0.00  0.00    +0.000 C 
ATOM     18  C   UNL     1       3.905  14.471  19.690  0.00  0.00    +0.000 A 
ATOM     19  C   UNL     1       3.221  13.797  18.676  0.00  0.00    +0.000 A 
ATOM     20  C   UNL     1       1.920  13.294  18.897  0.00  0.00    +0.000 A 
ATOM     21  C   UNL     1       1.281  13.466  20.128  0.00  0.00    +0.000 A 
ATOM     22  C   UNL     1       1.986  14.083  21.167  0.00  0.00    +0.000 A 
ATOM     23  C   UNL     1       3.304  14.576  20.949  0.00  0.00    +0.000 A 
ENDBRANCH  14  21
ENDBRANCH   1  14
BRANCH   7  24
ATOM     24  O   UNL     1       2.959   5.683  20.212  0.00  0.00    +0.000 OA
BRANCH  24  25
ATOM     25  C   UNL     1       2.525   4.451  19.777  0.00  0.00    +0.000 A 
ATOM     26  C   UNL     1       1.181   4.139  19.993  0.00  0.00    +0.000 A 
ATOM     27  C   UNL     1       0.688   2.886  19.618  0.00  0.00    +0.000 A 
ATOM     28  C   UNL     1       1.541   1.952  19.029  0.00  0.00    +0.000 A 
ATOM     29  C   UNL     1       2.878   2.273  18.827  0.00  0.00    +0.000 A 
ATOM     30  F   UNL     1       3.697   1.379  18.259  0.00  0.00    +0.000 F 
ATOM     31  C   UNL     1       3.383   3.505  19.211  0.00  0.00    +0.000 A 
ENDBRANCH  24  25
ENDBRANCH   7  24
TORSDOF 4
ENDMDL
MODEL 6
REMARK VINA RESULT:      -7.2      1.257      1.505
REMARK  Name = 
REMARK  6 active torsions:
REMARK  status: ('A' for Active; 'I' for Inactive)
REMARK    1  A    between atoms: C_1  and  C_2
REMARK    2  A    between atoms: C_5  and  S_6
REMARK    3  A    between atoms: S_6  and  N_9
REMARK    4  A    between atoms: C_15  and  O_16
REMARK    5  A    between atoms: O_16  and  C_17
REMARK    6  A    between atoms: C_28  and  C_29
REMARK                            x       y       z     vdW  Elec       q    Type
REMARK                         _______ _______ _______ _____ _____    ______ ____
ROOT
ATOM      1  N   UNL     1      -1.151  11.635  21.421  0.00  0.00    +0.000 NA
ATOM      2  C   UNL     1      -1.504  10.827  20.204  0.00  0.00    +0.000 C 
ATOM      3  C   UNL     1      -0.251  10.322  19.450  0.00  0.00    +0.000 C 
ATOM      4  N   UNL     1       0.693   9.630  20.347  0.00  0.00    +0.000 N 
ATOM      5  C   UNL     1       1.586   8.813  19.664  0.00  0.00    +0.000 A 
ATOM      6  C   UNL     1       2.129   7.710  20.284  0.00  0.00    +0.000 A 
ATOM      7  C   UNL     1       2.651   6.753  19.444  0.00  0.00    +0.000 A 
ATOM      8  N   UNL     1       2.703   6.862  18.103  0.00  0.00    +0.000 NA
ATOM      9  C   UNL     1       2.254   8.011  17.615  0.00  0.00    +0.000 A 
ATOM     10  N   UNL     1       1.703   8.991  18.334  0.00  0.00    +0.000 NA
ATOM     11  C   UNL     1       1.118  10.394  21.528  0.00  0.00    +0.000 C 
ATOM     12  C   UNL     1      -0.169  10.798  22.309  0.00  0.00    +0.000 C 
ATOM     13  C   UNL     1      -0.817   9.482  22.816  0.00  0.00    +0.000 C 
ENDROOT
BRANCH   1  14
ATOM     14  S   UNL     1      -0.561  13.241  21.007  0.00  0.00    +0.000 S 
ATOM     15  O   UNL     1      -1.199  13.670  19.784  0.00  0.00    +0.000 OA
ATOM     16  O   UNL     1       0.872  13.169  21.094  0.00  0.00    +0.000 OA
BRANCH  14  21
ATOM     17  C   UNL     1      -1.186  16.122  26.273  0.00  0.00    +0.000 C 
ATOM     18  C   UNL     1      -1.252  15.652  24.839  0.00  0.00    +0.000 A 
ATOM     19  C   UNL     1      -2.106  14.604  24.489  0.00  0.00    +0.000 A 
ATOM     20  C   UNL     1      -2.031  14.011  23.210  0.00  0.00    +0.000 A 
ATOM     21  C   UNL     1      -1.095  14.448  22.267  0.00  0.00    +0.000 A 
ATOM     22  C   UNL     1      -0.282  15.539  22.591  0.00  0.00    +0.000 A 
ATOM     23  C   UNL     1      -0.369  16.147  23.875  0.00  0.00    +0.000 A 
ENDBRANCH  14  21
ENDBRANCH   1  14
BRANCH   7  24
ATOM     24  O   UNL     1       3.044   5.558  20.034  0.00  0.00    +0.000 OA
BRANCH  24  25
ATOM     25  C   UNL     1       2.791   4.398  19.339  0.00  0.00    +0.000 A 
ATOM     26  C   UNL     1       3.847   3.856  18.602  0.00  0.00    +0.000 A 
ATOM     27  C   UNL     1       3.643   2.706  17.835  0.00  0.00    +0.000 A 
ATOM     28  C   UNL     1       2.384   2.103  17.808  0.00  0.00    +0.000 A 
ATOM     29  C   UNL     1       1.341   2.658  18.539  0.00  0.00    +0.000 A 
ATOM     30  F   UNL     1       0.134   2.078  18.518  0.00  0.00    +0.000 F 
ATOM     31  C   UNL     1       1.526   3.808  19.290  0.00  0.00    +0.000 A 
ENDBRANCH  24  25
ENDBRANCH   7  24
TORSDOF 4
ENDMDL
MODEL 7
REMARK VINA RESULT:      -7.2      2.788      3.834
REMARK  Name = 
REMARK  6 active torsions:
REMARK  status: ('A' for Active; 'I' for Inactive)
REMARK    1  A    between atoms: C_1  and  C_2
REMARK    2  A    between atoms: C_5  and  S_6
REMARK    3  A    between atoms: S_6  and  N_9
REMARK    4  A    between atoms: C_15  and  O_16
REMARK    5  A    between atoms: O_16  and  C_17
REMARK    6  A    between atoms: C_28  and  C_29
REMARK                            x       y       z     vdW  Elec       q    Type
REMARK                         _______ _______ _______ _____ _____    ______ ____
ROOT
ATOM      1  N   UNL     1       0.052  12.667  20.352  0.00  0.00    +0.000 NA
ATOM      2  C   UNL     1       1.101  11.935  21.141  0.00  0.00    +0.000 C 
ATOM      3  C   UNL     1       1.108  10.417  20.844  0.00  0.00    +0.000 C 
ATOM      4  N   UNL     1       1.175  10.136  19.398  0.00  0.00    +0.000 N 
ATOM      5  C   UNL     1       1.605   8.846  19.118  0.00  0.00    +0.000 A 
ATOM      6  C   UNL     1       2.253   8.573  17.934  0.00  0.00    +0.000 A 
ATOM      7  C   UNL     1       2.994   7.413  17.915  0.00  0.00    +0.000 A 
ATOM      8  N   UNL     1       3.070   6.541  18.938  0.00  0.00    +0.000 NA
ATOM      9  C   UNL     1       2.320   6.842  19.990  0.00  0.00    +0.000 A 
ATOM     10  N   UNL     1       1.590   7.951  20.124  0.00  0.00    +0.000 NA
ATOM     11  C   UNL     1       0.138  10.783  18.580  0.00  0.00    +0.000 C 
ATOM     12  C   UNL     1       0.232  12.318  18.836  0.00  0.00    +0.000 C 
ATOM     13  C   UNL     1       1.610  12.778  18.289  0.00  0.00    +0.000 C 
ENDROOT
BRANCH   1  14
ATOM     14  S   UNL     1      -1.570  12.381  20.973  0.00  0.00    +0.000 S 
ATOM     15  O   UNL     1      -1.559  11.173  21.765  0.00  0.00    +0.000 OA
ATOM     16  O   UNL     1      -2.451  12.503  19.843  0.00  0.00    +0.000 OA
BRANCH  14  21
ATOM     17  C   UNL     1      -1.771  15.871  25.892  0.00  0.00    +0.000 C 
ATOM     18  C   UNL     1      -1.973  15.218  24.546  0.00  0.00    +0.000 A 
ATOM     19  C   UNL     1      -2.784  14.086  24.434  0.00  0.00    +0.000 A 
ATOM     20  C   UNL     1      -2.819  13.340  23.236  0.00  0.00    +0.000 A 
ATOM     21  C   UNL     1      -2.036  13.706  22.137  0.00  0.00    +0.000 A 
ATOM     22  C   UNL     1      -1.271  14.875  22.221  0.00  0.00    +0.000 A 
ATOM     23  C   UNL     1      -1.249  15.636  23.424  0.00  0.00    +0.000 A 
ENDBRANCH  14  21
ENDBRANCH   1  14
BRANCH   7  24
ATOM     24  O   UNL     1       3.793   7.206  16.798  0.00  0.00    +0.000 OA
BRANCH  24  25
ATOM     25  C   UNL     1       4.985   6.545  16.988  0.00  0.00    +0.000 A 
ATOM     26  C   UNL     1       5.038   5.206  16.592  0.00  0.00    +0.000 A 
ATOM     27  C   UNL     1       6.204   4.464  16.802  0.00  0.00    +0.000 A 
ATOM     28  C   UNL     1       7.309   5.063  17.408  0.00  0.00    +0.000 A 
ATOM     29  C   UNL     1       7.239   6.393  17.805  0.00  0.00    +0.000 A 
ATOM     30  F   UNL     1       8.300   6.970  18.383  0.00  0.00    +0.000 F 
ATOM     31  C   UNL     1       6.083   7.135  17.618  0.00  0.00    +0.000 A 
ENDBRANCH  24  25
ENDBRANCH   7  24
TORSDOF 4
ENDMDL
MODEL 8
REMARK VINA RESULT:      -7.2      1.546      1.679
REMARK  Name = 
REMARK  6 active torsions:
REMARK  status: ('A' for Active; 'I' for Inactive)
REMARK    1  A    between atoms: C_1  and  C_2
REMARK    2  A    between atoms: C_5  and  S_6
REMARK    3  A    between atoms: S_6  and  N_9
REMARK    4  A    between atoms: C_15  and  O_16
REMARK    5  A    between atoms: O_16  and  C_17
REMARK    6  A    between atoms: C_28  and  C_29
REMARK                            x       y       z     vdW  Elec       q    Type
REMARK                         _______ _______ _______ _____ _____    ______ ____
ROOT
ATOM      1  N   UNL     1      -1.043  11.489  21.269  0.00  0.00    +0.000 NA
ATOM      2  C   UNL     1      -1.356  10.672  20.047  0.00  0.00    +0.000 C 
ATOM      3  C   UNL     1      -0.080  10.152  19.345  0.00  0.00    +0.000 C 
ATOM      4  N   UNL     1       0.826   9.462  20.282  0.00  0.00    +0.000 N 
ATOM      5  C   UNL     1       1.738   8.634  19.640  0.00  0.00    +0.000 A 
ATOM      6  C   UNL     1       2.250   7.533  20.289  0.00  0.00    +0.000 A 
ATOM      7  C   UNL     1       2.797   6.566  19.478  0.00  0.00    +0.000 A 
ATOM      8  N   UNL     1       2.899   6.662  18.139  0.00  0.00    +0.000 NA
ATOM      9  C   UNL     1       2.477   7.810  17.625  0.00  0.00    +0.000 A 
ATOM     10  N   UNL     1       1.905   8.800  18.314  0.00  0.00    +0.000 NA
ATOM     11  C   UNL     1       1.211  10.235  21.472  0.00  0.00    +0.000 C 
ATOM     12  C   UNL     1      -0.101  10.654  22.201  0.00  0.00    +0.000 C 
ATOM     13  C   UNL     1      -0.776   9.346  22.694  0.00  0.00    +0.000 C 
ENDROOT
BRANCH   1  14
ATOM     14  S   UNL     1      -0.428  13.087  20.863  0.00  0.00    +0.000 S 
ATOM     15  O   UNL     1      -0.539  13.280  19.436  0.00  0.00    +0.000 OA
ATOM     16  O   UNL     1       0.849  13.195  21.515  0.00  0.00    +0.000 OA
BRANCH  14  21
ATOM     17  C   UNL     1      -4.636  15.795  24.237  0.00  0.00    +0.000 C 
ATOM     18  C   UNL     1      -3.528  15.446  23.273  0.00  0.00    +0.000 A 
ATOM     19  C   UNL     1      -3.838  14.940  22.008  0.00  0.00    +0.000 A 
ATOM     20  C   UNL     1      -2.827  14.412  21.176  0.00  0.00    +0.000 A 
ATOM     21  C   UNL     1      -1.494  14.373  21.598  0.00  0.00    +0.000 A 
ATOM     22  C   UNL     1      -1.169  14.937  22.837  0.00  0.00    +0.000 A 
ATOM     23  C   UNL     1      -2.187  15.483  23.669  0.00  0.00    +0.000 A 
ENDBRANCH  14  21
ENDBRANCH   1  14
BRANCH   7  24
ATOM     24  O   UNL     1       3.160   5.374  20.093  0.00  0.00    +0.000 OA
BRANCH  24  25
ATOM     25  C   UNL     1       2.631   4.212  19.579  0.00  0.00    +0.000 A 
ATOM     26  C   UNL     1       1.265   3.996  19.773  0.00  0.00    +0.000 A 
ATOM     27  C   UNL     1       0.675   2.813  19.317  0.00  0.00    +0.000 A 
ATOM     28  C   UNL     1       1.454   1.853  18.671  0.00  0.00    +0.000 A 
ATOM     29  C   UNL     1       2.814   2.077  18.493  0.00  0.00    +0.000 A 
ATOM     30  F   UNL     1       3.562   1.158  17.869  0.00  0.00    +0.000 F 
ATOM     31  C   UNL     1       3.414   3.238  18.955  0.00  0.00    +0.000 A 
ENDBRANCH  24  25
ENDBRANCH   7  24
TORSDOF 4
ENDMDL
MODEL 9
REMARK VINA RESULT:      -7.1      1.902      2.924
REMARK  Name = 
REMARK  6 active torsions:
REMARK  status: ('A' for Active; 'I' for Inactive)
REMARK    1  A    between atoms: C_1  and  C_2
REMARK    2  A    between atoms: C_5  and  S_6
REMARK    3  A    between atoms: S_6  and  N_9
REMARK    4  A    between atoms: C_15  and  O_16
REMARK    5  A    between atoms: O_16  and  C_17
REMARK    6  A    between atoms: C_28  and  C_29
REMARK                            x       y       z     vdW  Elec       q    Type
REMARK                         _______ _______ _______ _____ _____    ______ ____
ROOT
ATOM      1  N   UNL     1       0.807  13.562  19.717  0.00  0.00    +0.000 NA
ATOM      2  C   UNL     1       1.556  12.808  20.779  0.00  0.00    +0.000 C 
ATOM      3  C   UNL     1       1.154  11.316  20.837  0.00  0.00    +0.000 C 
ATOM      4  N   UNL     1       1.229  10.671  19.513  0.00  0.00    +0.000 N 
ATOM      5  C   UNL     1       1.294   9.286  19.590  0.00  0.00    +0.000 A 
ATOM      6  C   UNL     1       1.912   8.565  18.592  0.00  0.00    +0.000 A 
ATOM      7  C   UNL     1       2.295   7.287  18.932  0.00  0.00    +0.000 A 
ATOM      8  N   UNL     1       2.059   6.713  20.126  0.00  0.00    +0.000 NA
ATOM      9  C   UNL     1       1.361   7.453  20.977  0.00  0.00    +0.000 A 
ATOM     10  N   UNL     1       0.965   8.710  20.762  0.00  0.00    +0.000 NA
ATOM     11  C   UNL     1       0.469  11.334  18.443  0.00  0.00    +0.000 C 
ATOM     12  C   UNL     1       0.975  12.806  18.355  0.00  0.00    +0.000 C 
ATOM     13  C   UNL     1       2.458  12.742  17.901  0.00  0.00    +0.000 C 
ENDROOT
BRANCH   1  14
ATOM     14  S   UNL     1      -0.865  13.870  20.172  0.00  0.00    +0.000 S 
ATOM     15  O   UNL     1      -1.678  12.757  19.740  0.00  0.00    +0.000 OA
ATOM     16  O   UNL     1      -1.157  15.203  19.718  0.00  0.00    +0.000 OA
BRANCH  14  21
ATOM     17  C   UNL     1      -2.719  15.288  25.737  0.00  0.00    +0.000 C 
ATOM     18  C   UNL     1      -2.039  14.712  24.517  0.00  0.00    +0.000 A 
ATOM     19  C   UNL     1      -0.989  15.406  23.912  0.00  0.00    +0.000 A 
ATOM     20  C   UNL     1      -0.483  14.997  22.660  0.00  0.00    +0.000 A 
ATOM     21  C   UNL     1      -1.024  13.896  21.989  0.00  0.00    +0.000 A 
ATOM     22  C   UNL     1      -2.032  13.159  22.620  0.00  0.00    +0.000 A 
ATOM     23  C   UNL     1      -2.532  13.562  23.891  0.00  0.00    +0.000 A 
ENDBRANCH  14  21
ENDBRANCH   1  14
BRANCH   7  24
ATOM     24  O   UNL     1       3.072   6.606  18.002  0.00  0.00    +0.000 OA
BRANCH  24  25
ATOM     25  C   UNL     1       2.943   5.237  17.956  0.00  0.00    +0.000 A 
ATOM     26  C   UNL     1       4.070   4.505  17.572  0.00  0.00    +0.000 A 
ATOM     27  C   UNL     1       3.992   3.115  17.459  0.00  0.00    +0.000 A 
ATOM     28  C   UNL     1       2.789   2.462  17.729  0.00  0.00    +0.000 A 
ATOM     29  C   UNL     1       1.674   3.202  18.102  0.00  0.00    +0.000 A 
ATOM     30  F   UNL     1       0.519   2.576  18.365  0.00  0.00    +0.000 F 
ATOM     31  C   UNL     1       1.733   4.583  18.201  0.00  0.00    +0.000 A 
ENDBRANCH  24  25
ENDBRANCH   7  24
TORSDOF 4
ENDMDL
