MODEL 1
REMARK VINA RESULT:      -7.4      0.000      0.000
REMARK  Name = 
REMARK  8 active torsions:
REMARK  status: ('A' for Active; 'I' for Inactive)
REMARK    1  A    between atoms: C_1  and  O_2
REMARK    2  A    between atoms: O_2  and  C_3
REMARK    3  A    between atoms: C_5  and  C_6
REMARK    4  A    between atoms: C_16  and  N_17
REMARK    5  A    between atoms: N_17  and  C_18
REMARK    6  A    between atoms: C_32  and  O_33
REMARK    7  A    between atoms: O_33  and  C_34
REMARK    8  A    between atoms: C_35  and  O_36
REMARK                            x       y       z     vdW  Elec       q    Type
REMARK                         _______ _______ _______ _____ _____    ______ ____
ROOT
ATOM      1  C   UNL     1      -0.226  12.314  19.407  0.00  0.00    +0.000 C 
ATOM      2  C   UNL     1      -1.726  12.204  19.210  0.00  0.00    +0.000 A 
ATOM      3  N   UNL     1      -2.350  11.290  18.400  0.00  0.00    +0.000 N 
ATOM      4  C   UNL     1      -3.719  11.401  18.534  0.00  0.00    +0.000 A 
ATOM      5  C   UNL     1      -4.745  10.631  17.973  0.00  0.00    +0.000 A 
ATOM      6  C   UNL     1      -6.063  10.972  18.295  0.00  0.00    +0.000 A 
ATOM      7  C   UNL     1      -6.343  12.052  19.128  0.00  0.00    +0.000 A 
ATOM      8  C   UNL     1      -5.308  12.809  19.686  0.00  0.00    +0.000 A 
ATOM      9  C   UNL     1      -3.972  12.469  19.398  0.00  0.00    +0.000 A 
ATOM     10  C   UNL     1      -2.711  12.955  19.831  0.00  0.00    +0.000 A 
ATOM     11  C   UNL     1      -2.385  14.022  20.847  0.00  0.00    +0.000 C 
ATOM     12  C   UNL     1      -0.905  14.432  20.596  0.00  0.00    +0.000 C 
ATOM     13  C   UNL     1      -0.239  15.277  21.657  0.00  0.00    +0.000 C 
ATOM     14  O   UNL     1       1.100  14.764  21.753  0.00  0.00    +0.000 OA
ATOM     15  C   UNL     1       1.194  13.598  21.042  0.00  0.00    +0.000 C 
ATOM     16  O   UNL     1       2.238  12.980  20.926  0.00  0.00    +0.000 OA
ATOM     17  N   UNL     1      -0.017  13.292  20.481  0.00  0.00    +0.000 N 
ATOM     18  H   UNL     1      -1.885  10.586  17.841  0.00  0.00    +0.000 HD
ENDROOT
BRANCH   1  21
ATOM     19  C   UNL     1       0.947   9.186  21.282  0.00  0.00    +0.000 A 
ATOM     20  C   UNL     1       0.393  10.441  20.993  0.00  0.00    +0.000 A 
ATOM     21  C   UNL     1       0.389  10.958  19.689  0.00  0.00    +0.000 A 
ATOM     22  C   UNL     1       0.952  10.190  18.663  0.00  0.00    +0.000 A 
ATOM     23  C   UNL     1       1.511   8.937  18.922  0.00  0.00    +0.000 A 
ATOM     24  C   UNL     1       1.500   8.427  20.237  0.00  0.00    +0.000 A 
BRANCH  19  26
ATOM     25  C   UNL     1      -0.146   9.541  23.390  0.00  0.00    +0.000 C 
ATOM     26  O   UNL     1       0.806   8.843  22.601  0.00  0.00    +0.000 OA
ENDBRANCH  19  26
BRANCH  23  27
ATOM     27  O   UNL     1       1.916   8.263  17.802  0.00  0.00    +0.000 OA
ATOM     28  C   UNL     1       3.308   7.992  17.677  0.00  0.00    +0.000 C 
ENDBRANCH  23  27
BRANCH  24  29
ATOM     29  O   UNL     1       1.976   7.177  20.478  0.00  0.00    +0.000 OA
ATOM     30  H   UNL     1       1.818   6.699  19.649  0.00  0.00    +0.000 HD
ENDBRANCH  24  29
ENDBRANCH   1  21
BRANCH  11  31
ATOM     31  N   UNL     1      -2.543  13.540  22.233  0.00  0.00    +0.000 N 
ATOM     32  H   UNL     1      -2.053  12.656  22.367  0.00  0.00    +0.000 HD
BRANCH  31  33
ATOM     33  C   UNL     1      -3.799  13.560  22.837  0.00  0.00    +0.000 A 
ATOM     34  C   UNL     1      -4.136  12.544  23.746  0.00  0.00    +0.000 A 
ATOM     35  C   UNL     1      -5.386  12.522  24.369  0.00  0.00    +0.000 A 
ATOM     36  C   UNL     1      -6.293  13.543  24.120  0.00  0.00    +0.000 A 
ATOM     37  F   UNL     1      -7.503  13.512  24.691  0.00  0.00    +0.000 F 
ATOM     38  C   UNL     1      -5.952  14.605  23.297  0.00  0.00    +0.000 A 
ATOM     39  C   UNL     1      -4.701  14.621  22.681  0.00  0.00    +0.000 A 
ENDBRANCH  31  33
ENDBRANCH  11  31
TORSDOF 6
ENDMDL
MODEL 2
REMARK VINA RESULT:      -7.3      0.464      2.152
REMARK  Name = 
REMARK  8 active torsions:
REMARK  status: ('A' for Active; 'I' for Inactive)
REMARK    1  A    between atoms: C_1  and  O_2
REMARK    2  A    between atoms: O_2  and  C_3
REMARK    3  A    between atoms: C_5  and  C_6
REMARK    4  A    between atoms: C_16  and  N_17
REMARK    5  A    between atoms: N_17  and  C_18
REMARK    6  A    between atoms: C_32  and  O_33
REMARK    7  A    between atoms: O_33  and  C_34
REMARK    8  A    between atoms: C_35  and  O_36
REMARK                            x       y       z     vdW  Elec       q    Type
REMARK                         _______ _______ _______ _____ _____    ______ ____
ROOT
ATOM      1  C   UNL     1      -0.576  12.391  19.520  0.00  0.00    +0.000 C 
ATOM      2  C   UNL     1      -2.071  12.270  19.298  0.00  0.00    +0.000 A 
ATOM      3  N   UNL     1      -2.675  11.354  18.474  0.00  0.00    +0.000 N 
ATOM      4  C   UNL     1      -4.046  11.453  18.586  0.00  0.00    +0.000 A 
ATOM      5  C   UNL     1      -5.056  10.677  18.004  0.00  0.00    +0.000 A 
ATOM      6  C   UNL     1      -6.382  11.005  18.306  0.00  0.00    +0.000 A 
ATOM      7  C   UNL     1      -6.686  12.079  19.140  0.00  0.00    +0.000 A 
ATOM      8  C   UNL     1      -5.666  12.842  19.718  0.00  0.00    +0.000 A 
ATOM      9  C   UNL     1      -4.323  12.515  19.450  0.00  0.00    +0.000 A 
ATOM     10  C   UNL     1      -3.073  13.010  19.906  0.00  0.00    +0.000 A 
ATOM     11  C   UNL     1      -2.773  14.075  20.932  0.00  0.00    +0.000 C 
ATOM     12  C   UNL     1      -1.292  14.498  20.707  0.00  0.00    +0.000 C 
ATOM     13  C   UNL     1      -0.651  15.344  21.783  0.00  0.00    +0.000 C 
ATOM     14  O   UNL     1       0.690  14.842  21.899  0.00  0.00    +0.000 OA
ATOM     15  C   UNL     1       0.806  13.680  21.184  0.00  0.00    +0.000 C 
ATOM     16  O   UNL     1       1.857  13.072  21.082  0.00  0.00    +0.000 OA
ATOM     17  N   UNL     1      -0.393  13.366  20.602  0.00  0.00    +0.000 N 
ATOM     18  H   UNL     1      -2.194  10.657  17.919  0.00  0.00    +0.000 HD
ENDROOT
BRANCH   1  21
ATOM     19  C   UNL     1       1.551   9.229  19.141  0.00  0.00    +0.000 A 
ATOM     20  C   UNL     1       0.954  10.473  18.899  0.00  0.00    +0.000 A 
ATOM     21  C   UNL     1       0.046  11.040  19.806  0.00  0.00    +0.000 A 
ATOM     22  C   UNL     1      -0.257  10.336  20.977  0.00  0.00    +0.000 A 
ATOM     23  C   UNL     1       0.323   9.093  21.244  0.00  0.00    +0.000 A 
ATOM     24  C   UNL     1       1.240   8.541  20.326  0.00  0.00    +0.000 A 
BRANCH  19  26
ATOM     25  C   UNL     1       2.546   7.509  17.793  0.00  0.00    +0.000 C 
ATOM     26  O   UNL     1       2.443   8.876  18.162  0.00  0.00    +0.000 OA
ENDBRANCH  19  26
BRANCH  23  27
ATOM     27  O   UNL     1       0.014   8.585  22.476  0.00  0.00    +0.000 OA
ATOM     28  C   UNL     1      -0.122   9.515  23.545  0.00  0.00    +0.000 C 
ENDBRANCH  23  27
BRANCH  24  29
ATOM     29  O   UNL     1       1.861   7.368  20.619  0.00  0.00    +0.000 OA
ATOM     30  H   UNL     1       2.752   7.473  20.251  0.00  0.00    +0.000 HD
ENDBRANCH  24  29
ENDBRANCH   1  21
BRANCH  11  31
ATOM     31  N   UNL     1      -2.949  13.585  22.313  0.00  0.00    +0.000 N 
ATOM     32  H   UNL     1      -2.490  12.684  22.439  0.00  0.00    +0.000 HD
BRANCH  31  33
ATOM     33  C   UNL     1      -4.205  13.642  22.915  0.00  0.00    +0.000 A 
ATOM     34  C   UNL     1      -4.621  12.577  23.730  0.00  0.00    +0.000 A 
ATOM     35  C   UNL     1      -5.873  12.590  24.348  0.00  0.00    +0.000 A 
ATOM     36  C   UNL     1      -6.703  13.691  24.190  0.00  0.00    +0.000 A 
ATOM     37  F   UNL     1      -7.916  13.698  24.755  0.00  0.00    +0.000 F 
ATOM     38  C   UNL     1      -6.281  14.794  23.465  0.00  0.00    +0.000 A 
ATOM     39  C   UNL     1      -5.027  14.775  22.854  0.00  0.00    +0.000 A 
ENDBRANCH  31  33
ENDBRANCH  11  31
TORSDOF 6
ENDMDL
MODEL 3
REMARK VINA RESULT:      -7.3      3.745      7.350
REMARK  Name = 
REMARK  8 active torsions:
REMARK  status: ('A' for Active; 'I' for Inactive)
REMARK    1  A    between atoms: C_1  and  O_2
REMARK    2  A    between atoms: O_2  and  C_3
REMARK    3  A    between atoms: C_5  and  C_6
REMARK    4  A    between atoms: C_16  and  N_17
REMARK    5  A    between atoms: N_17  and  C_18
REMARK    6  A    between atoms: C_32  and  O_33
REMARK    7  A    between atoms: O_33  and  C_34
REMARK    8  A    between atoms: C_35  and  O_36
REMARK                            x       y       z     vdW  Elec       q    Type
REMARK                         _______ _______ _______ _____ _____    ______ ____
ROOT
ATOM      1  C   UNL     1      -2.258  12.576  20.644  0.00  0.00    +0.000 C 
ATOM      2  C   UNL     1      -2.423  11.840  19.328  0.00  0.00    +0.000 A 
ATOM      3  N   UNL     1      -3.181  12.274  18.270  0.00  0.00    +0.000 N 
ATOM      4  C   UNL     1      -3.027  11.418  17.199  0.00  0.00    +0.000 A 
ATOM      5  C   UNL     1      -3.535  11.504  15.898  0.00  0.00    +0.000 A 
ATOM      6  C   UNL     1      -3.204  10.481  15.002  0.00  0.00    +0.000 A 
ATOM      7  C   UNL     1      -2.412   9.406  15.400  0.00  0.00    +0.000 A 
ATOM      8  C   UNL     1      -1.907   9.337  16.702  0.00  0.00    +0.000 A 
ATOM      9  C   UNL     1      -2.205  10.368  17.614  0.00  0.00    +0.000 A 
ATOM     10  C   UNL     1      -1.816  10.653  18.949  0.00  0.00    +0.000 A 
ATOM     11  C   UNL     1      -0.853   9.921  19.851  0.00  0.00    +0.000 C 
ATOM     12  C   UNL     1      -1.149  10.408  21.299  0.00  0.00    +0.000 C 
ATOM     13  C   UNL     1      -0.138  10.048  22.363  0.00  0.00    +0.000 C 
ATOM     14  O   UNL     1      -0.045  11.215  23.195  0.00  0.00    +0.000 OA
ATOM     15  C   UNL     1      -0.707  12.255  22.600  0.00  0.00    +0.000 C 
ATOM     16  O   UNL     1      -0.816  13.351  23.122  0.00  0.00    +0.000 OA
ATOM     17  N   UNL     1      -1.232  11.851  21.401  0.00  0.00    +0.000 N 
ATOM     18  H   UNL     1      -3.718  13.132  18.246  0.00  0.00    +0.000 HD
ENDROOT
BRANCH   1  21
ATOM     19  C   UNL     1      -0.447  15.744  19.479  0.00  0.00    +0.000 A 
ATOM     20  C   UNL     1      -0.771  14.400  19.713  0.00  0.00    +0.000 A 
ATOM     21  C   UNL     1      -1.930  14.038  20.415  0.00  0.00    +0.000 A 
ATOM     22  C   UNL     1      -2.774  15.052  20.883  0.00  0.00    +0.000 A 
ATOM     23  C   UNL     1      -2.475  16.399  20.665  0.00  0.00    +0.000 A 
ATOM     24  C   UNL     1      -1.311  16.747  19.950  0.00  0.00    +0.000 A 
BRANCH  19  26
ATOM     25  C   UNL     1       1.740  14.938  18.903  0.00  0.00    +0.000 C 
ATOM     26  O   UNL     1       0.695  15.885  18.735  0.00  0.00    +0.000 OA
ENDBRANCH  19  26
BRANCH  23  27
ATOM     27  O   UNL     1      -3.450  17.262  21.083  0.00  0.00    +0.000 OA
ATOM     28  C   UNL     1      -4.504  17.541  20.169  0.00  0.00    +0.000 C 
ENDBRANCH  23  27
BRANCH  24  29
ATOM     29  O   UNL     1      -1.057  18.053  19.673  0.00  0.00    +0.000 OA
ATOM     30  H   UNL     1      -0.752  18.420  20.517  0.00  0.00    +0.000 HD
ENDBRANCH  24  29
ENDBRANCH   1  21
BRANCH  11  31
ATOM     31  N   UNL     1       0.554  10.199  19.507  0.00  0.00    +0.000 N 
ATOM     32  H   UNL     1       0.626  11.018  18.904  0.00  0.00    +0.000 HD
BRANCH  31  33
ATOM     33  C   UNL     1       1.391   9.158  19.107  0.00  0.00    +0.000 A 
ATOM     34  C   UNL     1       1.588   8.069  19.970  0.00  0.00    +0.000 A 
ATOM     35  C   UNL     1       2.422   7.007  19.611  0.00  0.00    +0.000 A 
ATOM     36  C   UNL     1       3.032   7.008  18.365  0.00  0.00    +0.000 A 
ATOM     37  F   UNL     1       3.856   6.009  18.026  0.00  0.00    +0.000 F 
ATOM     38  C   UNL     1       2.784   8.026  17.458  0.00  0.00    +0.000 A 
ATOM     39  C   UNL     1       1.946   9.080  17.822  0.00  0.00    +0.000 A 
ENDBRANCH  31  33
ENDBRANCH  11  31
TORSDOF 6
ENDMDL
MODEL 4
REMARK VINA RESULT:      -7.2      3.707      7.082
REMARK  Name = 
REMARK  8 active torsions:
REMARK  status: ('A' for Active; 'I' for Inactive)
REMARK    1  A    between atoms: C_1  and  O_2
REMARK    2  A    between atoms: O_2  and  C_3
REMARK    3  A    between atoms: C_5  and  C_6
REMARK    4  A    between atoms: C_16  and  N_17
REMARK    5  A    between atoms: N_17  and  C_18
REMARK    6  A    between atoms: C_32  and  O_33
REMARK    7  A    between atoms: O_33  and  C_34
REMARK    8  A    between atoms: C_35  and  O_36
REMARK                            x       y       z     vdW  Elec       q    Type
REMARK                         _______ _______ _______ _____ _____    ______ ____
ROOT
ATOM      1  C   UNL     1      -2.374  12.666  20.708  0.00  0.00    +0.000 C 
ATOM      2  C   UNL     1      -2.547  11.923  19.396  0.00  0.00    +0.000 A 
ATOM      3  N   UNL     1      -3.327  12.342  18.349  0.00  0.00    +0.000 N 
ATOM      4  C   UNL     1      -3.175  11.486  17.278  0.00  0.00    +0.000 A 
ATOM      5  C   UNL     1      -3.705  11.559  15.984  0.00  0.00    +0.000 A 
ATOM      6  C   UNL     1      -3.370  10.539  15.086  0.00  0.00    +0.000 A 
ATOM      7  C   UNL     1      -2.557   9.478  15.475  0.00  0.00    +0.000 A 
ATOM      8  C   UNL     1      -2.031   9.420  16.770  0.00  0.00    +0.000 A 
ATOM      9  C   UNL     1      -2.332  10.450  17.683  0.00  0.00    +0.000 A 
ATOM     10  C   UNL     1      -1.928  10.744  19.011  0.00  0.00    +0.000 A 
ATOM     11  C   UNL     1      -0.940  10.029  19.901  0.00  0.00    +0.000 C 
ATOM     12  C   UNL     1      -1.222  10.517  21.352  0.00  0.00    +0.000 C 
ATOM     13  C   UNL     1      -0.190  10.175  22.402  0.00  0.00    +0.000 C 
ATOM     14  O   UNL     1      -0.102  11.346  23.230  0.00  0.00    +0.000 OA
ATOM     15  C   UNL     1      -0.789  12.374  22.641  0.00  0.00    +0.000 C 
ATOM     16  O   UNL     1      -0.907  13.470  23.162  0.00  0.00    +0.000 OA
ATOM     17  N   UNL     1      -1.325  11.959  21.451  0.00  0.00    +0.000 N 
ATOM     18  H   UNL     1      -3.878  13.192  18.330  0.00  0.00    +0.000 HD
ENDROOT
BRANCH   1  21
ATOM     19  C   UNL     1      -2.667  16.484  20.783  0.00  0.00    +0.000 A 
ATOM     20  C   UNL     1      -2.926  15.120  20.979  0.00  0.00    +0.000 A 
ATOM     21  C   UNL     1      -2.072  14.131  20.470  0.00  0.00    +0.000 A 
ATOM     22  C   UNL     1      -0.937  14.530  19.755  0.00  0.00    +0.000 A 
ATOM     23  C   UNL     1      -0.655  15.882  19.544  0.00  0.00    +0.000 A 
ATOM     24  C   UNL     1      -1.518  16.865  20.069  0.00  0.00    +0.000 A 
BRANCH  19  26
ATOM     25  C   UNL     1      -3.353  17.696  22.739  0.00  0.00    +0.000 C 
ATOM     26  O   UNL     1      -3.591  17.286  21.400  0.00  0.00    +0.000 OA
ENDBRANCH  19  26
BRANCH  23  27
ATOM     27  O   UNL     1       0.545  16.113  18.928  0.00  0.00    +0.000 OA
ATOM     28  C   UNL     1       1.505  15.064  18.965  0.00  0.00    +0.000 C 
ENDBRANCH  23  27
BRANCH  24  29
ATOM     29  O   UNL     1      -1.206  18.180  19.929  0.00  0.00    +0.000 OA
ATOM     30  H   UNL     1      -0.826  18.426  20.786  0.00  0.00    +0.000 HD
ENDBRANCH  24  29
ENDBRANCH   1  21
BRANCH  11  31
ATOM     31  N   UNL     1       0.458  10.328  19.536  0.00  0.00    +0.000 N 
ATOM     32  H   UNL     1       0.507  11.142  18.924  0.00  0.00    +0.000 HD
BRANCH  31  33
ATOM     33  C   UNL     1       1.307   9.298  19.134  0.00  0.00    +0.000 A 
ATOM     34  C   UNL     1       1.534   8.221  20.006  0.00  0.00    +0.000 A 
ATOM     35  C   UNL     1       2.382   7.171  19.646  0.00  0.00    +0.000 A 
ATOM     36  C   UNL     1       2.975   7.169  18.392  0.00  0.00    +0.000 A 
ATOM     37  F   UNL     1       3.811   6.181  18.051  0.00  0.00    +0.000 F 
ATOM     38  C   UNL     1       2.696   8.174  17.478  0.00  0.00    +0.000 A 
ATOM     39  C   UNL     1       1.846   9.217  17.843  0.00  0.00    +0.000 A 
ENDBRANCH  31  33
ENDBRANCH  11  31
TORSDOF 6
ENDMDL
MODEL 5
REMARK VINA RESULT:      -7.0      3.700      5.591
REMARK  Name = 
REMARK  8 active torsions:
REMARK  status: ('A' for Active; 'I' for Inactive)
REMARK    1  A    between atoms: C_1  and  O_2
REMARK    2  A    between atoms: O_2  and  C_3
REMARK    3  A    between atoms: C_5  and  C_6
REMARK    4  A    between atoms: C_16  and  N_17
REMARK    5  A    between atoms: N_17  and  C_18
REMARK    6  A    between atoms: C_32  and  O_33
REMARK    7  A    between atoms: O_33  and  C_34
REMARK    8  A    between atoms: C_35  and  O_36
REMARK                            x       y       z     vdW  Elec       q    Type
REMARK                         _______ _______ _______ _____ _____    ______ ____
ROOT
ATOM      1  C   UNL     1       2.741  15.061  18.319  0.00  0.00    +0.000 C 
ATOM      2  C   UNL     1       2.076  13.698  18.358  0.00  0.00    +0.000 A 
ATOM      3  N   UNL     1       2.639  12.532  17.904  0.00  0.00    +0.000 N 
ATOM      4  C   UNL     1       1.807  11.469  18.185  0.00  0.00    +0.000 A 
ATOM      5  C   UNL     1       2.000  10.096  17.984  0.00  0.00    +0.000 A 
ATOM      6  C   UNL     1       0.974   9.231  18.379  0.00  0.00    +0.000 A 
ATOM      7  C   UNL     1      -0.206   9.721  18.932  0.00  0.00    +0.000 A 
ATOM      8  C   UNL     1      -0.383  11.094  19.132  0.00  0.00    +0.000 A 
ATOM      9  C   UNL     1       0.647  11.983  18.767  0.00  0.00    +0.000 A 
ATOM     10  C   UNL     1       0.834  13.384  18.888  0.00  0.00    +0.000 A 
ATOM     11  C   UNL     1      -0.045  14.423  19.539  0.00  0.00    +0.000 C 
ATOM     12  C   UNL     1       0.428  15.803  18.996  0.00  0.00    +0.000 C 
ATOM     13  C   UNL     1      -0.095  17.033  19.703  0.00  0.00    +0.000 C 
ATOM     14  O   UNL     1       1.022  17.935  19.751  0.00  0.00    +0.000 OA
ATOM     15  C   UNL     1       2.158  17.277  19.361  0.00  0.00    +0.000 C 
ATOM     16  O   UNL     1       3.241  17.830  19.272  0.00  0.00    +0.000 OA
ATOM     17  N   UNL     1       1.865  15.973  19.065  0.00  0.00    +0.000 N 
ATOM     18  H   UNL     1       3.559  12.447  17.490  0.00  0.00    +0.000 HD
ENDROOT
BRANCH   1  21
ATOM     19  C   UNL     1       5.681  14.952  20.772  0.00  0.00    +0.000 A 
ATOM     20  C   UNL     1       4.385  15.020  20.243  0.00  0.00    +0.000 A 
ATOM     21  C   UNL     1       4.155  14.995  18.860  0.00  0.00    +0.000 A 
ATOM     22  C   UNL     1       5.255  14.896  18.000  0.00  0.00    +0.000 A 
ATOM     23  C   UNL     1       6.558  14.827  18.499  0.00  0.00    +0.000 A 
ATOM     24  C   UNL     1       6.772  14.845  19.893  0.00  0.00    +0.000 A 
BRANCH  19  26
ATOM     25  C   UNL     1       5.591  13.692  22.814  0.00  0.00    +0.000 C 
ATOM     26  O   UNL     1       5.688  14.940  22.142  0.00  0.00    +0.000 OA
ENDBRANCH  19  26
BRANCH  23  27
ATOM     27  O   UNL     1       7.513  14.620  17.542  0.00  0.00    +0.000 OA
ATOM     28  C   UNL     1       7.938  13.279  17.329  0.00  0.00    +0.000 C 
ENDBRANCH  23  27
BRANCH  24  29
ATOM     29  O   UNL     1       8.032  14.703  20.382  0.00  0.00    +0.000 OA
ATOM     30  H   UNL     1       8.562  14.461  19.606  0.00  0.00    +0.000 HD
ENDBRANCH  24  29
ENDBRANCH   1  21
BRANCH  11  31
ATOM     31  N   UNL     1       0.061  14.402  21.010  0.00  0.00    +0.000 N 
ATOM     32  H   UNL     1       1.014  14.185  21.302  0.00  0.00    +0.000 HD
BRANCH  31  33
ATOM     33  C   UNL     1      -0.901  13.735  21.767  0.00  0.00    +0.000 A 
ATOM     34  C   UNL     1      -2.200  14.265  21.840  0.00  0.00    +0.000 A 
ATOM     35  C   UNL     1      -3.193  13.632  22.592  0.00  0.00    +0.000 A 
ATOM     36  C   UNL     1      -2.905  12.441  23.242  0.00  0.00    +0.000 A 
ATOM     37  F   UNL     1      -3.844  11.845  23.988  0.00  0.00    +0.000 F 
ATOM     38  C   UNL     1      -1.658  11.850  23.113  0.00  0.00    +0.000 A 
ATOM     39  C   UNL     1      -0.673  12.485  22.357  0.00  0.00    +0.000 A 
ENDBRANCH  31  33
ENDBRANCH  11  31
TORSDOF 6
ENDMDL
MODEL 6
REMARK VINA RESULT:      -6.9      3.794      6.085
REMARK  Name = 
REMARK  8 active torsions:
REMARK  status: ('A' for Active; 'I' for Inactive)
REMARK    1  A    between atoms: C_1  and  O_2
REMARK    2  A    between atoms: O_2  and  C_3
REMARK    3  A    between atoms: C_5  and  C_6
REMARK    4  A    between atoms: C_16  and  N_17
REMARK    5  A    between atoms: N_17  and  C_18
REMARK    6  A    between atoms: C_32  and  O_33
REMARK    7  A    between atoms: O_33  and  C_34
REMARK    8  A    between atoms: C_35  and  O_36
REMARK                            x       y       z     vdW  Elec       q    Type
REMARK                         _______ _______ _______ _____ _____    ______ ____
ROOT
ATOM      1  C   UNL     1       2.930  15.163  18.437  0.00  0.00    +0.000 C 
ATOM      2  C   UNL     1       2.241  13.812  18.417  0.00  0.00    +0.000 A 
ATOM      3  N   UNL     1       2.799  12.649  17.951  0.00  0.00    +0.000 N 
ATOM      4  C   UNL     1       1.939  11.593  18.175  0.00  0.00    +0.000 A 
ATOM      5  C   UNL     1       2.116  10.224  17.945  0.00  0.00    +0.000 A 
ATOM      6  C   UNL     1       1.061   9.367  18.281  0.00  0.00    +0.000 A 
ATOM      7  C   UNL     1      -0.129   9.864  18.807  0.00  0.00    +0.000 A 
ATOM      8  C   UNL     1      -0.289  11.235  19.037  0.00  0.00    +0.000 A 
ATOM      9  C   UNL     1       0.769  12.114  18.731  0.00  0.00    +0.000 A 
ATOM     10  C   UNL     1       0.976  13.508  18.896  0.00  0.00    +0.000 A 
ATOM     11  C   UNL     1       0.093  14.545  19.544  0.00  0.00    +0.000 C 
ATOM     12  C   UNL     1       0.608  15.930  19.054  0.00  0.00    +0.000 C 
ATOM     13  C   UNL     1       0.083  17.150  19.775  0.00  0.00    +0.000 C 
ATOM     14  O   UNL     1       1.213  18.030  19.885  0.00  0.00    +0.000 OA
ATOM     15  C   UNL     1       2.350  17.362  19.517  0.00  0.00    +0.000 C 
ATOM     16  O   UNL     1       3.445  17.897  19.480  0.00  0.00    +0.000 OA
ATOM     17  N   UNL     1       2.045  16.071  19.176  0.00  0.00    +0.000 N 
ATOM     18  H   UNL     1       3.731  12.557  17.567  0.00  0.00    +0.000 HD
ENDROOT
BRANCH   1  21
ATOM     19  C   UNL     1       6.750  15.120  18.716  0.00  0.00    +0.000 A 
ATOM     20  C   UNL     1       5.449  15.204  18.200  0.00  0.00    +0.000 A 
ATOM     21  C   UNL     1       4.323  15.058  19.024  0.00  0.00    +0.000 A 
ATOM     22  C   UNL     1       4.519  14.827  20.390  0.00  0.00    +0.000 A 
ATOM     23  C   UNL     1       5.804  14.738  20.931  0.00  0.00    +0.000 A 
ATOM     24  C   UNL     1       6.926  14.896  20.092  0.00  0.00    +0.000 A 
BRANCH  19  26
ATOM     25  C   UNL     1       8.541  16.484  17.880  0.00  0.00    +0.000 C 
ATOM     26  O   UNL     1       7.708  15.340  17.761  0.00  0.00    +0.000 OA
ENDBRANCH  19  26
BRANCH  23  27
ATOM     27  O   UNL     1       5.829  14.623  22.294  0.00  0.00    +0.000 OA
ATOM     28  C   UNL     1       5.759  13.309  22.836  0.00  0.00    +0.000 C 
ENDBRANCH  23  27
BRANCH  24  29
ATOM     29  O   UNL     1       8.174  14.884  20.628  0.00  0.00    +0.000 OA
ATOM     30  H   UNL     1       8.751  14.660  19.882  0.00  0.00    +0.000 HD
ENDBRANCH  24  29
ENDBRANCH   1  21
BRANCH  11  31
ATOM     31  N   UNL     1       0.148  14.483  21.017  0.00  0.00    +0.000 N 
ATOM     32  H   UNL     1       1.080  14.215  21.334  0.00  0.00    +0.000 HD
BRANCH  31  33
ATOM     33  C   UNL     1      -0.869  13.844  21.725  0.00  0.00    +0.000 A 
ATOM     34  C   UNL     1      -0.603  12.611  22.341  0.00  0.00    +0.000 A 
ATOM     35  C   UNL     1      -1.594  11.934  23.054  0.00  0.00    +0.000 A 
ATOM     36  C   UNL     1      -2.850  12.508  23.193  0.00  0.00    +0.000 A 
ATOM     37  F   UNL     1      -3.814  11.852  23.850  0.00  0.00    +0.000 F 
ATOM     38  C   UNL     1      -3.113  13.765  22.671  0.00  0.00    +0.000 A 
ATOM     39  C   UNL     1      -2.116  14.437  21.964  0.00  0.00    +0.000 A 
ENDBRANCH  31  33
ENDBRANCH  11  31
TORSDOF 6
ENDMDL
MODEL 7
REMARK VINA RESULT:      -6.9      1.190      1.446
REMARK  Name = 
REMARK  8 active torsions:
REMARK  status: ('A' for Active; 'I' for Inactive)
REMARK    1  A    between atoms: C_1  and  O_2
REMARK    2  A    between atoms: O_2  and  C_3
REMARK    3  A    between atoms: C_5  and  C_6
REMARK    4  A    between atoms: C_16  and  N_17
REMARK    5  A    between atoms: N_17  and  C_18
REMARK    6  A    between atoms: C_32  and  O_33
REMARK    7  A    between atoms: O_33  and  C_34
REMARK    8  A    between atoms: C_35  and  O_36
REMARK                            x       y       z     vdW  Elec       q    Type
REMARK                         _______ _______ _______ _____ _____    ______ ____
ROOT
ATOM      1  C   UNL     1      -0.267  12.247  19.134  0.00  0.00    +0.000 C 
ATOM      2  C   UNL     1      -1.778  12.139  19.065  0.00  0.00    +0.000 A 
ATOM      3  N   UNL     1      -2.469  11.166  18.388  0.00  0.00    +0.000 N 
ATOM      4  C   UNL     1      -3.822  11.305  18.619  0.00  0.00    +0.000 A 
ATOM      5  C   UNL     1      -4.893  10.502  18.208  0.00  0.00    +0.000 A 
ATOM      6  C   UNL     1      -6.180  10.885  18.602  0.00  0.00    +0.000 A 
ATOM      7  C   UNL     1      -6.388  12.035  19.358  0.00  0.00    +0.000 A 
ATOM      8  C   UNL     1      -5.309  12.825  19.766  0.00  0.00    +0.000 A 
ATOM      9  C   UNL     1      -4.001  12.446  19.404  0.00  0.00    +0.000 A 
ATOM     10  C   UNL     1      -2.708  12.952  19.694  0.00  0.00    +0.000 A 
ATOM     11  C   UNL     1      -2.297  14.099  20.585  0.00  0.00    +0.000 C 
ATOM     12  C   UNL     1      -0.839  14.467  20.184  0.00  0.00    +0.000 C 
ATOM     13  C   UNL     1      -0.087  15.393  21.113  0.00  0.00    +0.000 C 
ATOM     14  O   UNL     1       1.253  14.874  21.148  0.00  0.00    +0.000 OA
ATOM     15  C   UNL     1       1.284  13.650  20.535  0.00  0.00    +0.000 C 
ATOM     16  O   UNL     1       2.313  13.012  20.392  0.00  0.00    +0.000 OA
ATOM     17  N   UNL     1       0.031  13.311  20.100  0.00  0.00    +0.000 N 
ATOM     18  H   UNL     1      -2.053  10.412  17.857  0.00  0.00    +0.000 HD
ENDROOT
BRANCH   1  21
ATOM     19  C   UNL     1       0.900   9.210  21.155  0.00  0.00    +0.000 A 
ATOM     20  C   UNL     1       0.334  10.444  20.804  0.00  0.00    +0.000 A 
ATOM     21  C   UNL     1       0.362  10.914  19.483  0.00  0.00    +0.000 A 
ATOM     22  C   UNL     1       0.967  10.119  18.502  0.00  0.00    +0.000 A 
ATOM     23  C   UNL     1       1.539   8.886  18.823  0.00  0.00    +0.000 A 
ATOM     24  C   UNL     1       1.496   8.423  20.155  0.00  0.00    +0.000 A 
BRANCH  19  26
ATOM     25  C   UNL     1      -0.262   9.620  23.215  0.00  0.00    +0.000 C 
ATOM     26  O   UNL     1       0.725   8.911  22.481  0.00  0.00    +0.000 OA
ENDBRANCH  19  26
BRANCH  23  27
ATOM     27  O   UNL     1       1.989   8.180  17.741  0.00  0.00    +0.000 OA
ATOM     28  C   UNL     1       3.376   7.865  17.704  0.00  0.00    +0.000 C 
ENDBRANCH  23  27
BRANCH  24  29
ATOM     29  O   UNL     1       1.986   7.192  20.455  0.00  0.00    +0.000 OA
ATOM     30  H   UNL     1       1.774   7.075  21.394  0.00  0.00    +0.000 HD
ENDBRANCH  24  29
ENDBRANCH   1  21
BRANCH  11  31
ATOM     31  N   UNL     1      -2.347  13.739  22.015  0.00  0.00    +0.000 N 
ATOM     32  H   UNL     1      -2.612  12.762  22.135  0.00  0.00    +0.000 HD
BRANCH  31  33
ATOM     33  C   UNL     1      -2.981  14.587  22.923  0.00  0.00    +0.000 A 
ATOM     34  C   UNL     1      -4.301  14.993  22.672  0.00  0.00    +0.000 A 
ATOM     35  C   UNL     1      -4.971  15.845  23.552  0.00  0.00    +0.000 A 
ATOM     36  C   UNL     1      -4.338  16.264  24.714  0.00  0.00    +0.000 A 
ATOM     37  F   UNL     1      -4.963  17.105  25.547  0.00  0.00    +0.000 F 
ATOM     38  C   UNL     1      -3.068  15.807  25.030  0.00  0.00    +0.000 A 
ATOM     39  C   UNL     1      -2.407  14.952  24.149  0.00  0.00    +0.000 A 
ENDBRANCH  31  33
ENDBRANCH  11  31
TORSDOF 6
ENDMDL
MODEL 8
REMARK VINA RESULT:      -6.8      4.152      7.807
REMARK  Name = 
REMARK  8 active torsions:
REMARK  status: ('A' for Active; 'I' for Inactive)
REMARK    1  A    between atoms: C_1  and  O_2
REMARK    2  A    between atoms: O_2  and  C_3
REMARK    3  A    between atoms: C_5  and  C_6
REMARK    4  A    between atoms: C_16  and  N_17
REMARK    5  A    between atoms: N_17  and  C_18
REMARK    6  A    between atoms: C_32  and  O_33
REMARK    7  A    between atoms: O_33  and  C_34
REMARK    8  A    between atoms: C_35  and  O_36
REMARK                            x       y       z     vdW  Elec       q    Type
REMARK                         _______ _______ _______ _____ _____    ______ ____
ROOT
ATOM      1  C   UNL     1      -1.525  13.177  20.625  0.00  0.00    +0.000 C 
ATOM      2  C   UNL     1      -1.123  14.421  19.855  0.00  0.00    +0.000 A 
ATOM      3  N   UNL     1      -1.873  15.565  19.756  0.00  0.00    +0.000 N 
ATOM      4  C   UNL     1      -1.167  16.532  19.070  0.00  0.00    +0.000 A 
ATOM      5  C   UNL     1      -1.494  17.866  18.803  0.00  0.00    +0.000 A 
ATOM      6  C   UNL     1      -0.569  18.630  18.082  0.00  0.00    +0.000 A 
ATOM      7  C   UNL     1       0.625  18.074  17.630  0.00  0.00    +0.000 A 
ATOM      8  C   UNL     1       0.941  16.741  17.909  0.00  0.00    +0.000 A 
ATOM      9  C   UNL     1       0.038  15.960  18.656  0.00  0.00    +0.000 A 
ATOM     10  C   UNL     1       0.063  14.637  19.170  0.00  0.00    +0.000 A 
ATOM     11  C   UNL     1       1.162  13.604  19.123  0.00  0.00    +0.000 C 
ATOM     12  C   UNL     1       0.492  12.235  19.441  0.00  0.00    +0.000 C 
ATOM     13  C   UNL     1       1.414  11.075  19.740  0.00  0.00    +0.000 C 
ATOM     14  O   UNL     1       0.775  10.359  20.809  0.00  0.00    +0.000 OA
ATOM     15  C   UNL     1      -0.271  11.099  21.292  0.00  0.00    +0.000 C 
ATOM     16  O   UNL     1      -1.007  10.699  22.177  0.00  0.00    +0.000 OA
ATOM     17  N   UNL     1      -0.361  12.284  20.611  0.00  0.00    +0.000 N 
ATOM     18  H   UNL     1      -2.780  15.711  20.182  0.00  0.00    +0.000 HD
ENDROOT
BRANCH   1  21
ATOM     19  C   UNL     1      -3.745  13.416  23.737  0.00  0.00    +0.000 A 
ATOM     20  C   UNL     1      -3.275  13.113  22.451  0.00  0.00    +0.000 A 
ATOM     21  C   UNL     1      -2.008  13.529  22.017  0.00  0.00    +0.000 A 
ATOM     22  C   UNL     1      -1.205  14.260  22.900  0.00  0.00    +0.000 A 
ATOM     23  C   UNL     1      -1.648  14.576  24.186  0.00  0.00    +0.000 A 
ATOM     24  C   UNL     1      -2.920  14.144  24.611  0.00  0.00    +0.000 A 
BRANCH  19  26
ATOM     25  C   UNL     1      -6.130  13.686  23.780  0.00  0.00    +0.000 C 
ATOM     26  O   UNL     1      -4.981  12.878  23.983  0.00  0.00    +0.000 OA
ENDBRANCH  19  26
BRANCH  23  27
ATOM     27  O   UNL     1      -0.707  15.194  24.964  0.00  0.00    +0.000 OA
ATOM     28  C   UNL     1      -0.655  16.615  24.913  0.00  0.00    +0.000 C 
ENDBRANCH  23  27
BRANCH  24  29
ATOM     29  O   UNL     1      -3.322  14.387  25.886  0.00  0.00    +0.000 OA
ATOM     30  H   UNL     1      -4.265  14.160  25.885  0.00  0.00    +0.000 HD
ENDBRANCH  24  29
ENDBRANCH   1  21
BRANCH  11  31
ATOM     31  N   UNL     1       2.229  13.879  20.104  0.00  0.00    +0.000 N 
ATOM     32  H   UNL     1       1.833  14.144  21.006  0.00  0.00    +0.000 HD
BRANCH  31  33
ATOM     33  C   UNL     1       3.322  14.664  19.740  0.00  0.00    +0.000 A 
ATOM     34  C   UNL     1       3.936  14.447  18.497  0.00  0.00    +0.000 A 
ATOM     35  C   UNL     1       5.037  15.207  18.096  0.00  0.00    +0.000 A 
ATOM     36  C   UNL     1       5.504  16.222  18.919  0.00  0.00    +0.000 A 
ATOM     37  F   UNL     1       6.577  16.935  18.554  0.00  0.00    +0.000 F 
ATOM     38  C   UNL     1       4.861  16.517  20.111  0.00  0.00    +0.000 A 
ATOM     39  C   UNL     1       3.760  15.756  20.502  0.00  0.00    +0.000 A 
ENDBRANCH  31  33
ENDBRANCH  11  31
TORSDOF 6
ENDMDL
MODEL 9
REMARK VINA RESULT:      -6.8      2.735      5.982
REMARK  Name = 
REMARK  8 active torsions:
REMARK  status: ('A' for Active; 'I' for Inactive)
REMARK    1  A    between atoms: C_1  and  O_2
REMARK    2  A    between atoms: O_2  and  C_3
REMARK    3  A    between atoms: C_5  and  C_6
REMARK    4  A    between atoms: C_16  and  N_17
REMARK    5  A    between atoms: N_17  and  C_18
REMARK    6  A    between atoms: C_32  and  O_33
REMARK    7  A    between atoms: O_33  and  C_34
REMARK    8  A    between atoms: C_35  and  O_36
REMARK                            x       y       z     vdW  Elec       q    Type
REMARK                         _______ _______ _______ _____ _____    ______ ____
ROOT
ATOM      1  C   UNL     1       1.272  12.989  20.740  0.00  0.00    +0.000 C 
ATOM      2  C   UNL     1       0.161  13.517  21.628  0.00  0.00    +0.000 A 
ATOM      3  N   UNL     1       0.296  14.532  22.542  0.00  0.00    +0.000 N 
ATOM      4  C   UNL     1      -0.931  14.827  23.100  0.00  0.00    +0.000 A 
ATOM      5  C   UNL     1      -1.289  15.831  24.007  0.00  0.00    +0.000 A 
ATOM      6  C   UNL     1      -2.630  15.902  24.401  0.00  0.00    +0.000 A 
ATOM      7  C   UNL     1      -3.569  14.991  23.924  0.00  0.00    +0.000 A 
ATOM      8  C   UNL     1      -3.197  13.996  23.014  0.00  0.00    +0.000 A 
ATOM      9  C   UNL     1      -1.859  13.921  22.582  0.00  0.00    +0.000 A 
ATOM     10  C   UNL     1      -1.165  13.114  21.643  0.00  0.00    +0.000 A 
ATOM     11  C   UNL     1      -1.690  12.049  20.711  0.00  0.00    +0.000 C 
ATOM     12  C   UNL     1      -0.456  11.219  20.253  0.00  0.00    +0.000 C 
ATOM     13  C   UNL     1      -0.661  10.270  19.094  0.00  0.00    +0.000 C 
ATOM     14  O   UNL     1       0.537  10.379  18.309  0.00  0.00    +0.000 OA
ATOM     15  C   UNL     1       1.286  11.432  18.763  0.00  0.00    +0.000 C 
ATOM     16  O   UNL     1       2.374  11.716  18.294  0.00  0.00    +0.000 OA
ATOM     17  N   UNL     1       0.646  12.047  19.806  0.00  0.00    +0.000 N 
ATOM     18  H   UNL     1       1.149  15.043  22.730  0.00  0.00    +0.000 HD
ENDROOT
BRANCH   1  21
ATOM     19  C   UNL     1       1.965  16.151  18.691  0.00  0.00    +0.000 A 
ATOM     20  C   UNL     1       1.307  15.087  19.325  0.00  0.00    +0.000 A 
ATOM     21  C   UNL     1       2.013  14.122  20.059  0.00  0.00    +0.000 A 
ATOM     22  C   UNL     1       3.404  14.240  20.157  0.00  0.00    +0.000 A 
ATOM     23  C   UNL     1       4.085  15.290  19.535  0.00  0.00    +0.000 A 
ATOM     24  C   UNL     1       3.361  16.256  18.807  0.00  0.00    +0.000 A 
BRANCH  19  26
ATOM     25  C   UNL     1      -0.300  16.805  18.237  0.00  0.00    +0.000 C 
ATOM     26  O   UNL     1       1.095  17.008  18.070  0.00  0.00    +0.000 OA
ENDBRANCH  19  26
BRANCH  23  27
ATOM     27  O   UNL     1       5.423  15.331  19.816  0.00  0.00    +0.000 OA
ATOM     28  C   UNL     1       5.814  15.057  21.157  0.00  0.00    +0.000 C 
ENDBRANCH  23  27
BRANCH  24  29
ATOM     29  O   UNL     1       4.014  17.318  18.265  0.00  0.00    +0.000 OA
ATOM     30  H   UNL     1       3.362  17.716  17.666  0.00  0.00    +0.000 HD
ENDBRANCH  24  29
ENDBRANCH   1  21
BRANCH  11  31
ATOM     31  N   UNL     1      -2.371  12.624  19.535  0.00  0.00    +0.000 N 
ATOM     32  H   UNL     1      -2.307  13.641  19.540  0.00  0.00    +0.000 HD
BRANCH  31  33
ATOM     33  C   UNL     1      -3.635  12.162  19.170  0.00  0.00    +0.000 A 
ATOM     34  C   UNL     1      -4.731  12.440  20.002  0.00  0.00    +0.000 A 
ATOM     35  C   UNL     1      -6.013  11.991  19.677  0.00  0.00    +0.000 A 
ATOM     36  C   UNL     1      -6.215  11.298  18.492  0.00  0.00    +0.000 A 
ATOM     37  F   UNL     1      -7.436  10.839  18.188  0.00  0.00    +0.000 F 
ATOM     38  C   UNL     1      -5.167  11.088  17.609  0.00  0.00    +0.000 A 
ATOM     39  C   UNL     1      -3.891  11.542  17.939  0.00  0.00    +0.000 A 
ENDBRANCH  31  33
ENDBRANCH  11  31
TORSDOF 6
ENDMDL
