MODEL 1
REMARK VINA RESULT:      -8.4      0.000      0.000
REMARK  Name = 
REMARK  8 active torsions:
REMARK  status: ('A' for Active; 'I' for Inactive)
REMARK    1  A    between atoms: C_1  and  C_2
REMARK    2  A    between atoms: C_2  and  C_3
REMARK    3  A    between atoms: C_3  and  C_4
REMARK    4  A    between atoms: C_3  and  N_19
REMARK    5  A    between atoms: N_8  and  C_9
REMARK    6  A    between atoms: N_22  and  C_23
REMARK    7  A    between atoms: C_25  and  C_26
REMARK    8  A    between atoms: C_29  and  C_30
REMARK                            x       y       z     vdW  Elec       q    Type
REMARK                         _______ _______ _______ _____ _____    ______ ____
ROOT
ATOM      1  C   UNL     1       2.108   5.578  19.430  0.00  0.00    +0.000 C 
ENDROOT
BRANCH   1   2
ATOM      2  N   UNL     1       2.805   6.882  19.634  0.00  0.00    +0.000 NA
ATOM      3  C   UNL     1       2.907   7.692  18.394  0.00  0.00    +0.000 C 
ATOM      4  C   UNL     1       1.587   8.319  17.883  0.00  0.00    +0.000 C 
ATOM      5  N   UNL     1       0.867   9.035  18.942  0.00  0.00    +0.000 N 
ATOM      6  C   UNL     1       0.803   8.353  20.252  0.00  0.00    +0.000 C 
ATOM      7  C   UNL     1       2.182   7.777  20.646  0.00  0.00    +0.000 C 
BRANCH   5   8
ATOM      8  C   UNL     1       0.074  10.151  18.673  0.00  0.00    +0.000 A 
ATOM      9  C   UNL     1      -1.000  10.005  17.763  0.00  0.00    +0.000 A 
ATOM     10  C   UNL     1      -1.908  11.031  17.458  0.00  0.00    +0.000 A 
ATOM     11  C   UNL     1      -3.033  10.804  16.495  0.00  0.00    +0.000 C 
ATOM     12  C   UNL     1      -1.766  12.258  18.091  0.00  0.00    +0.000 A 
ATOM     13  C   UNL     1      -0.723  12.451  18.990  0.00  0.00    +0.000 A 
ATOM     14  C   UNL     1       0.211  11.427  19.278  0.00  0.00    +0.000 A 
ATOM     15  C   UNL     1       1.330  11.818  20.210  0.00  0.00    +0.000 C 
ENDBRANCH   5   8
ENDBRANCH   1   2
BRANCH   1  16
ATOM     16  C   UNL     1       2.844   4.405  20.034  0.00  0.00    +0.000 A 
ATOM     17  N   UNL     1       2.461   3.715  21.095  0.00  0.00    +0.000 NA
ATOM     18  N   UNL     1       3.243   2.601  21.145  0.00  0.00    +0.000 NA
ATOM     19  N   UNL     1       4.107   2.586  20.145  0.00  0.00    +0.000 NA
ATOM     20  N   UNL     1       3.958   3.767  19.494  0.00  0.00    +0.000 N 
BRANCH  20  21
ATOM     21  C   UNL     1       4.890   4.141  18.492  0.00  0.00    +0.000 A 
ATOM     22  C   UNL     1       6.100   4.776  18.800  0.00  0.00    +0.000 A 
ATOM     23  C   UNL     1       7.039   5.047  17.803  0.00  0.00    +0.000 A 
ATOM     24  C   UNL     1       6.758   4.726  16.484  0.00  0.00    +0.000 A 
ATOM     25  C   UNL     1       5.552   4.103  16.156  0.00  0.00    +0.000 A 
ATOM     26  C   UNL     1       4.629   3.793  17.157  0.00  0.00    +0.000 A 
ATOM     27  O   UNL     1       5.202   3.775  14.874  0.00  0.00    +0.000 OA
ATOM     28  C   UNL     1       6.315   3.850  13.976  0.00  0.00    +0.000 C 
ATOM     29  C   UNL     1       7.169   5.080  14.243  0.00  0.00    +0.000 C 
ATOM     30  O   UNL     1       7.721   5.041  15.562  0.00  0.00    +0.000 OA
ENDBRANCH  20  21
ENDBRANCH   1  16
BRANCH   1  32
ATOM     31  C   UNL     1       1.155   4.005  17.583  0.00  0.00    +0.000 C 
ATOM     32  C   UNL     1       1.880   5.306  17.915  0.00  0.00    +0.000 C 
ENDBRANCH   1  32
TORSDOF 5
ENDMDL
MODEL 2
REMARK VINA RESULT:      -8.2      5.187     10.407
REMARK  Name = 
REMARK  8 active torsions:
REMARK  status: ('A' for Active; 'I' for Inactive)
REMARK    1  A    between atoms: C_1  and  C_2
REMARK    2  A    between atoms: C_2  and  C_3
REMARK    3  A    between atoms: C_3  and  C_4
REMARK    4  A    between atoms: C_3  and  N_19
REMARK    5  A    between atoms: N_8  and  C_9
REMARK    6  A    between atoms: N_22  and  C_23
REMARK    7  A    between atoms: C_25  and  C_26
REMARK    8  A    between atoms: C_29  and  C_30
REMARK                            x       y       z     vdW  Elec       q    Type
REMARK                         _______ _______ _______ _____ _____    ______ ____
ROOT
ATOM      1  C   UNL     1       0.427  12.253  19.509  0.00  0.00    +0.000 C 
ENDROOT
BRANCH   1   2
ATOM      2  N   UNL     1      -0.271  10.967  19.805  0.00  0.00    +0.000 NA
ATOM      3  C   UNL     1      -0.450  10.107  18.608  0.00  0.00    +0.000 C 
ATOM      4  C   UNL     1       0.834   9.444  18.052  0.00  0.00    +0.000 C 
ATOM      5  N   UNL     1       1.606   8.764  19.098  0.00  0.00    +0.000 N 
ATOM      6  C   UNL     1       1.748   9.499  20.373  0.00  0.00    +0.000 C 
ATOM      7  C   UNL     1       0.399  10.107  20.819  0.00  0.00    +0.000 C 
BRANCH   5   8
ATOM      8  C   UNL     1       2.371   7.629  18.833  0.00  0.00    +0.000 A 
ATOM      9  C   UNL     1       3.254   7.660  17.727  0.00  0.00    +0.000 A 
ATOM     10  C   UNL     1       4.124   6.611  17.394  0.00  0.00    +0.000 A 
ATOM     11  C   UNL     1       5.045   6.717  16.216  0.00  0.00    +0.000 C 
ATOM     12  C   UNL     1       4.142   5.478  18.196  0.00  0.00    +0.000 A 
ATOM     13  C   UNL     1       3.288   5.399  19.291  0.00  0.00    +0.000 A 
ATOM     14  C   UNL     1       2.390   6.444  19.613  0.00  0.00    +0.000 A 
ATOM     15  C   UNL     1       1.475   6.172  20.780  0.00  0.00    +0.000 C 
ENDBRANCH   5   8
ENDBRANCH   1   2
BRANCH   1  16
ATOM     16  C   UNL     1       0.831  13.014  20.750  0.00  0.00    +0.000 A 
ATOM     17  N   UNL     1       2.047  13.459  21.022  0.00  0.00    +0.000 NA
ATOM     18  N   UNL     1       1.929  14.304  22.084  0.00  0.00    +0.000 NA
ATOM     19  N   UNL     1       0.672  14.389  22.482  0.00  0.00    +0.000 NA
ATOM     20  N   UNL     1      -0.026  13.498  21.735  0.00  0.00    +0.000 N 
BRANCH  20  21
ATOM     21  C   UNL     1      -1.375  13.204  22.067  0.00  0.00    +0.000 A 
ATOM     22  C   UNL     1      -1.711  12.284  23.068  0.00  0.00    +0.000 A 
ATOM     23  C   UNL     1      -3.044  12.086  23.437  0.00  0.00    +0.000 A 
ATOM     24  C   UNL     1      -4.052  12.771  22.777  0.00  0.00    +0.000 A 
ATOM     25  C   UNL     1      -3.736  13.684  21.768  0.00  0.00    +0.000 A 
ATOM     26  C   UNL     1      -2.402  13.915  21.426  0.00  0.00    +0.000 A 
ATOM     27  O   UNL     1      -4.681  14.380  21.064  0.00  0.00    +0.000 OA
ATOM     28  C   UNL     1      -5.972  14.308  21.680  0.00  0.00    +0.000 C 
ATOM     29  C   UNL     1      -6.276  12.906  22.183  0.00  0.00    +0.000 C 
ATOM     30  O   UNL     1      -5.334  12.508  23.183  0.00  0.00    +0.000 OA
ENDBRANCH  20  21
ENDBRANCH   1  16
BRANCH   1  32
ATOM     31  C   UNL     1      -0.043  14.636  18.564  0.00  0.00    +0.000 C 
ATOM     32  C   UNL     1      -0.463  13.171  18.622  0.00  0.00    +0.000 C 
ENDBRANCH   1  32
TORSDOF 5
ENDMDL
MODEL 3
REMARK VINA RESULT:      -8.1      0.741      1.656
REMARK  Name = 
REMARK  8 active torsions:
REMARK  status: ('A' for Active; 'I' for Inactive)
REMARK    1  A    between atoms: C_1  and  C_2
REMARK    2  A    between atoms: C_2  and  C_3
REMARK    3  A    between atoms: C_3  and  C_4
REMARK    4  A    between atoms: C_3  and  N_19
REMARK    5  A    between atoms: N_8  and  C_9
REMARK    6  A    between atoms: N_22  and  C_23
REMARK    7  A    between atoms: C_25  and  C_26
REMARK    8  A    between atoms: C_29  and  C_30
REMARK                            x       y       z     vdW  Elec       q    Type
REMARK                         _______ _______ _______ _____ _____    ______ ____
ROOT
ATOM      1  C   UNL     1       1.911   5.833  19.388  0.00  0.00    +0.000 C 
ENDROOT
BRANCH   1   2
ATOM      2  N   UNL     1       2.761   7.047  19.564  0.00  0.00    +0.000 NA
ATOM      3  C   UNL     1       2.901   7.850  18.323  0.00  0.00    +0.000 C 
ATOM      4  C   UNL     1       1.640   8.627  17.872  0.00  0.00    +0.000 C 
ATOM      5  N   UNL     1       1.053   9.412  18.963  0.00  0.00    +0.000 N 
ATOM      6  C   UNL     1       0.968   8.732  20.273  0.00  0.00    +0.000 C 
ATOM      7  C   UNL     1       2.288   8.000  20.605  0.00  0.00    +0.000 C 
BRANCH   5   8
ATOM      8  C   UNL     1       0.382  10.613  18.732  0.00  0.00    +0.000 A 
ATOM      9  C   UNL     1       1.093  11.823  18.914  0.00  0.00    +0.000 A 
ATOM     10  C   UNL     1       0.553  13.092  18.651  0.00  0.00    +0.000 A 
ATOM     11  C   UNL     1       1.368  14.333  18.852  0.00  0.00    +0.000 C 
ATOM     12  C   UNL     1      -0.746  13.178  18.169  0.00  0.00    +0.000 A 
ATOM     13  C   UNL     1      -1.485  12.017  17.978  0.00  0.00    +0.000 A 
ATOM     14  C   UNL     1      -0.953  10.737  18.269  0.00  0.00    +0.000 A 
ATOM     15  C   UNL     1      -1.908   9.585  18.087  0.00  0.00    +0.000 C 
ENDBRANCH   5   8
ENDBRANCH   1   2
BRANCH   1  16
ATOM     16  C   UNL     1       2.505   4.591  20.009  0.00  0.00    +0.000 A 
ATOM     17  N   UNL     1       1.991   3.911  21.021  0.00  0.00    +0.000 NA
ATOM     18  N   UNL     1       2.678   2.736  21.095  0.00  0.00    +0.000 NA
ATOM     19  N   UNL     1       3.608   2.674  20.160  0.00  0.00    +0.000 NA
ATOM     20  N   UNL     1       3.601   3.876  19.533  0.00  0.00    +0.000 N 
BRANCH  20  21
ATOM     21  C   UNL     1       4.632   4.196  18.611  0.00  0.00    +0.000 A 
ATOM     22  C   UNL     1       5.866   4.714  19.023  0.00  0.00    +0.000 A 
ATOM     23  C   UNL     1       6.893   4.930  18.103  0.00  0.00    +0.000 A 
ATOM     24  C   UNL     1       6.682   4.671  16.757  0.00  0.00    +0.000 A 
ATOM     25  C   UNL     1       5.454   4.165  16.326  0.00  0.00    +0.000 A 
ATOM     26  C   UNL     1       4.438   3.909  17.250  0.00  0.00    +0.000 A 
ATOM     27  O   UNL     1       5.170   3.904  15.013  0.00  0.00    +0.000 OA
ATOM     28  C   UNL     1       6.347   3.906  14.197  0.00  0.00    +0.000 C 
ATOM     29  C   UNL     1       7.280   5.050  14.564  0.00  0.00    +0.000 C 
ATOM     30  O   UNL     1       7.731   4.926  15.915  0.00  0.00    +0.000 OA
ENDBRANCH  20  21
ENDBRANCH   1  16
BRANCH   1  32
ATOM     31  C   UNL     1       1.040   4.200  17.552  0.00  0.00    +0.000 C 
ATOM     32  C   UNL     1       1.642   5.563  17.879  0.00  0.00    +0.000 C 
ENDBRANCH   1  32
TORSDOF 5
ENDMDL
MODEL 4
REMARK VINA RESULT:      -8.0      7.662     10.854
REMARK  Name = 
REMARK  8 active torsions:
REMARK  status: ('A' for Active; 'I' for Inactive)
REMARK    1  A    between atoms: C_1  and  C_2
REMARK    2  A    between atoms: C_2  and  C_3
REMARK    3  A    between atoms: C_3  and  C_4
REMARK    4  A    between atoms: C_3  and  N_19
REMARK    5  A    between atoms: N_8  and  C_9
REMARK    6  A    between atoms: N_22  and  C_23
REMARK    7  A    between atoms: C_25  and  C_26
REMARK    8  A    between atoms: C_29  and  C_30
REMARK                            x       y       z     vdW  Elec       q    Type
REMARK                         _______ _______ _______ _____ _____    ______ ____
ROOT
ATOM      1  C   UNL     1      -6.702  11.835  20.368  0.00  0.00    +0.000 C 
ENDROOT
BRANCH   1   2
ATOM      2  N   UNL     1      -7.329  12.950  21.139  0.00  0.00    +0.000 NA
ATOM      3  C   UNL     1      -7.227  12.775  22.610  0.00  0.00    +0.000 C 
ATOM      4  C   UNL     1      -5.816  12.961  23.218  0.00  0.00    +0.000 C 
ATOM      5  N   UNL     1      -5.180  14.206  22.775  0.00  0.00    +0.000 N 
ATOM      6  C   UNL     1      -5.319  14.524  21.337  0.00  0.00    +0.000 C 
ATOM      7  C   UNL     1      -6.771  14.300  20.857  0.00  0.00    +0.000 C 
BRANCH   5   8
ATOM      8  C   UNL     1      -4.287  14.910  23.583  0.00  0.00    +0.000 A 
ATOM      9  C   UNL     1      -4.710  16.143  24.132  0.00  0.00    +0.000 A 
ATOM     10  C   UNL     1      -3.933  16.913  25.011  0.00  0.00    +0.000 A 
ATOM     11  C   UNL     1      -4.450  18.205  25.568  0.00  0.00    +0.000 C 
ATOM     12  C   UNL     1      -2.682  16.441  25.385  0.00  0.00    +0.000 A 
ATOM     13  C   UNL     1      -2.221  15.236  24.868  0.00  0.00    +0.000 A 
ATOM     14  C   UNL     1      -2.992  14.471  23.959  0.00  0.00    +0.000 A 
ATOM     15  C   UNL     1      -2.319  13.231  23.427  0.00  0.00    +0.000 C 
ENDBRANCH   5   8
ENDBRANCH   1   2
BRANCH   1  16
ATOM     16  C   UNL     1      -6.624  12.104  18.883  0.00  0.00    +0.000 A 
ATOM     17  N   UNL     1      -7.613  12.549  18.126  0.00  0.00    +0.000 NA
ATOM     18  N   UNL     1      -7.065  12.903  16.930  0.00  0.00    +0.000 NA
ATOM     19  N   UNL     1      -5.762  12.684  16.925  0.00  0.00    +0.000 NA
ATOM     20  N   UNL     1      -5.473  12.072  18.101  0.00  0.00    +0.000 N 
BRANCH  20  21
ATOM     21  C   UNL     1      -4.182  11.521  18.309  0.00  0.00    +0.000 A 
ATOM     22  C   UNL     1      -3.727  10.403  17.598  0.00  0.00    +0.000 A 
ATOM     23  C   UNL     1      -2.419   9.940  17.756  0.00  0.00    +0.000 A 
ATOM     24  C   UNL     1      -1.570  10.563  18.658  0.00  0.00    +0.000 A 
ATOM     25  C   UNL     1      -2.010  11.672  19.384  0.00  0.00    +0.000 A 
ATOM     26  C   UNL     1      -3.304  12.162  19.197  0.00  0.00    +0.000 A 
ATOM     27  O   UNL     1      -1.233  12.323  20.303  0.00  0.00    +0.000 OA
ATOM     28  C   UNL     1       0.146  11.948  20.204  0.00  0.00    +0.000 C 
ATOM     29  C   UNL     1       0.305  10.450  19.994  0.00  0.00    +0.000 C 
ATOM     30  O   UNL     1      -0.310  10.039  18.770  0.00  0.00    +0.000 OA
ENDBRANCH  20  21
ENDBRANCH   1  16
BRANCH   1  32
ATOM     31  C   UNL     1      -7.063   9.342  19.699  0.00  0.00    +0.000 C 
ATOM     32  C   UNL     1      -7.473  10.503  20.600  0.00  0.00    +0.000 C 
ENDBRANCH   1  32
TORSDOF 5
ENDMDL
MODEL 5
REMARK VINA RESULT:      -8.0      2.040      3.700
REMARK  Name = 
REMARK  8 active torsions:
REMARK  status: ('A' for Active; 'I' for Inactive)
REMARK    1  A    between atoms: C_1  and  C_2
REMARK    2  A    between atoms: C_2  and  C_3
REMARK    3  A    between atoms: C_3  and  C_4
REMARK    4  A    between atoms: C_3  and  N_19
REMARK    5  A    between atoms: N_8  and  C_9
REMARK    6  A    between atoms: N_22  and  C_23
REMARK    7  A    between atoms: C_25  and  C_26
REMARK    8  A    between atoms: C_29  and  C_30
REMARK                            x       y       z     vdW  Elec       q    Type
REMARK                         _______ _______ _______ _____ _____    ______ ____
ROOT
ATOM      1  C   UNL     1       4.563   4.460  19.130  0.00  0.00    +0.000 C 
ENDROOT
BRANCH   1   2
ATOM      2  N   UNL     1       3.738   5.139  18.088  0.00  0.00    +0.000 NA
ATOM      3  C   UNL     1       2.278   5.048  18.344  0.00  0.00    +0.000 C 
ATOM      4  C   UNL     1       1.743   5.898  19.523  0.00  0.00    +0.000 C 
ATOM      5  N   UNL     1       2.196   7.292  19.452  0.00  0.00    +0.000 N 
ATOM      6  C   UNL     1       3.617   7.490  19.095  0.00  0.00    +0.000 C 
ATOM      7  C   UNL     1       4.023   6.589  17.907  0.00  0.00    +0.000 C 
BRANCH   5   8
ATOM      8  C   UNL     1       1.423   8.346  19.939  0.00  0.00    +0.000 A 
ATOM      9  C   UNL     1       1.120   8.371  21.321  0.00  0.00    +0.000 A 
ATOM     10  C   UNL     1       0.409   9.408  21.944  0.00  0.00    +0.000 A 
ATOM     11  C   UNL     1       0.135   9.378  23.418  0.00  0.00    +0.000 C 
ATOM     12  C   UNL     1      -0.012  10.485  21.177  0.00  0.00    +0.000 A 
ATOM     13  C   UNL     1       0.259  10.503  19.813  0.00  0.00    +0.000 A 
ATOM     14  C   UNL     1       0.951   9.445  19.176  0.00  0.00    +0.000 A 
ATOM     15  C   UNL     1       1.094   9.575  17.681  0.00  0.00    +0.000 C 
ENDBRANCH   5   8
ENDBRANCH   1   2
BRANCH   1  16
ATOM     16  C   UNL     1       6.022   4.851  19.087  0.00  0.00    +0.000 A 
ATOM     17  N   UNL     1       6.729   5.309  20.106  0.00  0.00    +0.000 NA
ATOM     18  N   UNL     1       8.036   5.286  19.721  0.00  0.00    +0.000 NA
ATOM     19  N   UNL     1       8.156   4.832  18.487  0.00  0.00    +0.000 NA
ATOM     20  N   UNL     1       6.894   4.659  18.019  0.00  0.00    +0.000 N 
BRANCH  20  21
ATOM     21  C   UNL     1       6.686   4.374  16.644  0.00  0.00    +0.000 A 
ATOM     22  C   UNL     1       5.673   3.511  16.208  0.00  0.00    +0.000 A 
ATOM     23  C   UNL     1       5.432   3.324  14.845  0.00  0.00    +0.000 A 
ATOM     24  C   UNL     1       6.230   3.963  13.908  0.00  0.00    +0.000 A 
ATOM     25  C   UNL     1       7.252   4.818  14.325  0.00  0.00    +0.000 A 
ATOM     26  C   UNL     1       7.468   5.039  15.687  0.00  0.00    +0.000 A 
ATOM     27  O   UNL     1       8.088   5.466  13.456  0.00  0.00    +0.000 OA
ATOM     28  C   UNL     1       7.605   5.420  12.109  0.00  0.00    +0.000 C 
ATOM     29  C   UNL     1       7.055   4.046  11.758  0.00  0.00    +0.000 C 
ATOM     30  O   UNL     1       5.943   3.714  12.592  0.00  0.00    +0.000 OA
ENDBRANCH  20  21
ENDBRANCH   1  16
BRANCH   1  32
ATOM     31  C   UNL     1       3.856   2.192  20.203  0.00  0.00    +0.000 C 
ATOM     32  C   UNL     1       4.452   2.913  18.998  0.00  0.00    +0.000 C 
ENDBRANCH   1  32
TORSDOF 5
ENDMDL
MODEL 6
REMARK VINA RESULT:      -7.9      0.931      1.803
REMARK  Name = 
REMARK  8 active torsions:
REMARK  status: ('A' for Active; 'I' for Inactive)
REMARK    1  A    between atoms: C_1  and  C_2
REMARK    2  A    between atoms: C_2  and  C_3
REMARK    3  A    between atoms: C_3  and  C_4
REMARK    4  A    between atoms: C_3  and  N_19
REMARK    5  A    between atoms: N_8  and  C_9
REMARK    6  A    between atoms: N_22  and  C_23
REMARK    7  A    between atoms: C_25  and  C_26
REMARK    8  A    between atoms: C_29  and  C_30
REMARK                            x       y       z     vdW  Elec       q    Type
REMARK                         _______ _______ _______ _____ _____    ______ ____
ROOT
ATOM      1  C   UNL     1       1.939   5.752  19.449  0.00  0.00    +0.000 C 
ENDROOT
BRANCH   1   2
ATOM      2  N   UNL     1       2.648   7.037  19.721  0.00  0.00    +0.000 NA
ATOM      3  C   UNL     1       2.510   8.027  18.623  0.00  0.00    +0.000 C 
ATOM      4  C   UNL     1       1.111   8.670  18.463  0.00  0.00    +0.000 C 
ATOM      5  N   UNL     1       0.591   9.192  19.731  0.00  0.00    +0.000 N 
ATOM      6  C   UNL     1       0.778   8.320  20.911  0.00  0.00    +0.000 C 
ATOM      7  C   UNL     1       2.212   7.745  20.956  0.00  0.00    +0.000 C 
BRANCH   5   8
ATOM      8  C   UNL     1      -0.250  10.303  19.785  0.00  0.00    +0.000 A 
ATOM      9  C   UNL     1      -0.163  11.154  20.912  0.00  0.00    +0.000 A 
ATOM     10  C   UNL     1      -0.905  12.337  21.055  0.00  0.00    +0.000 A 
ATOM     11  C   UNL     1      -0.752  13.201  22.270  0.00  0.00    +0.000 C 
ATOM     12  C   UNL     1      -1.765  12.714  20.032  0.00  0.00    +0.000 A 
ATOM     13  C   UNL     1      -1.888  11.906  18.907  0.00  0.00    +0.000 A 
ATOM     14  C   UNL     1      -1.161  10.699  18.773  0.00  0.00    +0.000 A 
ATOM     15  C   UNL     1      -1.467   9.897  17.533  0.00  0.00    +0.000 C 
ENDBRANCH   5   8
ENDBRANCH   1   2
BRANCH   1  16
ATOM     16  C   UNL     1       2.596   4.556  20.098  0.00  0.00    +0.000 A 
ATOM     17  N   UNL     1       2.130   3.889  21.141  0.00  0.00    +0.000 NA
ATOM     18  N   UNL     1       2.866   2.747  21.239  0.00  0.00    +0.000 NA
ATOM     19  N   UNL     1       3.781   2.692  20.288  0.00  0.00    +0.000 NA
ATOM     20  N   UNL     1       3.712   3.872  19.623  0.00  0.00    +0.000 N 
BRANCH  20  21
ATOM     21  C   UNL     1       4.711   4.203  18.671  0.00  0.00    +0.000 A 
ATOM     22  C   UNL     1       5.931   4.782  19.043  0.00  0.00    +0.000 A 
ATOM     23  C   UNL     1       6.932   5.009  18.095  0.00  0.00    +0.000 A 
ATOM     24  C   UNL     1       6.705   4.702  16.763  0.00  0.00    +0.000 A 
ATOM     25  C   UNL     1       5.490   4.135  16.372  0.00  0.00    +0.000 A 
ATOM     26  C   UNL     1       4.503   3.868  17.324  0.00  0.00    +0.000 A 
ATOM     27  O   UNL     1       5.191   3.824  15.073  0.00  0.00    +0.000 OA
ATOM     28  C   UNL     1       6.351   3.847  14.234  0.00  0.00    +0.000 C 
ATOM     29  C   UNL     1       7.245   5.037  14.547  0.00  0.00    +0.000 C 
ATOM     30  O   UNL     1       7.727   4.971  15.892  0.00  0.00    +0.000 OA
ENDBRANCH  20  21
ENDBRANCH   1  16
BRANCH   1  32
ATOM     31  C   UNL     1       1.114   4.211  17.515  0.00  0.00    +0.000 C 
ATOM     32  C   UNL     1       1.829   5.497  17.917  0.00  0.00    +0.000 C 
ENDBRANCH   1  32
TORSDOF 5
ENDMDL
MODEL 7
REMARK VINA RESULT:      -7.6      3.835      8.803
REMARK  Name = 
REMARK  8 active torsions:
REMARK  status: ('A' for Active; 'I' for Inactive)
REMARK    1  A    between atoms: C_1  and  C_2
REMARK    2  A    between atoms: C_2  and  C_3
REMARK    3  A    between atoms: C_3  and  C_4
REMARK    4  A    between atoms: C_3  and  N_19
REMARK    5  A    between atoms: N_8  and  C_9
REMARK    6  A    between atoms: N_22  and  C_23
REMARK    7  A    between atoms: C_25  and  C_26
REMARK    8  A    between atoms: C_29  and  C_30
REMARK                            x       y       z     vdW  Elec       q    Type
REMARK                         _______ _______ _______ _____ _____    ______ ____
ROOT
ATOM      1  C   UNL     1       0.059   9.784  19.820  0.00  0.00    +0.000 C 
ENDROOT
BRANCH   1   2
ATOM      2  N   UNL     1       1.542   9.679  19.692  0.00  0.00    +0.000 NA
ATOM      3  C   UNL     1       2.136   8.648  20.581  0.00  0.00    +0.000 C 
ATOM      4  C   UNL     1       1.857   7.175  20.191  0.00  0.00    +0.000 C 
ATOM      5  N   UNL     1       2.152   6.910  18.778  0.00  0.00    +0.000 N 
ATOM      6  C   UNL     1       1.693   7.938  17.820  0.00  0.00    +0.000 C 
ATOM      7  C   UNL     1       2.034   9.359  18.324  0.00  0.00    +0.000 C 
BRANCH   5   8
ATOM      8  C   UNL     1       2.597   5.664  18.337  0.00  0.00    +0.000 A 
ATOM      9  C   UNL     1       1.824   4.524  18.663  0.00  0.00    +0.000 A 
ATOM     10  C   UNL     1       2.127   3.225  18.224  0.00  0.00    +0.000 A 
ATOM     11  C   UNL     1       1.255   2.064  18.595  0.00  0.00    +0.000 C 
ATOM     12  C   UNL     1       3.235   3.036  17.411  0.00  0.00    +0.000 A 
ATOM     13  C   UNL     1       4.028   4.126  17.068  0.00  0.00    +0.000 A 
ATOM     14  C   UNL     1       3.741   5.433  17.531  0.00  0.00    +0.000 A 
ATOM     15  C   UNL     1       4.741   6.490  17.139  0.00  0.00    +0.000 C 
ENDBRANCH   5   8
ENDBRANCH   1   2
BRANCH   1  16
ATOM     16  C   UNL     1      -0.552  10.803  18.886  0.00  0.00    +0.000 A 
ATOM     17  N   UNL     1      -1.654  10.636  18.174  0.00  0.00    +0.000 NA
ATOM     18  N   UNL     1      -1.997  11.861  17.685  0.00  0.00    +0.000 NA
ATOM     19  N   UNL     1      -1.130  12.781  18.070  0.00  0.00    +0.000 NA
ATOM     20  N   UNL     1      -0.144  12.125  18.732  0.00  0.00    +0.000 N 
BRANCH  20  21
ATOM     21  C   UNL     1       1.042  12.816  19.092  0.00  0.00    +0.000 A 
ATOM     22  C   UNL     1       2.045  13.110  18.159  0.00  0.00    +0.000 A 
ATOM     23  C   UNL     1       3.157  13.872  18.523  0.00  0.00    +0.000 A 
ATOM     24  C   UNL     1       3.298  14.309  19.831  0.00  0.00    +0.000 A 
ATOM     25  C   UNL     1       2.314  14.016  20.777  0.00  0.00    +0.000 A 
ATOM     26  C   UNL     1       1.180  13.289  20.407  0.00  0.00    +0.000 A 
ATOM     27  O   UNL     1       2.397  14.399  22.088  0.00  0.00    +0.000 OA
ATOM     28  C   UNL     1       3.419  15.379  22.299  0.00  0.00    +0.000 C 
ATOM     29  C   UNL     1       4.682  15.047  21.519  0.00  0.00    +0.000 C 
ATOM     30  O   UNL     1       4.424  15.035  20.113  0.00  0.00    +0.000 OA
ENDBRANCH  20  21
ENDBRANCH   1  16
BRANCH   1  32
ATOM     31  C   UNL     1      -0.674   8.943  22.176  0.00  0.00    +0.000 C 
ATOM     32  C   UNL     1      -0.345  10.134  21.282  0.00  0.00    +0.000 C 
ENDBRANCH   1  32
TORSDOF 5
ENDMDL
MODEL 8
REMARK VINA RESULT:      -7.6      6.832     10.999
REMARK  Name = 
REMARK  8 active torsions:
REMARK  status: ('A' for Active; 'I' for Inactive)
REMARK    1  A    between atoms: C_1  and  C_2
REMARK    2  A    between atoms: C_2  and  C_3
REMARK    3  A    between atoms: C_3  and  C_4
REMARK    4  A    between atoms: C_3  and  N_19
REMARK    5  A    between atoms: N_8  and  C_9
REMARK    6  A    between atoms: N_22  and  C_23
REMARK    7  A    between atoms: C_25  and  C_26
REMARK    8  A    between atoms: C_29  and  C_30
REMARK                            x       y       z     vdW  Elec       q    Type
REMARK                         _______ _______ _______ _____ _____    ______ ____
ROOT
ATOM      1  C   UNL     1       5.016  15.532  20.126  0.00  0.00    +0.000 C 
ENDROOT
BRANCH   1   2
ATOM      2  N   UNL     1       6.275  16.247  19.766  0.00  0.00    +0.000 NA
ATOM      3  C   UNL     1       7.375  16.025  20.738  0.00  0.00    +0.000 C 
ATOM      4  C   UNL     1       8.009  14.612  20.733  0.00  0.00    +0.000 C 
ATOM      5  N   UNL     1       8.383  14.178  19.383  0.00  0.00    +0.000 N 
ATOM      6  C   UNL     1       7.394  14.454  18.320  0.00  0.00    +0.000 C 
ATOM      7  C   UNL     1       6.841  15.893  18.435  0.00  0.00    +0.000 C 
BRANCH   5   8
ATOM      8  C   UNL     1       9.469  13.333  19.152  0.00  0.00    +0.000 A 
ATOM      9  C   UNL     1      10.314  13.614  18.053  0.00  0.00    +0.000 A 
ATOM     10  C   UNL     1      11.473  12.881  17.753  0.00  0.00    +0.000 A 
ATOM     11  C   UNL     1      12.333  13.244  16.580  0.00  0.00    +0.000 C 
ATOM     12  C   UNL     1      11.832  11.829  18.584  0.00  0.00    +0.000 A 
ATOM     13  C   UNL     1      11.030  11.512  19.674  0.00  0.00    +0.000 A 
ATOM     14  C   UNL     1       9.845  12.231  19.963  0.00  0.00    +0.000 A 
ATOM     15  C   UNL     1       9.043  11.713  21.130  0.00  0.00    +0.000 C 
ENDBRANCH   5   8
ENDBRANCH   1   2
BRANCH   1  16
ATOM     16  C   UNL     1       3.783  16.136  19.494  0.00  0.00    +0.000 A 
ATOM     17  N   UNL     1       3.659  17.388  19.085  0.00  0.00    +0.000 NA
ATOM     18  N   UNL     1       2.514  17.450  18.348  0.00  0.00    +0.000 NA
ATOM     19  N   UNL     1       1.923  16.270  18.295  0.00  0.00    +0.000 NA
ATOM     20  N   UNL     1       2.637  15.448  19.103  0.00  0.00    +0.000 N 
BRANCH  20  21
ATOM     21  C   UNL     1       2.133  14.159  19.420  0.00  0.00    +0.000 A 
ATOM     22  C   UNL     1       1.325  13.931  20.540  0.00  0.00    +0.000 A 
ATOM     23  C   UNL     1       0.767  12.672  20.773  0.00  0.00    +0.000 A 
ATOM     24  C   UNL     1       1.048  11.622  19.914  0.00  0.00    +0.000 A 
ATOM     25  C   UNL     1       1.861  11.828  18.797  0.00  0.00    +0.000 A 
ATOM     26  C   UNL     1       2.387  13.096  18.539  0.00  0.00    +0.000 A 
ATOM     27  O   UNL     1       2.195  10.834  17.918  0.00  0.00    +0.000 OA
ATOM     28  C   UNL     1       1.380   9.669  18.089  0.00  0.00    +0.000 C 
ATOM     29  C   UNL     1       1.164   9.347  19.560  0.00  0.00    +0.000 C 
ATOM     30  O   UNL     1       0.479  10.414  20.220  0.00  0.00    +0.000 OA
ENDBRANCH  20  21
ENDBRANCH   1  16
BRANCH   1  32
ATOM     31  C   UNL     1       4.630  14.110  22.276  0.00  0.00    +0.000 C 
ATOM     32  C   UNL     1       4.825  15.496  21.670  0.00  0.00    +0.000 C 
ENDBRANCH   1  32
TORSDOF 5
ENDMDL
MODEL 9
REMARK VINA RESULT:      -7.6      4.276      9.680
REMARK  Name = 
REMARK  8 active torsions:
REMARK  status: ('A' for Active; 'I' for Inactive)
REMARK    1  A    between atoms: C_1  and  C_2
REMARK    2  A    between atoms: C_2  and  C_3
REMARK    3  A    between atoms: C_3  and  C_4
REMARK    4  A    between atoms: C_3  and  N_19
REMARK    5  A    between atoms: N_8  and  C_9
REMARK    6  A    between atoms: N_22  and  C_23
REMARK    7  A    between atoms: C_25  and  C_26
REMARK    8  A    between atoms: C_29  and  C_30
REMARK                            x       y       z     vdW  Elec       q    Type
REMARK                         _______ _______ _______ _____ _____    ______ ____
ROOT
ATOM      1  C   UNL     1       1.334  11.355  19.695  0.00  0.00    +0.000 C 
ENDROOT
BRANCH   1   2
ATOM      2  N   UNL     1       0.387  10.244  19.383  0.00  0.00    +0.000 NA
ATOM      3  C   UNL     1       0.768   9.471  18.174  0.00  0.00    +0.000 C 
ATOM      4  C   UNL     1       2.011   8.559  18.317  0.00  0.00    +0.000 C 
ATOM      5  N   UNL     1       1.939   7.704  19.507  0.00  0.00    +0.000 N 
ATOM      6  C   UNL     1       1.464   8.361  20.744  0.00  0.00    +0.000 C 
ATOM      7  C   UNL     1       0.221   9.237  20.466  0.00  0.00    +0.000 C 
BRANCH   5   8
ATOM      8  C   UNL     1       2.519   6.437  19.544  0.00  0.00    +0.000 A 
ATOM      9  C   UNL     1       2.036   5.507  20.494  0.00  0.00    +0.000 A 
ATOM     10  C   UNL     1       2.490   4.182  20.589  0.00  0.00    +0.000 A 
ATOM     11  C   UNL     1       1.923   3.244  21.612  0.00  0.00    +0.000 C 
ATOM     12  C   UNL     1       3.456   3.741  19.695  0.00  0.00    +0.000 A 
ATOM     13  C   UNL     1       3.964   4.620  18.746  0.00  0.00    +0.000 A 
ATOM     14  C   UNL     1       3.529   5.965  18.666  0.00  0.00    +0.000 A 
ATOM     15  C   UNL     1       4.235   6.812  17.638  0.00  0.00    +0.000 C 
ENDBRANCH   5   8
ENDBRANCH   1   2
BRANCH   1  16
ATOM     16  C   UNL     1       0.690  12.495  20.449  0.00  0.00    +0.000 A 
ATOM     17  N   UNL     1       1.269  13.224  21.390  0.00  0.00    +0.000 NA
ATOM     18  N   UNL     1       0.455  14.293  21.616  0.00  0.00    +0.000 NA
ATOM     19  N   UNL     1      -0.616  14.242  20.845  0.00  0.00    +0.000 NA
ATOM     20  N   UNL     1      -0.553  13.061  20.181  0.00  0.00    +0.000 N 
BRANCH  20  21
ATOM     21  C   UNL     1      -1.670  12.619  19.424  0.00  0.00    +0.000 A 
ATOM     22  C   UNL     1      -1.546  12.183  18.099  0.00  0.00    +0.000 A 
ATOM     23  C   UNL     1      -2.646  11.666  17.411  0.00  0.00    +0.000 A 
ATOM     24  C   UNL     1      -3.887  11.620  18.027  0.00  0.00    +0.000 A 
ATOM     25  C   UNL     1      -4.032  12.060  19.345  0.00  0.00    +0.000 A 
ATOM     26  C   UNL     1      -2.925  12.540  20.048  0.00  0.00    +0.000 A 
ATOM     27  O   UNL     1      -5.229  12.062  20.007  0.00  0.00    +0.000 OA
ATOM     28  C   UNL     1      -6.221  11.285  19.327  0.00  0.00    +0.000 C 
ATOM     29  C   UNL     1      -6.180  11.516  17.824  0.00  0.00    +0.000 C 
ATOM     30  O   UNL     1      -4.919  11.117  17.281  0.00  0.00    +0.000 OA
ENDBRANCH  20  21
ENDBRANCH   1  16
BRANCH   1  32
ATOM     31  C   UNL     1       2.640  13.280  18.520  0.00  0.00    +0.000 C 
ATOM     32  C   UNL     1       1.978  11.912  18.392  0.00  0.00    +0.000 C 
ENDBRANCH   1  32
TORSDOF 5
ENDMDL
