MODEL 1
REMARK VINA RESULT:     -10.0      0.000      0.000
REMARK  Name = 
REMARK  7 active torsions:
REMARK  status: ('A' for Active; 'I' for Inactive)
REMARK    1  A    between atoms: C_2  and  C_4
REMARK    2  A    between atoms: C_2  and  C_27
REMARK    3  A    between atoms: C_4  and  N_5
REMARK    4  A    between atoms: N_5  and  C_6
REMARK    5  A    between atoms: C_12  and  C_13
REMARK    6  A    between atoms: C_13  and  C_14
REMARK    7  A    between atoms: C_19  and  N_20
REMARK                            x       y       z     vdW  Elec       q    Type
REMARK                         _______ _______ _______ _____ _____    ______ ____
ROOT
ATOM      1  C   UNL     1       0.204   9.977  18.918  0.00  0.00    +0.000 A 
ATOM      2  N   UNL     1      -0.360  10.258  20.132  0.00  0.00    +0.000 NA
ATOM      3  C   UNL     1       0.076   9.625  21.254  0.00  0.00    +0.000 A 
ATOM      4  C   UNL     1       1.043   8.635  21.295  0.00  0.00    +0.000 A 
ATOM      5  C   UNL     1       1.578   8.360  20.051  0.00  0.00    +0.000 A 
ATOM      6  O   UNL     1       2.525   7.423  19.747  0.00  0.00    +0.000 OA
ATOM      7  C   UNL     1       2.696   7.549  18.392  0.00  0.00    +0.000 A 
ATOM      8  N   UNL     1       1.943   8.473  17.826  0.00  0.00    +0.000 NA
ATOM      9  C   UNL     1       1.220   8.997  18.874  0.00  0.00    +0.000 A 
ENDROOT
BRANCH   1  10
ATOM     10  N   UNL     1      -0.269  10.583  17.751  0.00  0.00    +0.000 N 
ATOM     11  H   UNL     1       0.514  11.036  17.287  0.00  0.00    +0.000 HD
BRANCH  10  12
ATOM     12  C   UNL     1      -1.437  11.467  17.896  0.00  0.00    +0.000 C 
BRANCH  12  14
ATOM     13  F   UNL     1      -2.614  11.238  15.860  0.00  0.00    +0.000 F 
ATOM     14  C   UNL     1      -2.707  10.938  17.189  0.00  0.00    +0.000 C 
ATOM     15  F   UNL     1      -2.701   9.572  17.251  0.00  0.00    +0.000 F 
BRANCH  14  16
ATOM     16  C   UNL     1      -4.055  11.467  17.757  0.00  0.00    +0.000 C 
ATOM     17  C   UNL     1      -4.938  10.301  18.240  0.00  0.00    +0.000 C 
ATOM     18  C   UNL     1      -6.247  10.811  18.841  0.00  0.00    +0.000 C 
ATOM     19  C   UNL     1      -6.959  11.748  17.875  0.00  0.00    +0.000 C 
ATOM     20  C   UNL     1      -6.025  12.861  17.411  0.00  0.00    +0.000 C 
ATOM     21  N   UNL     1      -4.819  12.309  16.800  0.00  0.00    +0.000 NA
ATOM     22  H   UNL     1      -4.223  13.094  16.515  0.00  0.00    +0.000 HD
ENDBRANCH  14  16
ENDBRANCH  12  14
ENDBRANCH  10  12
ENDBRANCH   1  10
BRANCH   7  23
ATOM     23  C   UNL     1       3.717   6.681  17.742  0.00  0.00    +0.000 C 
BRANCH  23  24
ATOM     24  C   UNL     1       3.351   5.204  17.739  0.00  0.00    +0.000 A 
ATOM     25  C   UNL     1       1.976   4.908  17.870  0.00  0.00    +0.000 A 
ATOM     26  C   UNL     1       1.507   3.595  17.912  0.00  0.00    +0.000 A 
ATOM     27  C   UNL     1       2.402   2.541  17.829  0.00  0.00    +0.000 A 
ATOM     28  C   UNL     1       3.769   2.799  17.731  0.00  0.00    +0.000 A 
ATOM     29  C   UNL     1       4.263   4.121  17.693  0.00  0.00    +0.000 A 
BRANCH  29  30
ATOM     30  N   UNL     1       5.672   4.295  17.609  0.00  0.00    +0.000 N 
ATOM     31  C   UNL     1       6.458   4.397  16.485  0.00  0.00    +0.000 A 
ATOM     32  N   UNL     1       7.710   4.575  16.837  0.00  0.00    +0.000 NA
ATOM     33  N   UNL     1       7.708   4.587  18.204  0.00  0.00    +0.000 NA
ATOM     34  N   UNL     1       6.484   4.412  18.678  0.00  0.00    +0.000 NA
ENDBRANCH  29  30
ENDBRANCH  23  24
ENDBRANCH   7  23
TORSDOF 7
ENDMDL
MODEL 2
REMARK VINA RESULT:      -9.6      0.857      1.015
REMARK  Name = 
REMARK  7 active torsions:
REMARK  status: ('A' for Active; 'I' for Inactive)
REMARK    1  A    between atoms: C_2  and  C_4
REMARK    2  A    between atoms: C_2  and  C_27
REMARK    3  A    between atoms: C_4  and  N_5
REMARK    4  A    between atoms: N_5  and  C_6
REMARK    5  A    between atoms: C_12  and  C_13
REMARK    6  A    between atoms: C_13  and  C_14
REMARK    7  A    between atoms: C_19  and  N_20
REMARK                            x       y       z     vdW  Elec       q    Type
REMARK                         _______ _______ _______ _____ _____    ______ ____
ROOT
ATOM      1  C   UNL     1       0.164  10.126  19.056  0.00  0.00    +0.000 A 
ATOM      2  N   UNL     1      -0.383  10.394  20.281  0.00  0.00    +0.000 NA
ATOM      3  C   UNL     1       0.042   9.722  21.383  0.00  0.00    +0.000 A 
ATOM      4  C   UNL     1       0.978   8.703  21.394  0.00  0.00    +0.000 A 
ATOM      5  C   UNL     1       1.496   8.442  20.139  0.00  0.00    +0.000 A 
ATOM      6  O   UNL     1       2.413   7.485  19.806  0.00  0.00    +0.000 OA
ATOM      7  C   UNL     1       2.579   7.638  18.454  0.00  0.00    +0.000 A 
ATOM      8  N   UNL     1       1.850   8.597  17.916  0.00  0.00    +0.000 NA
ATOM      9  C   UNL     1       1.149   9.117  18.981  0.00  0.00    +0.000 A 
ENDROOT
BRANCH   1  10
ATOM     10  N   UNL     1      -0.299  10.773  17.907  0.00  0.00    +0.000 N 
ATOM     11  H   UNL     1       0.485  11.255  17.476  0.00  0.00    +0.000 HD
BRANCH  10  12
ATOM     12  C   UNL     1      -1.482  11.634  18.068  0.00  0.00    +0.000 C 
BRANCH  12  14
ATOM     13  F   UNL     1      -2.666  11.275  16.057  0.00  0.00    +0.000 F 
ATOM     14  C   UNL     1      -2.757  11.067  17.404  0.00  0.00    +0.000 C 
ATOM     15  F   UNL     1      -2.762   9.709  17.559  0.00  0.00    +0.000 F 
BRANCH  14  16
ATOM     16  C   UNL     1      -4.100  11.644  17.936  0.00  0.00    +0.000 C 
ATOM     17  C   UNL     1      -3.945  12.134  19.388  0.00  0.00    +0.000 C 
ATOM     18  C   UNL     1      -5.246  12.746  19.907  0.00  0.00    +0.000 C 
ATOM     19  C   UNL     1      -6.412  11.784  19.715  0.00  0.00    +0.000 C 
ATOM     20  C   UNL     1      -6.493  11.313  18.267  0.00  0.00    +0.000 C 
ATOM     21  N   UNL     1      -5.238  10.693  17.848  0.00  0.00    +0.000 NA
ATOM     22  H   UNL     1      -5.341  10.404  16.869  0.00  0.00    +0.000 HD
ENDBRANCH  14  16
ENDBRANCH  12  14
ENDBRANCH  10  12
ENDBRANCH   1  10
BRANCH   7  23
ATOM     23  C   UNL     1       3.569   6.755  17.776  0.00  0.00    +0.000 C 
BRANCH  23  24
ATOM     24  C   UNL     1       3.297   5.271  17.968  0.00  0.00    +0.000 A 
ATOM     25  C   UNL     1       1.949   4.867  17.832  0.00  0.00    +0.000 A 
ATOM     26  C   UNL     1       1.558   3.540  18.013  0.00  0.00    +0.000 A 
ATOM     27  C   UNL     1       2.502   2.581  18.339  0.00  0.00    +0.000 A 
ATOM     28  C   UNL     1       3.836   2.953  18.512  0.00  0.00    +0.000 A 
ATOM     29  C   UNL     1       4.250   4.292  18.339  0.00  0.00    +0.000 A 
BRANCH  29  30
ATOM     30  N   UNL     1       5.625   4.587  18.551  0.00  0.00    +0.000 N 
ATOM     31  C   UNL     1       6.675   4.463  17.671  0.00  0.00    +0.000 A 
ATOM     32  N   UNL     1       7.783   4.865  18.247  0.00  0.00    +0.000 NA
ATOM     33  N   UNL     1       7.423   5.250  19.508  0.00  0.00    +0.000 NA
ATOM     34  N   UNL     1       6.124   5.079  19.703  0.00  0.00    +0.000 NA
ENDBRANCH  29  30
ENDBRANCH  23  24
ENDBRANCH   7  23
TORSDOF 7
ENDMDL
MODEL 3
REMARK VINA RESULT:      -9.3      4.193      9.397
REMARK  Name = 
REMARK  7 active torsions:
REMARK  status: ('A' for Active; 'I' for Inactive)
REMARK    1  A    between atoms: C_2  and  C_4
REMARK    2  A    between atoms: C_2  and  C_27
REMARK    3  A    between atoms: C_4  and  N_5
REMARK    4  A    between atoms: N_5  and  C_6
REMARK    5  A    between atoms: C_12  and  C_13
REMARK    6  A    between atoms: C_13  and  C_14
REMARK    7  A    between atoms: C_19  and  N_20
REMARK                            x       y       z     vdW  Elec       q    Type
REMARK                         _______ _______ _______ _____ _____    ______ ____
ROOT
ATOM      1  C   UNL     1       3.413   3.016  18.550  0.00  0.00    +0.000 A 
ATOM      2  N   UNL     1       2.719   1.865  18.299  0.00  0.00    +0.000 NA
ATOM      3  C   UNL     1       1.420   1.750  18.685  0.00  0.00    +0.000 A 
ATOM      4  C   UNL     1       0.702   2.701  19.389  0.00  0.00    +0.000 A 
ATOM      5  C   UNL     1       1.437   3.843  19.644  0.00  0.00    +0.000 A 
ATOM      6  O   UNL     1       1.032   4.950  20.336  0.00  0.00    +0.000 OA
ATOM      7  C   UNL     1       2.125   5.779  20.308  0.00  0.00    +0.000 A 
ATOM      8  N   UNL     1       3.169   5.290  19.667  0.00  0.00    +0.000 NA
ATOM      9  C   UNL     1       2.745   4.051  19.241  0.00  0.00    +0.000 A 
ENDROOT
BRANCH   1  10
ATOM     10  N   UNL     1       4.763   3.129  18.204  0.00  0.00    +0.000 N 
ATOM     11  H   UNL     1       5.137   3.963  18.649  0.00  0.00    +0.000 HD
BRANCH  10  12
ATOM     12  C   UNL     1       5.082   3.053  16.769  0.00  0.00    +0.000 C 
BRANCH  12  14
ATOM     13  F   UNL     1       6.833   3.927  15.445  0.00  0.00    +0.000 F 
ATOM     14  C   UNL     1       5.780   4.320  16.221  0.00  0.00    +0.000 C 
ATOM     15  F   UNL     1       4.921   4.954  15.367  0.00  0.00    +0.000 F 
BRANCH  14  16
ATOM     16  C   UNL     1       6.267   5.332  17.297  0.00  0.00    +0.000 C 
ATOM     17  C   UNL     1       6.952   6.543  16.637  0.00  0.00    +0.000 C 
ATOM     18  C   UNL     1       7.395   7.566  17.682  0.00  0.00    +0.000 C 
ATOM     19  C   UNL     1       8.243   6.906  18.761  0.00  0.00    +0.000 C 
ATOM     20  C   UNL     1       7.524   5.699  19.354  0.00  0.00    +0.000 C 
ATOM     21  N   UNL     1       7.175   4.737  18.312  0.00  0.00    +0.000 NA
ATOM     22  H   UNL     1       6.687   3.952  18.759  0.00  0.00    +0.000 HD
ENDBRANCH  14  16
ENDBRANCH  12  14
ENDBRANCH  10  12
ENDBRANCH   1  10
BRANCH   7  23
ATOM     23  C   UNL     1       1.992   7.116  20.951  0.00  0.00    +0.000 C 
BRANCH  23  24
ATOM     24  C   UNL     1       1.672   8.236  19.972  0.00  0.00    +0.000 A 
ATOM     25  C   UNL     1       2.127   8.047  18.647  0.00  0.00    +0.000 A 
ATOM     26  C   UNL     1       1.927   9.009  17.658  0.00  0.00    +0.000 A 
ATOM     27  C   UNL     1       1.272  10.190  17.966  0.00  0.00    +0.000 A 
ATOM     28  C   UNL     1       0.840  10.422  19.272  0.00  0.00    +0.000 A 
ATOM     29  C   UNL     1       1.038   9.461  20.289  0.00  0.00    +0.000 A 
BRANCH  29  30
ATOM     30  N   UNL     1       0.581   9.785  21.596  0.00  0.00    +0.000 N 
ATOM     31  C   UNL     1      -0.430  10.643  21.964  0.00  0.00    +0.000 A 
ATOM     32  N   UNL     1      -0.555  10.643  23.270  0.00  0.00    +0.000 NA
ATOM     33  N   UNL     1       0.391   9.770  23.729  0.00  0.00    +0.000 NA
ATOM     34  N   UNL     1       1.085   9.252  22.727  0.00  0.00    +0.000 NA
ENDBRANCH  29  30
ENDBRANCH  23  24
ENDBRANCH   7  23
TORSDOF 7
ENDMDL
MODEL 4
REMARK VINA RESULT:      -9.2      4.114      9.573
REMARK  Name = 
REMARK  7 active torsions:
REMARK  status: ('A' for Active; 'I' for Inactive)
REMARK    1  A    between atoms: C_2  and  C_4
REMARK    2  A    between atoms: C_2  and  C_27
REMARK    3  A    between atoms: C_4  and  N_5
REMARK    4  A    between atoms: N_5  and  C_6
REMARK    5  A    between atoms: C_12  and  C_13
REMARK    6  A    between atoms: C_13  and  C_14
REMARK    7  A    between atoms: C_19  and  N_20
REMARK                            x       y       z     vdW  Elec       q    Type
REMARK                         _______ _______ _______ _____ _____    ______ ____
ROOT
ATOM      1  C   UNL     1       4.283   3.577  18.655  0.00  0.00    +0.000 A 
ATOM      2  N   UNL     1       4.006   2.264  18.394  0.00  0.00    +0.000 NA
ATOM      3  C   UNL     1       2.795   1.741  18.722  0.00  0.00    +0.000 A 
ATOM      4  C   UNL     1       1.777   2.414  19.377  0.00  0.00    +0.000 A 
ATOM      5  C   UNL     1       2.096   3.732  19.644  0.00  0.00    +0.000 A 
ATOM      6  O   UNL     1       1.327   4.653  20.298  0.00  0.00    +0.000 OA
ATOM      7  C   UNL     1       2.097   5.787  20.304  0.00  0.00    +0.000 A 
ATOM      8  N   UNL     1       3.272   5.657  19.720  0.00  0.00    +0.000 NA
ATOM      9  C   UNL     1       3.287   4.346  19.297  0.00  0.00    +0.000 A 
ENDROOT
BRANCH   1  10
ATOM     10  N   UNL     1       5.541   4.115  18.369  0.00  0.00    +0.000 N 
ATOM     11  H   UNL     1       5.560   5.076  18.699  0.00  0.00    +0.000 HD
BRANCH  10  12
ATOM     12  C   UNL     1       6.014   3.977  16.981  0.00  0.00    +0.000 C 
BRANCH  12  14
ATOM     13  F   UNL     1       4.720   5.866  16.401  0.00  0.00    +0.000 F 
ATOM     14  C   UNL     1       5.935   5.288  16.166  0.00  0.00    +0.000 C 
ATOM     15  F   UNL     1       6.854   6.168  16.666  0.00  0.00    +0.000 F 
BRANCH  14  16
ATOM     16  C   UNL     1       6.158   5.135  14.634  0.00  0.00    +0.000 C 
ATOM     17  C   UNL     1       5.695   3.748  14.152  0.00  0.00    +0.000 C 
ATOM     18  C   UNL     1       5.866   3.602  12.640  0.00  0.00    +0.000 C 
ATOM     19  C   UNL     1       7.290   3.944  12.220  0.00  0.00    +0.000 C 
ATOM     20  C   UNL     1       7.698   5.313  12.753  0.00  0.00    +0.000 C 
ATOM     21  N   UNL     1       7.561   5.371  14.206  0.00  0.00    +0.000 NA
ATOM     22  H   UNL     1       7.838   6.310  14.511  0.00  0.00    +0.000 HD
ENDBRANCH  14  16
ENDBRANCH  12  14
ENDBRANCH  10  12
ENDBRANCH   1  10
BRANCH   7  23
ATOM     23  C   UNL     1       1.513   7.013  20.917  0.00  0.00    +0.000 C 
BRANCH  23  24
ATOM     24  C   UNL     1       1.509   8.218  19.988  0.00  0.00    +0.000 A 
ATOM     25  C   UNL     1       2.067   8.012  18.706  0.00  0.00    +0.000 A 
ATOM     26  C   UNL     1       2.153   9.040  17.767  0.00  0.00    +0.000 A 
ATOM     27  C   UNL     1       1.687  10.306  18.086  0.00  0.00    +0.000 A 
ATOM     28  C   UNL     1       1.160  10.550  19.355  0.00  0.00    +0.000 A 
ATOM     29  C   UNL     1       1.070   9.523  20.320  0.00  0.00    +0.000 A 
BRANCH  29  30
ATOM     30  N   UNL     1       0.535   9.862  21.593  0.00  0.00    +0.000 N 
ATOM     31  C   UNL     1      -0.548  10.659  21.883  0.00  0.00    +0.000 A 
ATOM     32  N   UNL     1      -0.730  10.701  23.182  0.00  0.00    +0.000 NA
ATOM     33  N   UNL     1       0.253   9.914  23.715  0.00  0.00    +0.000 NA
ATOM     34  N   UNL     1       1.025   9.410  22.764  0.00  0.00    +0.000 NA
ENDBRANCH  29  30
ENDBRANCH  23  24
ENDBRANCH   7  23
TORSDOF 7
ENDMDL
MODEL 5
REMARK VINA RESULT:      -9.1      4.510      9.471
REMARK  Name = 
REMARK  7 active torsions:
REMARK  status: ('A' for Active; 'I' for Inactive)
REMARK    1  A    between atoms: C_2  and  C_4
REMARK    2  A    between atoms: C_2  and  C_27
REMARK    3  A    between atoms: C_4  and  N_5
REMARK    4  A    between atoms: N_5  and  C_6
REMARK    5  A    between atoms: C_12  and  C_13
REMARK    6  A    between atoms: C_13  and  C_14
REMARK    7  A    between atoms: C_19  and  N_20
REMARK                            x       y       z     vdW  Elec       q    Type
REMARK                         _______ _______ _______ _____ _____    ______ ____
ROOT
ATOM      1  C   UNL     1       4.436   3.661  18.874  0.00  0.00    +0.000 A 
ATOM      2  N   UNL     1       4.096   2.559  18.139  0.00  0.00    +0.000 NA
ATOM      3  C   UNL     1       2.802   2.348  17.779  0.00  0.00    +0.000 A 
ATOM      4  C   UNL     1       1.726   3.140  18.139  0.00  0.00    +0.000 A 
ATOM      5  C   UNL     1       2.100   4.234  18.898  0.00  0.00    +0.000 A 
ATOM      6  O   UNL     1       1.282   5.188  19.433  0.00  0.00    +0.000 OA
ATOM      7  C   UNL     1       2.139   6.032  20.091  0.00  0.00    +0.000 A 
ATOM      8  N   UNL     1       3.411   5.690  20.018  0.00  0.00    +0.000 NA
ATOM      9  C   UNL     1       3.401   4.540  19.261  0.00  0.00    +0.000 A 
ENDROOT
BRANCH   1  10
ATOM     10  N   UNL     1       5.754   3.864  19.294  0.00  0.00    +0.000 N 
ATOM     11  H   UNL     1       5.849   3.493  20.235  0.00  0.00    +0.000 HD
BRANCH  10  12
ATOM     12  C   UNL     1       6.282   5.232  19.162  0.00  0.00    +0.000 C 
BRANCH  12  14
ATOM     13  F   UNL     1       8.049   6.553  18.319  0.00  0.00    +0.000 F 
ATOM     14  C   UNL     1       7.412   5.362  18.114  0.00  0.00    +0.000 C 
ATOM     15  F   UNL     1       8.352   4.403  18.367  0.00  0.00    +0.000 F 
BRANCH  14  16
ATOM     16  C   UNL     1       6.961   5.255  16.630  0.00  0.00    +0.000 C 
ATOM     17  C   UNL     1       5.717   6.126  16.373  0.00  0.00    +0.000 C 
ATOM     18  C   UNL     1       5.291   6.065  14.907  0.00  0.00    +0.000 C 
ATOM     19  C   UNL     1       5.121   4.621  14.452  0.00  0.00    +0.000 C 
ATOM     20  C   UNL     1       6.372   3.805  14.760  0.00  0.00    +0.000 C 
ATOM     21  N   UNL     1       6.695   3.862  16.183  0.00  0.00    +0.000 NA
ATOM     22  H   UNL     1       7.545   3.308  16.336  0.00  0.00    +0.000 HD
ENDBRANCH  14  16
ENDBRANCH  12  14
ENDBRANCH  10  12
ENDBRANCH   1  10
BRANCH   7  23
ATOM     23  C   UNL     1       1.552   7.229  20.757  0.00  0.00    +0.000 C 
BRANCH  23  24
ATOM     24  C   UNL     1       1.472   8.452  19.857  0.00  0.00    +0.000 A 
ATOM     25  C   UNL     1       2.110   8.338  18.601  0.00  0.00    +0.000 A 
ATOM     26  C   UNL     1       2.138   9.396  17.692  0.00  0.00    +0.000 A 
ATOM     27  C   UNL     1       1.533  10.600  18.016  0.00  0.00    +0.000 A 
ATOM     28  C   UNL     1       0.924  10.756  19.261  0.00  0.00    +0.000 A 
ATOM     29  C   UNL     1       0.890   9.698  20.196  0.00  0.00    +0.000 A 
BRANCH  29  30
ATOM     30  N   UNL     1       0.264   9.947  21.448  0.00  0.00    +0.000 N 
ATOM     31  C   UNL     1      -0.406   9.064  22.263  0.00  0.00    +0.000 A 
ATOM     32  N   UNL     1      -0.816   9.685  23.345  0.00  0.00    +0.000 NA
ATOM     33  N   UNL     1      -0.394  10.978  23.207  0.00  0.00    +0.000 NA
ATOM     34  N   UNL     1       0.252  11.147  22.063  0.00  0.00    +0.000 NA
ENDBRANCH  29  30
ENDBRANCH  23  24
ENDBRANCH   7  23
TORSDOF 7
ENDMDL
MODEL 6
REMARK VINA RESULT:      -9.1      3.239      4.466
REMARK  Name = 
REMARK  7 active torsions:
REMARK  status: ('A' for Active; 'I' for Inactive)
REMARK    1  A    between atoms: C_2  and  C_4
REMARK    2  A    between atoms: C_2  and  C_27
REMARK    3  A    between atoms: C_4  and  N_5
REMARK    4  A    between atoms: N_5  and  C_6
REMARK    5  A    between atoms: C_12  and  C_13
REMARK    6  A    between atoms: C_13  and  C_14
REMARK    7  A    between atoms: C_19  and  N_20
REMARK                            x       y       z     vdW  Elec       q    Type
REMARK                         _______ _______ _______ _____ _____    ______ ____
ROOT
ATOM      1  C   UNL     1       0.494  10.307  19.365  0.00  0.00    +0.000 A 
ATOM      2  N   UNL     1      -0.182  10.412  20.549  0.00  0.00    +0.000 NA
ATOM      3  C   UNL     1      -0.004   9.482  21.525  0.00  0.00    +0.000 A 
ATOM      4  C   UNL     1       0.787   8.350  21.424  0.00  0.00    +0.000 A 
ATOM      5  C   UNL     1       1.440   8.263  20.208  0.00  0.00    +0.000 A 
ATOM      6  O   UNL     1       2.268   7.262  19.784  0.00  0.00    +0.000 OA
ATOM      7  C   UNL     1       2.640   7.649  18.522  0.00  0.00    +0.000 A 
ATOM      8  N   UNL     1       2.119   8.793  18.122  0.00  0.00    +0.000 NA
ATOM      9  C   UNL     1       1.346   9.195  19.189  0.00  0.00    +0.000 A 
ENDROOT
BRANCH   1  10
ATOM     10  N   UNL     1       0.282  11.228  18.335  0.00  0.00    +0.000 N 
ATOM     11  H   UNL     1       0.791  10.911  17.515  0.00  0.00    +0.000 HD
BRANCH  10  12
ATOM     12  C   UNL     1       0.536  12.642  18.655  0.00  0.00    +0.000 C 
BRANCH  12  14
ATOM     13  F   UNL     1       2.259  12.576  20.271  0.00  0.00    +0.000 F 
ATOM     14  C   UNL     1       2.017  12.949  18.979  0.00  0.00    +0.000 C 
ATOM     15  F   UNL     1       2.806  12.135  18.216  0.00  0.00    +0.000 F 
BRANCH  14  16
ATOM     16  C   UNL     1       2.454  14.426  18.767  0.00  0.00    +0.000 C 
ATOM     17  C   UNL     1       1.234  15.365  18.797  0.00  0.00    +0.000 C 
ATOM     18  C   UNL     1       1.656  16.825  18.635  0.00  0.00    +0.000 C 
ATOM     19  C   UNL     1       2.526  17.005  17.397  0.00  0.00    +0.000 C 
ATOM     20  C   UNL     1       3.697  16.028  17.413  0.00  0.00    +0.000 C 
ATOM     21  N   UNL     1       3.226  14.649  17.517  0.00  0.00    +0.000 NA
ATOM     22  H   UNL     1       4.049  14.036  17.533  0.00  0.00    +0.000 HD
ENDBRANCH  14  16
ENDBRANCH  12  14
ENDBRANCH  10  12
ENDBRANCH   1  10
BRANCH   7  23
ATOM     23  C   UNL     1       3.597   6.776  17.788  0.00  0.00    +0.000 C 
BRANCH  23  24
ATOM     24  C   UNL     1       3.319   5.289  17.952  0.00  0.00    +0.000 A 
ATOM     25  C   UNL     1       1.972   4.892  17.800  0.00  0.00    +0.000 A 
ATOM     26  C   UNL     1       1.575   3.564  17.956  0.00  0.00    +0.000 A 
ATOM     27  C   UNL     1       2.514   2.596  18.272  0.00  0.00    +0.000 A 
ATOM     28  C   UNL     1       3.848   2.960  18.461  0.00  0.00    +0.000 A 
ATOM     29  C   UNL     1       4.267   4.301  18.313  0.00  0.00    +0.000 A 
BRANCH  29  30
ATOM     30  N   UNL     1       5.641   4.588  18.540  0.00  0.00    +0.000 N 
ATOM     31  C   UNL     1       6.696   4.481  17.663  0.00  0.00    +0.000 A 
ATOM     32  N   UNL     1       7.802   4.867  18.255  0.00  0.00    +0.000 NA
ATOM     33  N   UNL     1       7.435   5.225  19.522  0.00  0.00    +0.000 NA
ATOM     34  N   UNL     1       6.135   5.053  19.705  0.00  0.00    +0.000 NA
ENDBRANCH  29  30
ENDBRANCH  23  24
ENDBRANCH   7  23
TORSDOF 7
ENDMDL
MODEL 7
REMARK VINA RESULT:      -8.9      2.409      2.957
REMARK  Name = 
REMARK  7 active torsions:
REMARK  status: ('A' for Active; 'I' for Inactive)
REMARK    1  A    between atoms: C_2  and  C_4
REMARK    2  A    between atoms: C_2  and  C_27
REMARK    3  A    between atoms: C_4  and  N_5
REMARK    4  A    between atoms: N_5  and  C_6
REMARK    5  A    between atoms: C_12  and  C_13
REMARK    6  A    between atoms: C_13  and  C_14
REMARK    7  A    between atoms: C_19  and  N_20
REMARK                            x       y       z     vdW  Elec       q    Type
REMARK                         _______ _______ _______ _____ _____    ______ ____
ROOT
ATOM      1  C   UNL     1       0.372  10.035  19.271  0.00  0.00    +0.000 A 
ATOM      2  N   UNL     1      -0.230  10.182  20.490  0.00  0.00    +0.000 NA
ATOM      3  C   UNL     1       0.101   9.360  21.521  0.00  0.00    +0.000 A 
ATOM      4  C   UNL     1       0.987   8.299  21.453  0.00  0.00    +0.000 A 
ATOM      5  C   UNL     1       1.562   8.165  20.204  0.00  0.00    +0.000 A 
ATOM      6  O   UNL     1       2.451   7.208  19.801  0.00  0.00    +0.000 OA
ATOM      7  C   UNL     1       2.700   7.515  18.488  0.00  0.00    +0.000 A 
ATOM      8  N   UNL     1       2.048   8.569  18.037  0.00  0.00    +0.000 NA
ATOM      9  C   UNL     1       1.313   8.992  19.122  0.00  0.00    +0.000 A 
ENDROOT
BRANCH   1  10
ATOM     10  N   UNL     1       0.006  10.840  18.189  0.00  0.00    +0.000 N 
ATOM     11  H   UNL     1       0.853  11.204  17.761  0.00  0.00    +0.000 HD
BRANCH  10  12
ATOM     12  C   UNL     1      -0.995  11.886  18.457  0.00  0.00    +0.000 C 
BRANCH  12  14
ATOM     13  F   UNL     1       0.953  13.065  19.086  0.00  0.00    +0.000 F 
ATOM     14  C   UNL     1      -0.378  13.250  18.844  0.00  0.00    +0.000 C 
ATOM     15  F   UNL     1      -0.435  14.077  17.757  0.00  0.00    +0.000 F 
BRANCH  14  16
ATOM     16  C   UNL     1      -1.040  13.960  20.059  0.00  0.00    +0.000 C 
ATOM     17  C   UNL     1      -0.288  13.627  21.361  0.00  0.00    +0.000 C 
ATOM     18  C   UNL     1      -0.902  14.356  22.557  0.00  0.00    +0.000 C 
ATOM     19  C   UNL     1      -2.400  14.094  22.640  0.00  0.00    +0.000 C 
ATOM     20  C   UNL     1      -3.081  14.413  21.314  0.00  0.00    +0.000 C 
ATOM     21  N   UNL     1      -2.484  13.648  20.223  0.00  0.00    +0.000 NA
ATOM     22  H   UNL     1      -2.969  13.906  19.356  0.00  0.00    +0.000 HD
ENDBRANCH  14  16
ENDBRANCH  12  14
ENDBRANCH  10  12
ENDBRANCH   1  10
BRANCH   7  23
ATOM     23  C   UNL     1       3.685   6.670  17.757  0.00  0.00    +0.000 C 
BRANCH  23  24
ATOM     24  C   UNL     1       3.332   5.190  17.746  0.00  0.00    +0.000 A 
ATOM     25  C   UNL     1       1.958   4.882  17.871  0.00  0.00    +0.000 A 
ATOM     26  C   UNL     1       1.500   3.565  17.906  0.00  0.00    +0.000 A 
ATOM     27  C   UNL     1       2.404   2.518  17.820  0.00  0.00    +0.000 A 
ATOM     28  C   UNL     1       3.770   2.788  17.727  0.00  0.00    +0.000 A 
ATOM     29  C   UNL     1       4.252   4.115  17.697  0.00  0.00    +0.000 A 
BRANCH  29  30
ATOM     30  N   UNL     1       5.660   4.301  17.618  0.00  0.00    +0.000 N 
ATOM     31  C   UNL     1       6.447   4.430  16.497  0.00  0.00    +0.000 A 
ATOM     32  N   UNL     1       7.697   4.611  16.853  0.00  0.00    +0.000 NA
ATOM     33  N   UNL     1       7.694   4.598  18.221  0.00  0.00    +0.000 NA
ATOM     34  N   UNL     1       6.470   4.405  18.690  0.00  0.00    +0.000 NA
ENDBRANCH  29  30
ENDBRANCH  23  24
ENDBRANCH   7  23
TORSDOF 7
ENDMDL
MODEL 8
REMARK VINA RESULT:      -8.9      2.181      2.858
REMARK  Name = 
REMARK  7 active torsions:
REMARK  status: ('A' for Active; 'I' for Inactive)
REMARK    1  A    between atoms: C_2  and  C_4
REMARK    2  A    between atoms: C_2  and  C_27
REMARK    3  A    between atoms: C_4  and  N_5
REMARK    4  A    between atoms: N_5  and  C_6
REMARK    5  A    between atoms: C_12  and  C_13
REMARK    6  A    between atoms: C_13  and  C_14
REMARK    7  A    between atoms: C_19  and  N_20
REMARK                            x       y       z     vdW  Elec       q    Type
REMARK                         _______ _______ _______ _____ _____    ______ ____
ROOT
ATOM      1  C   UNL     1       0.860   9.879  19.500  0.00  0.00    +0.000 A 
ATOM      2  N   UNL     1       0.473  10.055  20.800  0.00  0.00    +0.000 NA
ATOM      3  C   UNL     1       0.851   9.164  21.755  0.00  0.00    +0.000 A 
ATOM      4  C   UNL     1       1.577   8.007  21.534  0.00  0.00    +0.000 A 
ATOM      5  C   UNL     1       1.935   7.847  20.208  0.00  0.00    +0.000 A 
ATOM      6  O   UNL     1       2.626   6.805  19.658  0.00  0.00    +0.000 OA
ATOM      7  C   UNL     1       2.709   7.124  18.327  0.00  0.00    +0.000 A 
ATOM      8  N   UNL     1       2.132   8.264  17.999  0.00  0.00    +0.000 NA
ATOM      9  C   UNL     1       1.629   8.735  19.191  0.00  0.00    +0.000 A 
ENDROOT
BRANCH   1  10
ATOM     10  N   UNL     1       0.437  10.759  18.500  0.00  0.00    +0.000 N 
ATOM     11  H   UNL     1       0.812  11.680  18.707  0.00  0.00    +0.000 HD
BRANCH  10  12
ATOM     12  C   UNL     1      -1.007  10.781  18.211  0.00  0.00    +0.000 C 
BRANCH  12  14
ATOM     13  F   UNL     1      -0.911  13.028  17.487  0.00  0.00    +0.000 F 
ATOM     14  C   UNL     1      -1.634  12.192  18.290  0.00  0.00    +0.000 C 
ATOM     15  F   UNL     1      -2.880  12.146  17.732  0.00  0.00    +0.000 F 
BRANCH  14  16
ATOM     16  C   UNL     1      -1.739  12.796  19.720  0.00  0.00    +0.000 C 
ATOM     17  C   UNL     1      -0.539  13.715  20.013  0.00  0.00    +0.000 C 
ATOM     18  C   UNL     1      -0.654  14.350  21.399  0.00  0.00    +0.000 C 
ATOM     19  C   UNL     1      -0.877  13.287  22.466  0.00  0.00    +0.000 C 
ATOM     20  C   UNL     1      -2.058  12.394  22.103  0.00  0.00    +0.000 C 
ATOM     21  N   UNL     1      -1.863  11.777  20.794  0.00  0.00    +0.000 NA
ATOM     22  H   UNL     1      -2.685  11.196  20.594  0.00  0.00    +0.000 HD
ENDBRANCH  14  16
ENDBRANCH  12  14
ENDBRANCH  10  12
ENDBRANCH   1  10
BRANCH   7  23
ATOM     23  C   UNL     1       3.458   6.192  17.439  0.00  0.00    +0.000 C 
BRANCH  23  24
ATOM     24  C   UNL     1       3.337   4.731  17.845  0.00  0.00    +0.000 A 
ATOM     25  C   UNL     1       2.061   4.147  17.677  0.00  0.00    +0.000 A 
ATOM     26  C   UNL     1       1.805   2.824  18.038  0.00  0.00    +0.000 A 
ATOM     27  C   UNL     1       2.817   2.049  18.582  0.00  0.00    +0.000 A 
ATOM     28  C   UNL     1       4.079   2.606  18.790  0.00  0.00    +0.000 A 
ATOM     29  C   UNL     1       4.355   3.945  18.437  0.00  0.00    +0.000 A 
BRANCH  29  30
ATOM     30  N   UNL     1       5.663   4.437  18.699  0.00  0.00    +0.000 N 
ATOM     31  C   UNL     1       6.762   4.438  17.870  0.00  0.00    +0.000 A 
ATOM     32  N   UNL     1       7.774   5.008  18.480  0.00  0.00    +0.000 NA
ATOM     33  N   UNL     1       7.303   5.373  19.711  0.00  0.00    +0.000 NA
ATOM     34  N   UNL     1       6.032   5.026  19.853  0.00  0.00    +0.000 NA
ENDBRANCH  29  30
ENDBRANCH  23  24
ENDBRANCH   7  23
TORSDOF 7
ENDMDL
MODEL 9
REMARK VINA RESULT:      -8.9      1.767      2.225
REMARK  Name = 
REMARK  7 active torsions:
REMARK  status: ('A' for Active; 'I' for Inactive)
REMARK    1  A    between atoms: C_2  and  C_4
REMARK    2  A    between atoms: C_2  and  C_27
REMARK    3  A    between atoms: C_4  and  N_5
REMARK    4  A    between atoms: N_5  and  C_6
REMARK    5  A    between atoms: C_12  and  C_13
REMARK    6  A    between atoms: C_13  and  C_14
REMARK    7  A    between atoms: C_19  and  N_20
REMARK                            x       y       z     vdW  Elec       q    Type
REMARK                         _______ _______ _______ _____ _____    ______ ____
ROOT
ATOM      1  C   UNL     1       1.043  10.040  20.052  0.00  0.00    +0.000 A 
ATOM      2  N   UNL     1       0.461  10.020  21.289  0.00  0.00    +0.000 NA
ATOM      3  C   UNL     1       0.522   8.900  22.057  0.00  0.00    +0.000 A 
ATOM      4  C   UNL     1       1.092   7.695  21.681  0.00  0.00    +0.000 A 
ATOM      5  C   UNL     1       1.653   7.743  20.418  0.00  0.00    +0.000 A 
ATOM      6  O   UNL     1       2.265   6.722  19.747  0.00  0.00    +0.000 OA
ATOM      7  C   UNL     1       2.633   7.282  18.551  0.00  0.00    +0.000 A 
ATOM      8  N   UNL     1       2.304   8.553  18.415  0.00  0.00    +0.000 NA
ATOM      9  C   UNL     1       1.673   8.859  19.600  0.00  0.00    +0.000 A 
ENDROOT
BRANCH   1  10
ATOM     10  N   UNL     1       0.946  11.168  19.231  0.00  0.00    +0.000 N 
ATOM     11  H   UNL     1       1.886  11.488  19.017  0.00  0.00    +0.000 HD
BRANCH  10  12
ATOM     12  C   UNL     1       0.066  12.249  19.703  0.00  0.00    +0.000 C 
BRANCH  12  14
ATOM     13  F   UNL     1      -1.339  14.048  19.092  0.00  0.00    +0.000 F 
ATOM     14  C   UNL     1      -0.728  12.942  18.572  0.00  0.00    +0.000 C 
ATOM     15  F   UNL     1       0.159  13.422  17.649  0.00  0.00    +0.000 F 
BRANCH  14  16
ATOM     16  C   UNL     1      -1.779  12.050  17.851  0.00  0.00    +0.000 C 
ATOM     17  C   UNL     1      -2.989  11.786  18.766  0.00  0.00    +0.000 C 
ATOM     18  C   UNL     1      -4.049  10.948  18.053  0.00  0.00    +0.000 C 
ATOM     19  C   UNL     1      -3.438   9.677  17.476  0.00  0.00    +0.000 C 
ATOM     20  C   UNL     1      -2.230  10.004  16.605  0.00  0.00    +0.000 C 
ATOM     21  N   UNL     1      -1.232  10.759  17.359  0.00  0.00    +0.000 NA
ATOM     22  H   UNL     1      -0.448  10.961  16.729  0.00  0.00    +0.000 HD
ENDBRANCH  14  16
ENDBRANCH  12  14
ENDBRANCH  10  12
ENDBRANCH   1  10
BRANCH   7  23
ATOM     23  C   UNL     1       3.379   6.425  17.588  0.00  0.00    +0.000 C 
BRANCH  23  24
ATOM     24  C   UNL     1       3.234   4.935  17.857  0.00  0.00    +0.000 A 
ATOM     25  C   UNL     1       1.944   4.392  17.653  0.00  0.00    +0.000 A 
ATOM     26  C   UNL     1       1.667   3.047  17.892  0.00  0.00    +0.000 A 
ATOM     27  C   UNL     1       2.670   2.206  18.346  0.00  0.00    +0.000 A 
ATOM     28  C   UNL     1       3.945   2.716  18.588  0.00  0.00    +0.000 A 
ATOM     29  C   UNL     1       4.243   4.077  18.357  0.00  0.00    +0.000 A 
BRANCH  29  30
ATOM     30  N   UNL     1       5.564   4.519  18.646  0.00  0.00    +0.000 N 
ATOM     31  C   UNL     1       6.667   4.520  17.823  0.00  0.00    +0.000 A 
ATOM     32  N   UNL     1       7.693   5.033  18.461  0.00  0.00    +0.000 NA
ATOM     33  N   UNL     1       7.225   5.362  19.703  0.00  0.00    +0.000 NA
ATOM     34  N   UNL     1       5.944   5.049  19.825  0.00  0.00    +0.000 NA
ENDBRANCH  29  30
ENDBRANCH  23  24
ENDBRANCH   7  23
TORSDOF 7
ENDMDL
