MODEL 1
REMARK VINA RESULT:      -7.3      0.000      0.000
REMARK  Name = 
REMARK  5 active torsions:
REMARK  status: ('A' for Active; 'I' for Inactive)
REMARK    1  A    between atoms: C_1  and  C_2
REMARK    2  A    between atoms: C_4  and  C_5
REMARK    3  A    between atoms: C_15  and  O_16
REMARK    4  A    between atoms: O_16  and  C_17
REMARK    5  A    between atoms: C_23  and  C_24
REMARK                            x       y       z     vdW  Elec       q    Type
REMARK                         _______ _______ _______ _____ _____    ______ ____
ROOT
ATOM      1  C   UNL     1      -0.100   9.177  20.894  0.00  0.00    +0.000 C 
ATOM      2  O   UNL     1      -0.460   8.337  21.699  0.00  0.00    +0.000 OA
ATOM      3  N   UNL     1       0.852   8.896  19.874  0.00  0.00    +0.000 N 
ATOM      4  C   UNL     1       1.323   9.955  18.963  0.00  0.00    +0.000 C 
ATOM      5  C   UNL     1       2.027   9.465  17.694  0.00  0.00    +0.000 C 
ATOM      6  O   UNL     1       3.007   8.471  17.991  0.00  0.00    +0.000 OA
ATOM      7  C   UNL     1       2.372   7.373  18.650  0.00  0.00    +0.000 C 
ATOM      8  C   UNL     1       1.864   7.825  20.034  0.00  0.00    +0.000 C 
ATOM      9  C   UNL     1       1.567   6.481  20.689  0.00  0.00    +0.000 C 
ATOM     10  C   UNL     1       2.730   5.575  20.219  0.00  0.00    +0.000 C 
ATOM     11  C   UNL     1       3.334   6.220  18.954  0.00  0.00    +0.000 C 
ENDROOT
BRANCH   1  15
ATOM     12  C   UNL     1      -0.646  13.820  22.858  0.00  0.00    +0.000 C 
ATOM     13  C   UNL     1      -0.801  12.630  21.994  0.00  0.00    +0.000 A 
ATOM     14  C   UNL     1      -0.418  11.332  22.232  0.00  0.00    +0.000 A 
ATOM     15  C   UNL     1      -0.561  10.582  21.021  0.00  0.00    +0.000 A 
ATOM     16  C   UNL     1      -1.298  11.400  20.170  0.00  0.00    +0.000 A 
ATOM     17  C   UNL     1      -1.975  11.223  18.849  0.00  0.00    +0.000 C 
ATOM     18  N   UNL     1      -1.381  12.657  20.754  0.00  0.00    +0.000 N 
ATOM     19  H   UNL     1      -1.826  13.464  20.342  0.00  0.00    +0.000 HD
ENDBRANCH   1  15
BRANCH  11  20
ATOM     20  O   UNL     1       3.358   5.250  17.893  0.00  0.00    +0.000 OA
BRANCH  20  21
ATOM     21  C   UNL     1       4.581   5.100  17.265  0.00  0.00    +0.000 A 
ATOM     22  C   UNL     1       4.687   4.077  16.332  0.00  0.00    +0.000 A 
ATOM     23  C   UNL     1       5.908   3.886  15.687  0.00  0.00    +0.000 A 
ATOM     24  C   UNL     1       6.975   4.726  15.986  0.00  0.00    +0.000 A 
ATOM     25  C   UNL     1       6.775   5.717  16.931  0.00  0.00    +0.000 A 
ATOM     26  N   UNL     1       5.610   5.909  17.586  0.00  0.00    +0.000 NA
ENDBRANCH  20  21
ENDBRANCH  11  20
TORSDOF 3
ENDMDL
MODEL 2
REMARK VINA RESULT:      -7.3      0.705      1.002
REMARK  Name = 
REMARK  5 active torsions:
REMARK  status: ('A' for Active; 'I' for Inactive)
REMARK    1  A    between atoms: C_1  and  C_2
REMARK    2  A    between atoms: C_4  and  C_5
REMARK    3  A    between atoms: C_15  and  O_16
REMARK    4  A    between atoms: O_16  and  C_17
REMARK    5  A    between atoms: C_23  and  C_24
REMARK                            x       y       z     vdW  Elec       q    Type
REMARK                         _______ _______ _______ _____ _____    ______ ____
ROOT
ATOM      1  C   UNL     1       0.006   9.108  20.726  0.00  0.00    +0.000 C 
ATOM      2  O   UNL     1      -0.421   8.332  21.563  0.00  0.00    +0.000 OA
ATOM      3  N   UNL     1       0.989   8.731  19.769  0.00  0.00    +0.000 N 
ATOM      4  C   UNL     1       1.540   9.716  18.818  0.00  0.00    +0.000 C 
ATOM      5  C   UNL     1       2.277   9.125  17.614  0.00  0.00    +0.000 C 
ATOM      6  O   UNL     1       3.204   8.115  18.012  0.00  0.00    +0.000 OA
ATOM      7  C   UNL     1       2.499   7.083  18.706  0.00  0.00    +0.000 C 
ATOM      8  C   UNL     1       1.950   7.636  20.036  0.00  0.00    +0.000 C 
ATOM      9  C   UNL     1       1.574   6.346  20.756  0.00  0.00    +0.000 C 
ATOM     10  C   UNL     1       2.719   5.371  20.392  0.00  0.00    +0.000 C 
ATOM     11  C   UNL     1       3.401   5.917  19.120  0.00  0.00    +0.000 C 
ENDROOT
BRANCH   1  15
ATOM     12  C   UNL     1      -0.234  13.941  22.243  0.00  0.00    +0.000 C 
ATOM     13  C   UNL     1      -0.500  12.676  21.524  0.00  0.00    +0.000 A 
ATOM     14  C   UNL     1      -0.130  11.397  21.858  0.00  0.00    +0.000 A 
ATOM     15  C   UNL     1      -0.406  10.534  20.750  0.00  0.00    +0.000 A 
ATOM     16  C   UNL     1      -1.199  11.289  19.889  0.00  0.00    +0.000 A 
ATOM     17  C   UNL     1      -2.002  11.003  18.662  0.00  0.00    +0.000 C 
ATOM     18  N   UNL     1      -1.193  12.599  20.346  0.00  0.00    +0.000 N 
ATOM     19  H   UNL     1      -1.655  13.376  19.896  0.00  0.00    +0.000 HD
ENDBRANCH   1  15
BRANCH  11  20
ATOM     20  O   UNL     1       3.433   4.884  18.120  0.00  0.00    +0.000 OA
BRANCH  20  21
ATOM     21  C   UNL     1       4.658   4.703  17.504  0.00  0.00    +0.000 A 
ATOM     22  C   UNL     1       5.788   4.978  18.261  0.00  0.00    +0.000 A 
ATOM     23  C   UNL     1       7.042   4.820  17.671  0.00  0.00    +0.000 A 
ATOM     24  C   UNL     1       7.123   4.385  16.353  0.00  0.00    +0.000 A 
ATOM     25  C   UNL     1       5.941   4.136  15.677  0.00  0.00    +0.000 A 
ATOM     26  N   UNL     1       4.716   4.303  16.218  0.00  0.00    +0.000 NA
ENDBRANCH  20  21
ENDBRANCH  11  20
TORSDOF 3
ENDMDL
MODEL 3
REMARK VINA RESULT:      -7.1      1.752      8.499
REMARK  Name = 
REMARK  5 active torsions:
REMARK  status: ('A' for Active; 'I' for Inactive)
REMARK    1  A    between atoms: C_1  and  C_2
REMARK    2  A    between atoms: C_4  and  C_5
REMARK    3  A    between atoms: C_15  and  O_16
REMARK    4  A    between atoms: O_16  and  C_17
REMARK    5  A    between atoms: C_23  and  C_24
REMARK                            x       y       z     vdW  Elec       q    Type
REMARK                         _______ _______ _______ _____ _____    ______ ____
ROOT
ATOM      1  C   UNL     1       3.039   6.288  19.381  0.00  0.00    +0.000 C 
ATOM      2  O   UNL     1       2.974   5.716  20.454  0.00  0.00    +0.000 OA
ATOM      3  N   UNL     1       2.396   7.535  19.142  0.00  0.00    +0.000 N 
ATOM      4  C   UNL     1       2.432   8.164  17.808  0.00  0.00    +0.000 C 
ATOM      5  C   UNL     1       2.055   9.648  17.771  0.00  0.00    +0.000 C 
ATOM      6  O   UNL     1       0.858   9.901  18.505  0.00  0.00    +0.000 OA
ATOM      7  C   UNL     1       1.043   9.480  19.859  0.00  0.00    +0.000 C 
ATOM      8  C   UNL     1       1.196   7.946  19.906  0.00  0.00    +0.000 C 
ATOM      9  C   UNL     1       1.017   7.681  21.396  0.00  0.00    +0.000 C 
ATOM     10  C   UNL     1      -0.106   8.659  21.815  0.00  0.00    +0.000 C 
ATOM     11  C   UNL     1      -0.170   9.771  20.747  0.00  0.00    +0.000 C 
ENDROOT
BRANCH   1  15
ATOM     12  C   UNL     1       6.572   5.350  15.867  0.00  0.00    +0.000 C 
ATOM     13  C   UNL     1       5.314   5.311  16.644  0.00  0.00    +0.000 A 
ATOM     14  C   UNL     1       4.841   6.209  17.569  0.00  0.00    +0.000 A 
ATOM     15  C   UNL     1       3.705   5.637  18.225  0.00  0.00    +0.000 A 
ATOM     16  C   UNL     1       3.368   4.521  17.464  0.00  0.00    +0.000 A 
ATOM     17  C   UNL     1       2.216   3.570  17.426  0.00  0.00    +0.000 C 
ATOM     18  N   UNL     1       4.390   4.306  16.549  0.00  0.00    +0.000 N 
ATOM     19  H   UNL     1       4.432   3.542  15.890  0.00  0.00    +0.000 HD
ENDBRANCH   1  15
BRANCH  11  20
ATOM     20  O   UNL     1      -0.067  11.053  21.391  0.00  0.00    +0.000 OA
BRANCH  20  21
ATOM     21  C   UNL     1      -1.274  11.662  21.680  0.00  0.00    +0.000 A 
ATOM     22  C   UNL     1      -1.690  11.635  23.004  0.00  0.00    +0.000 A 
ATOM     23  C   UNL     1      -2.909  12.228  23.333  0.00  0.00    +0.000 A 
ATOM     24  C   UNL     1      -3.662  12.834  22.334  0.00  0.00    +0.000 A 
ATOM     25  C   UNL     1      -3.166  12.811  21.042  0.00  0.00    +0.000 A 
ATOM     26  N   UNL     1      -2.001  12.224  20.694  0.00  0.00    +0.000 NA
ENDBRANCH  20  21
ENDBRANCH  11  20
TORSDOF 3
ENDMDL
MODEL 4
REMARK VINA RESULT:      -7.0      1.874      8.475
REMARK  Name = 
REMARK  5 active torsions:
REMARK  status: ('A' for Active; 'I' for Inactive)
REMARK    1  A    between atoms: C_1  and  C_2
REMARK    2  A    between atoms: C_4  and  C_5
REMARK    3  A    between atoms: C_15  and  O_16
REMARK    4  A    between atoms: O_16  and  C_17
REMARK    5  A    between atoms: C_23  and  C_24
REMARK                            x       y       z     vdW  Elec       q    Type
REMARK                         _______ _______ _______ _____ _____    ______ ____
ROOT
ATOM      1  C   UNL     1       2.605   6.326  19.680  0.00  0.00    +0.000 C 
ATOM      2  O   UNL     1       2.539   5.842  20.795  0.00  0.00    +0.000 OA
ATOM      3  N   UNL     1       2.149   7.643  19.392  0.00  0.00    +0.000 N 
ATOM      4  C   UNL     1       2.175   8.172  18.015  0.00  0.00    +0.000 C 
ATOM      5  C   UNL     1       2.034   9.692  17.893  0.00  0.00    +0.000 C 
ATOM      6  O   UNL     1       0.955  10.182  18.687  0.00  0.00    +0.000 OA
ATOM      7  C   UNL     1       1.180   9.823  20.052  0.00  0.00    +0.000 C 
ATOM      8  C   UNL     1       1.094   8.291  20.205  0.00  0.00    +0.000 C 
ATOM      9  C   UNL     1       0.996   8.153  21.720  0.00  0.00    +0.000 C 
ATOM     10  C   UNL     1       0.078   9.325  22.141  0.00  0.00    +0.000 C 
ATOM     11  C   UNL     1       0.103  10.362  20.998  0.00  0.00    +0.000 C 
ENDROOT
BRANCH   1  15
ATOM     12  C   UNL     1       5.636   4.637  15.981  0.00  0.00    +0.000 C 
ATOM     13  C   UNL     1       4.462   4.836  16.859  0.00  0.00    +0.000 A 
ATOM     14  C   UNL     1       4.204   5.857  17.740  0.00  0.00    +0.000 A 
ATOM     15  C   UNL     1       3.067   5.503  18.533  0.00  0.00    +0.000 A 
ATOM     16  C   UNL     1       2.511   4.395  17.900  0.00  0.00    +0.000 A 
ATOM     17  C   UNL     1       1.240   3.620  18.037  0.00  0.00    +0.000 C 
ATOM     18  N   UNL     1       3.404   3.970  16.926  0.00  0.00    +0.000 N 
ATOM     19  H   UNL     1       3.280   3.162  16.333  0.00  0.00    +0.000 HD
ENDBRANCH   1  15
BRANCH  11  20
ATOM     20  O   UNL     1       0.458  11.649  21.535  0.00  0.00    +0.000 OA
BRANCH  20  21
ATOM     21  C   UNL     1      -0.604  12.398  22.011  0.00  0.00    +0.000 A 
ATOM     22  C   UNL     1      -1.784  12.348  21.281  0.00  0.00    +0.000 A 
ATOM     23  C   UNL     1      -2.873  13.100  21.722  0.00  0.00    +0.000 A 
ATOM     24  C   UNL     1      -2.749  13.863  22.877  0.00  0.00    +0.000 A 
ATOM     25  C   UNL     1      -1.533  13.849  23.538  0.00  0.00    +0.000 A 
ATOM     26  N   UNL     1      -0.458  13.149  23.119  0.00  0.00    +0.000 NA
ENDBRANCH  20  21
ENDBRANCH  11  20
TORSDOF 3
ENDMDL
MODEL 5
REMARK VINA RESULT:      -7.0      2.595      3.934
REMARK  Name = 
REMARK  5 active torsions:
REMARK  status: ('A' for Active; 'I' for Inactive)
REMARK    1  A    between atoms: C_1  and  C_2
REMARK    2  A    between atoms: C_4  and  C_5
REMARK    3  A    between atoms: C_15  and  O_16
REMARK    4  A    between atoms: O_16  and  C_17
REMARK    5  A    between atoms: C_23  and  C_24
REMARK                            x       y       z     vdW  Elec       q    Type
REMARK                         _______ _______ _______ _____ _____    ______ ____
ROOT
ATOM      1  C   UNL     1       0.740  12.065  19.552  0.00  0.00    +0.000 C 
ATOM      2  O   UNL     1       1.221  12.302  18.459  0.00  0.00    +0.000 OA
ATOM      3  N   UNL     1       0.860  10.793  20.179  0.00  0.00    +0.000 N 
ATOM      4  C   UNL     1       0.202  10.517  21.470  0.00  0.00    +0.000 C 
ATOM      5  C   UNL     1       0.711   9.281  22.216  0.00  0.00    +0.000 C 
ATOM      6  O   UNL     1       0.801   8.149  21.351  0.00  0.00    +0.000 OA
ATOM      7  C   UNL     1       1.680   8.459  20.267  0.00  0.00    +0.000 C 
ATOM      8  C   UNL     1       1.046   9.555  19.387  0.00  0.00    +0.000 C 
ATOM      9  C   UNL     1       1.927   9.477  18.145  0.00  0.00    +0.000 C 
ATOM     10  C   UNL     1       2.170   7.961  17.957  0.00  0.00    +0.000 C 
ATOM     11  C   UNL     1       1.893   7.279  19.314  0.00  0.00    +0.000 C 
ENDROOT
BRANCH   1  15
ATOM     12  C   UNL     1      -3.444  14.512  21.041  0.00  0.00    +0.000 C 
ATOM     13  C   UNL     1      -2.026  14.156  20.816  0.00  0.00    +0.000 A 
ATOM     14  C   UNL     1      -1.491  13.256  19.928  0.00  0.00    +0.000 A 
ATOM     15  C   UNL     1      -0.104  13.079  20.233  0.00  0.00    +0.000 A 
ATOM     16  C   UNL     1       0.207  14.103  21.124  0.00  0.00    +0.000 A 
ATOM     17  C   UNL     1       1.466  14.654  21.711  0.00  0.00    +0.000 C 
ATOM     18  N   UNL     1      -0.982  14.705  21.511  0.00  0.00    +0.000 N 
ATOM     19  H   UNL     1      -1.065  15.456  22.181  0.00  0.00    +0.000 HD
ENDBRANCH   1  15
BRANCH  11  20
ATOM     20  O   UNL     1       3.034   6.488  19.689  0.00  0.00    +0.000 OA
BRANCH  20  21
ATOM     21  C   UNL     1       2.768   5.151  19.924  0.00  0.00    +0.000 A 
ATOM     22  C   UNL     1       1.547   4.848  20.510  0.00  0.00    +0.000 A 
ATOM     23  C   UNL     1       1.247   3.511  20.775  0.00  0.00    +0.000 A 
ATOM     24  C   UNL     1       2.169   2.528  20.436  0.00  0.00    +0.000 A 
ATOM     25  C   UNL     1       3.360   2.927  19.855  0.00  0.00    +0.000 A 
ATOM     26  N   UNL     1       3.683   4.214  19.609  0.00  0.00    +0.000 NA
ENDBRANCH  20  21
ENDBRANCH  11  20
TORSDOF 3
ENDMDL
MODEL 6
REMARK VINA RESULT:      -6.9      2.507      3.531
REMARK  Name = 
REMARK  5 active torsions:
REMARK  status: ('A' for Active; 'I' for Inactive)
REMARK    1  A    between atoms: C_1  and  C_2
REMARK    2  A    between atoms: C_4  and  C_5
REMARK    3  A    between atoms: C_15  and  O_16
REMARK    4  A    between atoms: O_16  and  C_17
REMARK    5  A    between atoms: C_23  and  C_24
REMARK                            x       y       z     vdW  Elec       q    Type
REMARK                         _______ _______ _______ _____ _____    ______ ____
ROOT
ATOM      1  C   UNL     1       1.653  11.281  18.491  0.00  0.00    +0.000 C 
ATOM      2  O   UNL     1       2.350  11.207  17.495  0.00  0.00    +0.000 OA
ATOM      3  N   UNL     1       1.461  10.180  19.371  0.00  0.00    +0.000 N 
ATOM      4  C   UNL     1       0.550  10.281  20.527  0.00  0.00    +0.000 C 
ATOM      5  C   UNL     1       0.721   9.197  21.594  0.00  0.00    +0.000 C 
ATOM      6  O   UNL     1       0.786   7.895  21.012  0.00  0.00    +0.000 OA
ATOM      7  C   UNL     1       1.879   7.849  20.093  0.00  0.00    +0.000 C 
ATOM      8  C   UNL     1       1.590   8.781  18.899  0.00  0.00    +0.000 C 
ATOM      9  C   UNL     1       2.653   8.324  17.907  0.00  0.00    +0.000 C 
ATOM     10  C   UNL     1       2.687   6.787  18.082  0.00  0.00    +0.000 C 
ATOM     11  C   UNL     1       2.071   6.467  19.461  0.00  0.00    +0.000 C 
ENDROOT
BRANCH   1  15
ATOM     12  C   UNL     1       0.676  16.058  19.885  0.00  0.00    +0.000 C 
ATOM     13  C   UNL     1       0.502  14.653  19.458  0.00  0.00    +0.000 A 
ATOM     14  C   UNL     1       1.406  13.619  19.496  0.00  0.00    +0.000 A 
ATOM     15  C   UNL     1       0.869  12.513  18.765  0.00  0.00    +0.000 A 
ATOM     16  C   UNL     1      -0.469  12.830  18.553  0.00  0.00    +0.000 A 
ATOM     17  C   UNL     1      -1.667  12.096  18.044  0.00  0.00    +0.000 C 
ATOM     18  N   UNL     1      -0.656  14.154  18.925  0.00  0.00    +0.000 N 
ATOM     19  H   UNL     1      -1.522  14.667  18.845  0.00  0.00    +0.000 HD
ENDBRANCH   1  15
BRANCH  11  20
ATOM     20  O   UNL     1       2.991   5.658  20.214  0.00  0.00    +0.000 OA
BRANCH  20  21
ATOM     21  C   UNL     1       3.049   4.329  19.834  0.00  0.00    +0.000 A 
ATOM     22  C   UNL     1       1.853   3.625  19.831  0.00  0.00    +0.000 A 
ATOM     23  C   UNL     1       1.873   2.279  19.466  0.00  0.00    +0.000 A 
ATOM     24  C   UNL     1       3.079   1.689  19.107  0.00  0.00    +0.000 A 
ATOM     25  C   UNL     1       4.220   2.472  19.140  0.00  0.00    +0.000 A 
ATOM     26  N   UNL     1       4.232   3.769  19.512  0.00  0.00    +0.000 NA
ENDBRANCH  20  21
ENDBRANCH  11  20
TORSDOF 3
ENDMDL
MODEL 7
REMARK VINA RESULT:      -6.9      2.566      3.698
REMARK  Name = 
REMARK  5 active torsions:
REMARK  status: ('A' for Active; 'I' for Inactive)
REMARK    1  A    between atoms: C_1  and  C_2
REMARK    2  A    between atoms: C_4  and  C_5
REMARK    3  A    between atoms: C_15  and  O_16
REMARK    4  A    between atoms: O_16  and  C_17
REMARK    5  A    between atoms: C_23  and  C_24
REMARK                            x       y       z     vdW  Elec       q    Type
REMARK                         _______ _______ _______ _____ _____    ______ ____
ROOT
ATOM      1  C   UNL     1       0.821  12.044  19.673  0.00  0.00    +0.000 C 
ATOM      2  O   UNL     1       1.275  12.299  18.572  0.00  0.00    +0.000 OA
ATOM      3  N   UNL     1       0.941  10.757  20.268  0.00  0.00    +0.000 N 
ATOM      4  C   UNL     1       0.313  10.461  21.570  0.00  0.00    +0.000 C 
ATOM      5  C   UNL     1       0.826   9.203  22.275  0.00  0.00    +0.000 C 
ATOM      6  O   UNL     1       0.879   8.089  21.384  0.00  0.00    +0.000 OA
ATOM      7  C   UNL     1       1.732   8.411  20.284  0.00  0.00    +0.000 C 
ATOM      8  C   UNL     1       1.090   9.535  19.445  0.00  0.00    +0.000 C 
ATOM      9  C   UNL     1       1.936   9.473  18.178  0.00  0.00    +0.000 C 
ATOM     10  C   UNL     1       2.155   7.958  17.952  0.00  0.00    +0.000 C 
ATOM     11  C   UNL     1       1.905   7.251  19.300  0.00  0.00    +0.000 C 
ENDROOT
BRANCH   1  15
ATOM     12  C   UNL     1      -0.250  16.104  22.516  0.00  0.00    +0.000 C 
ATOM     13  C   UNL     1      -0.392  14.861  21.727  0.00  0.00    +0.000 A 
ATOM     14  C   UNL     1       0.577  13.968  21.339  0.00  0.00    +0.000 A 
ATOM     15  C   UNL     1       0.007  13.053  20.398  0.00  0.00    +0.000 A 
ATOM     16  C   UNL     1      -1.367  13.262  20.472  0.00  0.00    +0.000 A 
ATOM     17  C   UNL     1      -2.577  12.564  19.940  0.00  0.00    +0.000 C 
ATOM     18  N   UNL     1      -1.584  14.400  21.235  0.00  0.00    +0.000 N 
ATOM     19  H   UNL     1      -2.485  14.812  21.427  0.00  0.00    +0.000 HD
ENDBRANCH   1  15
BRANCH  11  20
ATOM     20  O   UNL     1       3.045   6.438  19.627  0.00  0.00    +0.000 OA
BRANCH  20  21
ATOM     21  C   UNL     1       2.761   5.110  19.892  0.00  0.00    +0.000 A 
ATOM     22  C   UNL     1       1.511   4.830  20.426  0.00  0.00    +0.000 A 
ATOM     23  C   UNL     1       1.191   3.504  20.719  0.00  0.00    +0.000 A 
ATOM     24  C   UNL     1       2.124   2.507  20.459  0.00  0.00    +0.000 A 
ATOM     25  C   UNL     1       3.345   2.883  19.926  0.00  0.00    +0.000 A 
ATOM     26  N   UNL     1       3.687   4.160  19.655  0.00  0.00    +0.000 NA
ENDBRANCH  20  21
ENDBRANCH  11  20
TORSDOF 3
ENDMDL
MODEL 8
REMARK VINA RESULT:      -6.9      1.796      2.329
REMARK  Name = 
REMARK  5 active torsions:
REMARK  status: ('A' for Active; 'I' for Inactive)
REMARK    1  A    between atoms: C_1  and  C_2
REMARK    2  A    between atoms: C_4  and  C_5
REMARK    3  A    between atoms: C_15  and  O_16
REMARK    4  A    between atoms: O_16  and  C_17
REMARK    5  A    between atoms: C_23  and  C_24
REMARK                            x       y       z     vdW  Elec       q    Type
REMARK                         _______ _______ _______ _____ _____    ______ ____
ROOT
ATOM      1  C   UNL     1      -0.212   9.452  20.922  0.00  0.00    +0.000 C 
ATOM      2  O   UNL     1      -0.567   8.610  21.727  0.00  0.00    +0.000 OA
ATOM      3  N   UNL     1       0.731   9.172  19.893  0.00  0.00    +0.000 N 
ATOM      4  C   UNL     1       1.196  10.234  18.981  0.00  0.00    +0.000 C 
ATOM      5  C   UNL     1       1.888   9.747  17.705  0.00  0.00    +0.000 C 
ATOM      6  O   UNL     1       2.867   8.749  17.989  0.00  0.00    +0.000 OA
ATOM      7  C   UNL     1       2.236   7.650  18.650  0.00  0.00    +0.000 C 
ATOM      8  C   UNL     1       1.740   8.099  20.040  0.00  0.00    +0.000 C 
ATOM      9  C   UNL     1       1.447   6.753  20.693  0.00  0.00    +0.000 C 
ATOM     10  C   UNL     1       2.603   5.846  20.209  0.00  0.00    +0.000 C 
ATOM     11  C   UNL     1       3.197   6.494  18.942  0.00  0.00    +0.000 C 
ENDROOT
BRANCH   1  15
ATOM     12  C   UNL     1      -0.677  14.110  22.871  0.00  0.00    +0.000 C 
ATOM     13  C   UNL     1      -0.869  12.913  22.024  0.00  0.00    +0.000 A 
ATOM     14  C   UNL     1      -0.474  11.618  22.255  0.00  0.00    +0.000 A 
ATOM     15  C   UNL     1      -0.669  10.858  21.058  0.00  0.00    +0.000 A 
ATOM     16  C   UNL     1      -1.443  11.669  20.233  0.00  0.00    +0.000 A 
ATOM     17  C   UNL     1      -2.177  11.481  18.945  0.00  0.00    +0.000 C 
ATOM     18  N   UNL     1      -1.501  12.930  20.810  0.00  0.00    +0.000 N 
ATOM     19  H   UNL     1      -1.965  13.734  20.412  0.00  0.00    +0.000 HD
ENDBRANCH   1  15
BRANCH  11  20
ATOM     20  O   UNL     1       3.210   5.527  17.877  0.00  0.00    +0.000 OA
BRANCH  20  21
ATOM     21  C   UNL     1       2.837   4.247  18.244  0.00  0.00    +0.000 A 
ATOM     22  C   UNL     1       1.487   3.938  18.158  0.00  0.00    +0.000 A 
ATOM     23  C   UNL     1       1.070   2.660  18.532  0.00  0.00    +0.000 A 
ATOM     24  C   UNL     1       2.014   1.737  18.966  0.00  0.00    +0.000 A 
ATOM     25  C   UNL     1       3.337   2.137  19.018  0.00  0.00    +0.000 A 
ATOM     26  N   UNL     1       3.763   3.373  18.684  0.00  0.00    +0.000 NA
ENDBRANCH  20  21
ENDBRANCH  11  20
TORSDOF 3
ENDMDL
MODEL 9
REMARK VINA RESULT:      -6.9      1.999      3.039
REMARK  Name = 
REMARK  5 active torsions:
REMARK  status: ('A' for Active; 'I' for Inactive)
REMARK    1  A    between atoms: C_1  and  C_2
REMARK    2  A    between atoms: C_4  and  C_5
REMARK    3  A    between atoms: C_15  and  O_16
REMARK    4  A    between atoms: O_16  and  C_17
REMARK    5  A    between atoms: C_23  and  C_24
REMARK                            x       y       z     vdW  Elec       q    Type
REMARK                         _______ _______ _______ _____ _____    ______ ____
ROOT
ATOM      1  C   UNL     1       0.525  11.973  19.885  0.00  0.00    +0.000 C 
ATOM      2  O   UNL     1       0.937  12.425  18.832  0.00  0.00    +0.000 OA
ATOM      3  N   UNL     1       0.784  10.635  20.293  0.00  0.00    +0.000 N 
ATOM      4  C   UNL     1       0.207  10.096  21.539  0.00  0.00    +0.000 C 
ATOM      5  C   UNL     1       0.854   8.810  22.061  0.00  0.00    +0.000 C 
ATOM      6  O   UNL     1       1.009   7.844  21.022  0.00  0.00    +0.000 OA
ATOM      7  C   UNL     1       1.810   8.404  19.979  0.00  0.00    +0.000 C 
ATOM      8  C   UNL     1       1.046   9.562  19.306  0.00  0.00    +0.000 C 
ATOM      9  C   UNL     1       1.878   9.766  18.045  0.00  0.00    +0.000 C 
ATOM     10  C   UNL     1       2.247   8.328  17.607  0.00  0.00    +0.000 C 
ATOM     11  C   UNL     1       2.088   7.417  18.842  0.00  0.00    +0.000 C 
ENDROOT
BRANCH   1  15
ATOM     12  C   UNL     1      -0.910  15.220  23.506  0.00  0.00    +0.000 C 
ATOM     13  C   UNL     1      -0.946  14.211  22.425  0.00  0.00    +0.000 A 
ATOM     14  C   UNL     1       0.073  13.431  21.936  0.00  0.00    +0.000 A 
ATOM     15  C   UNL     1      -0.377  12.781  20.744  0.00  0.00    +0.000 A 
ATOM     16  C   UNL     1      -1.755  12.979  20.719  0.00  0.00    +0.000 A 
ATOM     17  C   UNL     1      -2.890  12.447  19.905  0.00  0.00    +0.000 C 
ATOM     18  N   UNL     1      -2.070  13.898  21.710  0.00  0.00    +0.000 N 
ATOM     19  H   UNL     1      -2.994  14.259  21.899  0.00  0.00    +0.000 HD
ENDBRANCH   1  15
BRANCH  11  20
ATOM     20  O   UNL     1       3.309   6.687  19.053  0.00  0.00    +0.000 OA
BRANCH  20  21
ATOM     21  C   UNL     1       3.258   5.348  18.712  0.00  0.00    +0.000 A 
ATOM     22  C   UNL     1       2.110   4.908  18.067  0.00  0.00    +0.000 A 
ATOM     23  C   UNL     1       2.016   3.561  17.718  0.00  0.00    +0.000 A 
ATOM     24  C   UNL     1       3.070   2.706  18.015  0.00  0.00    +0.000 A 
ATOM     25  C   UNL     1       4.174   3.236  18.661  0.00  0.00    +0.000 A 
ATOM     26  N   UNL     1       4.281   4.530  19.029  0.00  0.00    +0.000 NA
ENDBRANCH  20  21
ENDBRANCH  11  20
TORSDOF 3
ENDMDL
