MODEL 1
REMARK VINA RESULT:      -7.8      0.000      0.000
REMARK  Name = 
REMARK  5 active torsions:
REMARK  status: ('A' for Active; 'I' for Inactive)
REMARK    1  A    between atoms: C_2  and  O_3
REMARK    2  A    between atoms: C_2  and  C_4
REMARK    3  A    between atoms: C_8  and  C_9
REMARK    4  A    between atoms: CA_13  and  C_14
REMARK    5  A    between atoms: C_14  and  OXT_16
REMARK                            x       y       z     vdW  Elec       q    Type
REMARK                         _______ _______ _______ _____ _____    ______ ____
ROOT
ATOM      1  C   UNL     1       6.523   4.482  16.080  0.00  0.00    +0.000 A 
ATOM      2  C   UNL     1       7.519   4.693  17.028  0.00  0.00    +0.000 A 
ATOM      3  C   UNL     1       7.154   4.656  18.357  0.00  0.00    +0.000 A 
ATOM      4  N   UNL     1       5.891   4.415  18.779  0.00  0.00    +0.000 NA
ATOM      5  C   UNL     1       4.929   4.170  17.849  0.00  0.00    +0.000 A 
ATOM      6  C   UNL     1       5.219   4.199  16.488  0.00  0.00    +0.000 A 
ENDROOT
BRANCH   5   7
ATOM      7  C   UNL     1       3.574   3.838  18.353  0.00  0.00    +0.000 A 
ATOM      8  C   UNL     1       2.429   4.013  17.570  0.00  0.00    +0.000 A 
ATOM      9  C   UNL     1       1.170   3.735  18.105  0.00  0.00    +0.000 A 
ATOM     10  C   UNL     1       1.071   3.282  19.412  0.00  0.00    +0.000 A 
ATOM     11  CA  UNL     1       2.246   3.116  20.125  0.00  0.00    +0.000 A 
ATOM     12  N   UNL     1       3.497   3.376  19.636  0.00  0.00    +0.000 NA
BRANCH  11  13
ATOM     13  C   UNL     1       2.198   2.622  21.534  0.00  0.00    +0.000 C 
ATOM     14  O   UNL     1       1.209   2.635  22.244  0.00  0.00    +0.000 OA
BRANCH  13  15
ATOM     15  OXT UNL     1       3.407   2.146  21.916  0.00  0.00    +0.000 OA
ATOM     16  HXT UNL     1       3.334   1.808  22.837  0.00  0.00    +0.000 HD
ENDBRANCH  13  15
ENDBRANCH  11  13
ENDBRANCH   5   7
BRANCH   1  18
ATOM     17  O   UNL     1       7.594   5.369  14.164  0.00  0.00    +0.000 OA
ATOM     18  C   UNL     1       6.893   4.499  14.649  0.00  0.00    +0.000 C 
BRANCH  18  19
ATOM     19  O   UNL     1       6.360   3.487  13.935  0.00  0.00    +0.000 OA
ATOM     20  H   UNL     1       6.300   3.631  12.972  0.00  0.00    +0.000 HD
ENDBRANCH  18  19
ENDBRANCH   1  18
TORSDOF 5
ENDMDL
MODEL 2
REMARK VINA RESULT:      -7.6      3.439      4.709
REMARK  Name = 
REMARK  5 active torsions:
REMARK  status: ('A' for Active; 'I' for Inactive)
REMARK    1  A    between atoms: C_2  and  O_3
REMARK    2  A    between atoms: C_2  and  C_4
REMARK    3  A    between atoms: C_8  and  C_9
REMARK    4  A    between atoms: CA_13  and  C_14
REMARK    5  A    between atoms: C_14  and  OXT_16
REMARK                            x       y       z     vdW  Elec       q    Type
REMARK                         _______ _______ _______ _____ _____    ______ ____
ROOT
ATOM      1  C   UNL     1       6.074   3.622  12.745  0.00  0.00    +0.000 A 
ATOM      2  C   UNL     1       7.185   4.340  12.315  0.00  0.00    +0.000 A 
ATOM      3  C   UNL     1       7.812   5.154  13.233  0.00  0.00    +0.000 A 
ATOM      4  N   UNL     1       7.412   5.279  14.519  0.00  0.00    +0.000 NA
ATOM      5  C   UNL     1       6.349   4.545  14.945  0.00  0.00    +0.000 A 
ATOM      6  C   UNL     1       5.659   3.705  14.074  0.00  0.00    +0.000 A 
ENDROOT
BRANCH   5   7
ATOM      7  C   UNL     1       5.987   4.653  16.379  0.00  0.00    +0.000 A 
ATOM      8  C   UNL     1       4.707   4.335  16.846  0.00  0.00    +0.000 A 
ATOM      9  C   UNL     1       4.397   4.501  18.197  0.00  0.00    +0.000 A 
ATOM     10  C   UNL     1       5.369   4.977  19.064  0.00  0.00    +0.000 A 
ATOM     11  CA  UNL     1       6.619   5.256  18.538  0.00  0.00    +0.000 A 
ATOM     12  N   UNL     1       6.961   5.105  17.222  0.00  0.00    +0.000 NA
BRANCH  11  13
ATOM     13  C   UNL     1       7.705   5.763  19.430  0.00  0.00    +0.000 C 
ATOM     14  O   UNL     1       8.018   5.269  20.498  0.00  0.00    +0.000 OA
BRANCH  13  15
ATOM     15  OXT UNL     1       8.305   6.847  18.884  0.00  0.00    +0.000 OA
ATOM     16  HXT UNL     1       9.279   6.728  18.940  0.00  0.00    +0.000 HD
ENDBRANCH  13  15
ENDBRANCH  11  13
ENDBRANCH   5   7
BRANCH   1  18
ATOM     17  O   UNL     1       4.309   2.990  11.299  0.00  0.00    +0.000 OA
ATOM     18  C   UNL     1       5.394   2.727  11.784  0.00  0.00    +0.000 C 
BRANCH  18  19
ATOM     19  O   UNL     1       6.070   1.589  11.525  0.00  0.00    +0.000 OA
ATOM     20  H   UNL     1       6.769   1.654  10.847  0.00  0.00    +0.000 HD
ENDBRANCH  18  19
ENDBRANCH   1  18
TORSDOF 5
ENDMDL
MODEL 3
REMARK VINA RESULT:      -7.5      2.739      4.382
REMARK  Name = 
REMARK  5 active torsions:
REMARK  status: ('A' for Active; 'I' for Inactive)
REMARK    1  A    between atoms: C_2  and  O_3
REMARK    2  A    between atoms: C_2  and  C_4
REMARK    3  A    between atoms: C_8  and  C_9
REMARK    4  A    between atoms: CA_13  and  C_14
REMARK    5  A    between atoms: C_14  and  OXT_16
REMARK                            x       y       z     vdW  Elec       q    Type
REMARK                         _______ _______ _______ _____ _____    ______ ____
ROOT
ATOM      1  C   UNL     1       6.192   3.741  12.654  0.00  0.00    +0.000 A 
ATOM      2  C   UNL     1       7.254   4.404  12.048  0.00  0.00    +0.000 A 
ATOM      3  C   UNL     1       7.994   5.268  12.827  0.00  0.00    +0.000 A 
ATOM      4  N   UNL     1       7.749   5.491  14.138  0.00  0.00    +0.000 NA
ATOM      5  C   UNL     1       6.734   4.810  14.736  0.00  0.00    +0.000 A 
ATOM      6  C   UNL     1       5.937   3.925  14.013  0.00  0.00    +0.000 A 
ENDROOT
BRANCH   5   7
ATOM      7  C   UNL     1       6.543   5.025  16.191  0.00  0.00    +0.000 A 
ATOM      8  C   UNL     1       7.267   5.990  16.899  0.00  0.00    +0.000 A 
ATOM      9  C   UNL     1       7.091   6.121  18.277  0.00  0.00    +0.000 A 
ATOM     10  C   UNL     1       6.192   5.291  18.930  0.00  0.00    +0.000 A 
ATOM     11  CA  UNL     1       5.497   4.369  18.166  0.00  0.00    +0.000 A 
ATOM     12  N   UNL     1       5.641   4.211  16.814  0.00  0.00    +0.000 NA
BRANCH  11  13
ATOM     13  C   UNL     1       4.509   3.457  18.817  0.00  0.00    +0.000 C 
ATOM     14  O   UNL     1       3.308   3.477  18.623  0.00  0.00    +0.000 OA
BRANCH  13  15
ATOM     15  OXT UNL     1       5.135   2.593  19.652  0.00  0.00    +0.000 OA
ATOM     16  HXT UNL     1       4.484   1.919  19.951  0.00  0.00    +0.000 HD
ENDBRANCH  13  15
ENDBRANCH  11  13
ENDBRANCH   5   7
BRANCH   1  18
ATOM     17  O   UNL     1       5.832   1.720  11.475  0.00  0.00    +0.000 OA
ATOM     18  C   UNL     1       5.395   2.794  11.846  0.00  0.00    +0.000 C 
BRANCH  18  19
ATOM     19  O   UNL     1       4.162   3.244  11.536  0.00  0.00    +0.000 OA
ATOM     20  H   UNL     1       4.105   3.827  10.755  0.00  0.00    +0.000 HD
ENDBRANCH  18  19
ENDBRANCH   1  18
TORSDOF 5
ENDMDL
MODEL 4
REMARK VINA RESULT:      -7.5      2.743      4.424
REMARK  Name = 
REMARK  5 active torsions:
REMARK  status: ('A' for Active; 'I' for Inactive)
REMARK    1  A    between atoms: C_2  and  O_3
REMARK    2  A    between atoms: C_2  and  C_4
REMARK    3  A    between atoms: C_8  and  C_9
REMARK    4  A    between atoms: CA_13  and  C_14
REMARK    5  A    between atoms: C_14  and  OXT_16
REMARK                            x       y       z     vdW  Elec       q    Type
REMARK                         _______ _______ _______ _____ _____    ______ ____
ROOT
ATOM      1  C   UNL     1       6.177   3.741  12.730  0.00  0.00    +0.000 A 
ATOM      2  C   UNL     1       7.241   4.381  12.103  0.00  0.00    +0.000 A 
ATOM      3  C   UNL     1       8.009   5.236  12.863  0.00  0.00    +0.000 A 
ATOM      4  N   UNL     1       7.789   5.472  14.177  0.00  0.00    +0.000 NA
ATOM      5  C   UNL     1       6.772   4.813  14.796  0.00  0.00    +0.000 A 
ATOM      6  C   UNL     1       5.947   3.939  14.092  0.00  0.00    +0.000 A 
ENDROOT
BRANCH   5   7
ATOM      7  C   UNL     1       6.609   5.041  16.252  0.00  0.00    +0.000 A 
ATOM      8  C   UNL     1       7.364   5.996  16.942  0.00  0.00    +0.000 A 
ATOM      9  C   UNL     1       7.212   6.139  18.322  0.00  0.00    +0.000 A 
ATOM     10  C   UNL     1       6.307   5.332  18.994  0.00  0.00    +0.000 A 
ATOM     11  CA  UNL     1       5.581   4.420  18.248  0.00  0.00    +0.000 A 
ATOM     12  N   UNL     1       5.700   4.251  16.895  0.00  0.00    +0.000 NA
BRANCH  11  13
ATOM     13  C   UNL     1       4.585   3.533  18.920  0.00  0.00    +0.000 C 
ATOM     14  O   UNL     1       4.857   2.679  19.745  0.00  0.00    +0.000 OA
BRANCH  13  15
ATOM     15  OXT UNL     1       3.330   3.813  18.495  0.00  0.00    +0.000 OA
ATOM     16  HXT UNL     1       3.240   3.511  17.563  0.00  0.00    +0.000 HD
ENDBRANCH  13  15
ENDBRANCH  11  13
ENDBRANCH   5   7
BRANCH   1  18
ATOM     17  O   UNL     1       4.233   3.090  11.547  0.00  0.00    +0.000 OA
ATOM     18  C   UNL     1       5.349   2.805  11.941  0.00  0.00    +0.000 C 
BRANCH  18  19
ATOM     19  O   UNL     1       5.930   1.606  11.731  0.00  0.00    +0.000 OA
ATOM     20  H   UNL     1       6.866   1.535  11.996  0.00  0.00    +0.000 HD
ENDBRANCH  18  19
ENDBRANCH   1  18
TORSDOF 5
ENDMDL
MODEL 5
REMARK VINA RESULT:      -7.4      0.882      1.201
REMARK  Name = 
REMARK  5 active torsions:
REMARK  status: ('A' for Active; 'I' for Inactive)
REMARK    1  A    between atoms: C_2  and  O_3
REMARK    2  A    between atoms: C_2  and  C_4
REMARK    3  A    between atoms: C_8  and  C_9
REMARK    4  A    between atoms: CA_13  and  C_14
REMARK    5  A    between atoms: C_14  and  OXT_16
REMARK                            x       y       z     vdW  Elec       q    Type
REMARK                         _______ _______ _______ _____ _____    ______ ____
ROOT
ATOM      1  C   UNL     1       6.478   4.436  15.869  0.00  0.00    +0.000 A 
ATOM      2  C   UNL     1       7.481   4.785  16.768  0.00  0.00    +0.000 A 
ATOM      3  C   UNL     1       7.192   4.694  18.112  0.00  0.00    +0.000 A 
ATOM      4  N   UNL     1       6.000   4.275  18.595  0.00  0.00    +0.000 NA
ATOM      5  C   UNL     1       5.036   3.897  17.712  0.00  0.00    +0.000 A 
ATOM      6  C   UNL     1       5.250   3.969  16.338  0.00  0.00    +0.000 A 
ENDROOT
BRANCH   5   7
ATOM      7  C   UNL     1       3.769   3.374  18.281  0.00  0.00    +0.000 A 
ATOM      8  C   UNL     1       2.853   2.653  17.508  0.00  0.00    +0.000 A 
ATOM      9  C   UNL     1       1.650   2.225  18.073  0.00  0.00    +0.000 A 
ATOM     10  C   UNL     1       1.381   2.518  19.401  0.00  0.00    +0.000 A 
ATOM     11  CA  UNL     1       2.339   3.221  20.113  0.00  0.00    +0.000 A 
ATOM     12  N   UNL     1       3.529   3.656  19.595  0.00  0.00    +0.000 NA
BRANCH  11  13
ATOM     13  C   UNL     1       2.104   3.554  21.549  0.00  0.00    +0.000 C 
ATOM     14  O   UNL     1       1.716   2.767  22.393  0.00  0.00    +0.000 OA
BRANCH  13  15
ATOM     15  OXT UNL     1       2.389   4.856  21.791  0.00  0.00    +0.000 OA
ATOM     16  HXT UNL     1       3.340   5.010  21.594  0.00  0.00    +0.000 HD
ENDBRANCH  13  15
ENDBRANCH  11  13
ENDBRANCH   5   7
BRANCH   1  18
ATOM     17  O   UNL     1       6.238   3.769  13.610  0.00  0.00    +0.000 OA
ATOM     18  C   UNL     1       6.769   4.507  14.421  0.00  0.00    +0.000 C 
BRANCH  18  19
ATOM     19  O   UNL     1       7.690   5.435  14.094  0.00  0.00    +0.000 OA
ATOM     20  H   UNL     1       8.622   5.175  14.225  0.00  0.00    +0.000 HD
ENDBRANCH  18  19
ENDBRANCH   1  18
TORSDOF 5
ENDMDL
MODEL 6
REMARK VINA RESULT:      -7.3      1.476      1.654
REMARK  Name = 
REMARK  5 active torsions:
REMARK  status: ('A' for Active; 'I' for Inactive)
REMARK    1  A    between atoms: C_2  and  O_3
REMARK    2  A    between atoms: C_2  and  C_4
REMARK    3  A    between atoms: C_8  and  C_9
REMARK    4  A    between atoms: CA_13  and  C_14
REMARK    5  A    between atoms: C_14  and  OXT_16
REMARK                            x       y       z     vdW  Elec       q    Type
REMARK                         _______ _______ _______ _____ _____    ______ ____
ROOT
ATOM      1  C   UNL     1       6.539   4.746  16.390  0.00  0.00    +0.000 A 
ATOM      2  C   UNL     1       7.697   4.639  17.154  0.00  0.00    +0.000 A 
ATOM      3  C   UNL     1       7.577   4.794  18.518  0.00  0.00    +0.000 A 
ATOM      4  N   UNL     1       6.401   5.029  19.145  0.00  0.00    +0.000 NA
ATOM      5  C   UNL     1       5.266   5.092  18.397  0.00  0.00    +0.000 A 
ATOM      6  C   UNL     1       5.308   4.954  17.012  0.00  0.00    +0.000 A 
ENDROOT
BRANCH   5   7
ATOM      7  C   UNL     1       3.988   5.277  19.127  0.00  0.00    +0.000 A 
ATOM      8  C   UNL     1       3.293   6.490  19.107  0.00  0.00    +0.000 A 
ATOM      9  C   UNL     1       2.121   6.633  19.851  0.00  0.00    +0.000 A 
ATOM     10  C   UNL     1       1.656   5.563  20.601  0.00  0.00    +0.000 A 
ATOM     11  CA  UNL     1       2.384   4.386  20.562  0.00  0.00    +0.000 A 
ATOM     12  N   UNL     1       3.536   4.207  19.845  0.00  0.00    +0.000 NA
BRANCH  11  13
ATOM     13  C   UNL     1       1.924   3.200  21.343  0.00  0.00    +0.000 C 
ATOM     14  O   UNL     1       2.583   2.620  22.187  0.00  0.00    +0.000 OA
BRANCH  13  15
ATOM     15  OXT UNL     1       0.661   2.857  20.992  0.00  0.00    +0.000 OA
ATOM     16  HXT UNL     1       0.420   3.343  20.173  0.00  0.00    +0.000 HD
ENDBRANCH  13  15
ENDBRANCH  11  13
ENDBRANCH   5   7
BRANCH   1  18
ATOM     17  O   UNL     1       7.107   5.416  14.192  0.00  0.00    +0.000 OA
ATOM     18  C   UNL     1       6.638   4.565  14.926  0.00  0.00    +0.000 C 
BRANCH  18  19
ATOM     19  O   UNL     1       6.134   3.395  14.484  0.00  0.00    +0.000 OA
ATOM     20  H   UNL     1       5.622   3.438  13.654  0.00  0.00    +0.000 HD
ENDBRANCH  18  19
ENDBRANCH   1  18
TORSDOF 5
ENDMDL
MODEL 7
REMARK VINA RESULT:      -7.3      2.942      4.488
REMARK  Name = 
REMARK  5 active torsions:
REMARK  status: ('A' for Active; 'I' for Inactive)
REMARK    1  A    between atoms: C_2  and  O_3
REMARK    2  A    between atoms: C_2  and  C_4
REMARK    3  A    between atoms: C_8  and  C_9
REMARK    4  A    between atoms: CA_13  and  C_14
REMARK    5  A    between atoms: C_14  and  OXT_16
REMARK                            x       y       z     vdW  Elec       q    Type
REMARK                         _______ _______ _______ _____ _____    ______ ____
ROOT
ATOM      1  C   UNL     1       6.133   3.718  12.706  0.00  0.00    +0.000 A 
ATOM      2  C   UNL     1       7.205   4.387  12.124  0.00  0.00    +0.000 A 
ATOM      3  C   UNL     1       7.946   5.227  12.928  0.00  0.00    +0.000 A 
ATOM      4  N   UNL     1       7.692   5.421  14.242  0.00  0.00    +0.000 NA
ATOM      5  C   UNL     1       6.668   4.734  14.817  0.00  0.00    +0.000 A 
ATOM      6  C   UNL     1       5.869   3.873  14.068  0.00  0.00    +0.000 A 
ENDROOT
BRANCH   5   7
ATOM      7  C   UNL     1       6.467   4.917  16.275  0.00  0.00    +0.000 A 
ATOM      8  C   UNL     1       7.529   4.850  17.183  0.00  0.00    +0.000 A 
ATOM      9  C   UNL     1       7.285   4.977  18.551  0.00  0.00    +0.000 A 
ATOM     10  C   UNL     1       5.986   5.173  18.994  0.00  0.00    +0.000 A 
ATOM     11  CA  UNL     1       4.985   5.247  18.041  0.00  0.00    +0.000 A 
ATOM     12  N   UNL     1       5.185   5.128  16.692  0.00  0.00    +0.000 NA
BRANCH  11  13
ATOM     13  C   UNL     1       3.570   5.467  18.463  0.00  0.00    +0.000 C 
ATOM     14  O   UNL     1       2.591   5.209  17.786  0.00  0.00    +0.000 OA
BRANCH  13  15
ATOM     15  OXT UNL     1       3.519   5.988  19.713  0.00  0.00    +0.000 OA
ATOM     16  HXT UNL     1       2.576   6.102  19.967  0.00  0.00    +0.000 HD
ENDBRANCH  13  15
ENDBRANCH  11  13
ENDBRANCH   5   7
BRANCH   1  18
ATOM     17  O   UNL     1       4.235   3.094  11.437  0.00  0.00    +0.000 OA
ATOM     18  C   UNL     1       5.334   2.798  11.870  0.00  0.00    +0.000 C 
BRANCH  18  19
ATOM     19  O   UNL     1       5.919   1.600  11.664  0.00  0.00    +0.000 OA
ATOM     20  H   UNL     1       5.485   0.836  12.089  0.00  0.00    +0.000 HD
ENDBRANCH  18  19
ENDBRANCH   1  18
TORSDOF 5
ENDMDL
MODEL 8
REMARK VINA RESULT:      -7.2      2.065      6.339
REMARK  Name = 
REMARK  5 active torsions:
REMARK  status: ('A' for Active; 'I' for Inactive)
REMARK    1  A    between atoms: C_2  and  O_3
REMARK    2  A    between atoms: C_2  and  C_4
REMARK    3  A    between atoms: C_8  and  C_9
REMARK    4  A    between atoms: CA_13  and  C_14
REMARK    5  A    between atoms: C_14  and  OXT_16
REMARK                            x       y       z     vdW  Elec       q    Type
REMARK                         _______ _______ _______ _____ _____    ______ ____
ROOT
ATOM      1  C   UNL     1       2.218   3.240  20.075  0.00  0.00    +0.000 A 
ATOM      2  C   UNL     1       1.101   3.346  19.252  0.00  0.00    +0.000 A 
ATOM      3  C   UNL     1       1.292   3.838  17.979  0.00  0.00    +0.000 A 
ATOM      4  N   UNL     1       2.499   4.206  17.491  0.00  0.00    +0.000 NA
ATOM      5  C   UNL     1       3.594   4.062  18.286  0.00  0.00    +0.000 A 
ATOM      6  C   UNL     1       3.480   3.580  19.588  0.00  0.00    +0.000 A 
ENDROOT
BRANCH   5   7
ATOM      7  C   UNL     1       4.909   4.406  17.692  0.00  0.00    +0.000 A 
ATOM      8  C   UNL     1       5.267   4.002  16.402  0.00  0.00    +0.000 A 
ATOM      9  C   UNL     1       6.535   4.305  15.904  0.00  0.00    +0.000 A 
ATOM     10  C   UNL     1       7.427   5.011  16.698  0.00  0.00    +0.000 A 
ATOM     11  CA  UNL     1       7.001   5.395  17.958  0.00  0.00    +0.000 A 
ATOM     12  N   UNL     1       5.767   5.117  18.481  0.00  0.00    +0.000 NA
BRANCH  11  13
ATOM     13  C   UNL     1       7.918   6.165  18.850  0.00  0.00    +0.000 C 
ATOM     14  O   UNL     1       8.308   7.298  18.638  0.00  0.00    +0.000 OA
BRANCH  13  15
ATOM     15  OXT UNL     1       8.253   5.432  19.940  0.00  0.00    +0.000 OA
ATOM     16  HXT UNL     1       8.729   6.013  20.574  0.00  0.00    +0.000 HD
ENDBRANCH  13  15
ENDBRANCH  11  13
ENDBRANCH   5   7
BRANCH   1  18
ATOM     17  O   UNL     1       2.980   2.319  22.118  0.00  0.00    +0.000 OA
ATOM     18  C   UNL     1       2.043   2.698  21.439  0.00  0.00    +0.000 C 
BRANCH  18  19
ATOM     19  O   UNL     1       0.757   2.634  21.841  0.00  0.00    +0.000 OA
ATOM     20  H   UNL     1       0.107   3.068  21.257  0.00  0.00    +0.000 HD
ENDBRANCH  18  19
ENDBRANCH   1  18
TORSDOF 5
ENDMDL
MODEL 9
REMARK VINA RESULT:      -7.2      2.119      2.581
REMARK  Name = 
REMARK  5 active torsions:
REMARK  status: ('A' for Active; 'I' for Inactive)
REMARK    1  A    between atoms: C_2  and  O_3
REMARK    2  A    between atoms: C_2  and  C_4
REMARK    3  A    between atoms: C_8  and  C_9
REMARK    4  A    between atoms: CA_13  and  C_14
REMARK    5  A    between atoms: C_14  and  OXT_16
REMARK                            x       y       z     vdW  Elec       q    Type
REMARK                         _______ _______ _______ _____ _____    ______ ____
ROOT
ATOM      1  C   UNL     1       6.856   5.884  17.256  0.00  0.00    +0.000 A 
ATOM      2  C   UNL     1       7.204   5.396  16.001  0.00  0.00    +0.000 A 
ATOM      3  C   UNL     1       6.486   4.326  15.510  0.00  0.00    +0.000 A 
ATOM      4  N   UNL     1       5.463   3.743  16.176  0.00  0.00    +0.000 NA
ATOM      5  C   UNL     1       5.100   4.250  17.385  0.00  0.00    +0.000 A 
ATOM      6  C   UNL     1       5.783   5.324  17.950  0.00  0.00    +0.000 A 
ENDROOT
BRANCH   5   7
ATOM      7  C   UNL     1       3.927   3.632  18.050  0.00  0.00    +0.000 A 
ATOM      8  C   UNL     1       3.096   2.720  17.390  0.00  0.00    +0.000 A 
ATOM      9  C   UNL     1       1.975   2.204  18.040  0.00  0.00    +0.000 A 
ATOM     10  C   UNL     1       1.699   2.599  19.340  0.00  0.00    +0.000 A 
ATOM     11  CA  UNL     1       2.573   3.491  19.940  0.00  0.00    +0.000 A 
ATOM     12  N   UNL     1       3.682   4.018  19.337  0.00  0.00    +0.000 NA
BRANCH  11  13
ATOM     13  C   UNL     1       2.328   3.943  21.342  0.00  0.00    +0.000 C 
ATOM     14  O   UNL     1       2.146   3.203  22.292  0.00  0.00    +0.000 OA
BRANCH  13  15
ATOM     15  OXT UNL     1       2.346   5.295  21.419  0.00  0.00    +0.000 OA
ATOM     16  HXT UNL     1       2.157   5.559  22.347  0.00  0.00    +0.000 HD
ENDBRANCH  13  15
ENDBRANCH  11  13
ENDBRANCH   5   7
BRANCH   1  18
ATOM     17  O   UNL     1       7.632   8.121  17.229  0.00  0.00    +0.000 OA
ATOM     18  C   UNL     1       7.598   7.043  17.796  0.00  0.00    +0.000 C 
BRANCH  18  19
ATOM     19  O   UNL     1       8.252   6.785  18.946  0.00  0.00    +0.000 OA
ATOM     20  H   UNL     1       7.724   6.860  19.763  0.00  0.00    +0.000 HD
ENDBRANCH  18  19
ENDBRANCH   1  18
TORSDOF 5
ENDMDL
