MODEL 1
REMARK VINA RESULT:      -7.2      0.000      0.000
REMARK  Name = 
REMARK  5 active torsions:
REMARK  status: ('A' for Active; 'I' for Inactive)
REMARK    1  A    between atoms: C_1  and  C_2
REMARK    2  A    between atoms: C_2  and  C_3
REMARK    3  A    between atoms: C_4  and  C_5
REMARK    4  A    between atoms: C_11  and  C_12
REMARK    5  A    between atoms: N_18  and  O_19
REMARK                            x       y       z     vdW  Elec       q    Type
REMARK                         _______ _______ _______ _____ _____    ______ ____
ROOT
ATOM      1  C   UNL     1       6.752   6.834  17.693  0.00  0.00    +0.000 C 
ATOM      2  C   UNL     1       5.514   5.935  17.834  0.00  0.00    +0.000 C 
ATOM      3  C   UNL     1       4.258   6.737  17.458  0.00  0.00    +0.000 C 
ATOM      4  C   UNL     1       5.555   4.619  17.051  0.00  0.00    +0.000 C 
ATOM      5  N   UNL     1       5.225   3.561  17.732  0.00  0.00    +0.000 NA
ATOM      6  C   UNL     1       4.870   4.049  19.077  0.00  0.00    +0.000 C 
ATOM      7  N   UNL     1       5.334   5.453  19.240  0.00  0.00    +0.000 NA
ENDROOT
BRANCH   6   8
ATOM      8  C   UNL     1       3.384   3.855  19.382  0.00  0.00    +0.000 A 
ATOM      9  C   UNL     1       2.673   2.809  18.767  0.00  0.00    +0.000 A 
ATOM     10  C   UNL     1       1.333   2.565  19.078  0.00  0.00    +0.000 A 
ATOM     11  C   UNL     1       0.684   3.356  20.020  0.00  0.00    +0.000 A 
ATOM     12  C   UNL     1       1.372   4.388  20.653  0.00  0.00    +0.000 A 
ATOM     13  C   UNL     1       2.716   4.631  20.343  0.00  0.00    +0.000 A 
ENDBRANCH   6   8
BRANCH   4  14
ATOM     14  C   UNL     1       5.871   4.445  15.640  0.00  0.00    +0.000 A 
ATOM     15  C   UNL     1       5.028   3.911  14.676  0.00  0.00    +0.000 A 
ATOM     16  C   UNL     1       5.607   3.884  13.375  0.00  0.00    +0.000 A 
ATOM     17  C   UNL     1       6.880   4.399  13.377  0.00  0.00    +0.000 A 
ATOM     18  S   UNL     1       7.351   4.922  14.931  0.00  0.00    +0.000 S 
ENDBRANCH   4  14
BRANCH   7  19
ATOM     19  O   UNL     1       6.668   5.306  19.830  0.00  0.00    +0.000 OA
ATOM     20  H   UNL     1       7.204   5.859  19.231  0.00  0.00    +0.000 HD
ENDBRANCH   7  19
TORSDOF 3
ENDMDL
MODEL 2
REMARK VINA RESULT:      -7.2      0.116      1.110
REMARK  Name = 
REMARK  5 active torsions:
REMARK  status: ('A' for Active; 'I' for Inactive)
REMARK    1  A    between atoms: C_1  and  C_2
REMARK    2  A    between atoms: C_2  and  C_3
REMARK    3  A    between atoms: C_4  and  C_5
REMARK    4  A    between atoms: C_11  and  C_12
REMARK    5  A    between atoms: N_18  and  O_19
REMARK                            x       y       z     vdW  Elec       q    Type
REMARK                         _______ _______ _______ _____ _____    ______ ____
ROOT
ATOM      1  C   UNL     1       6.760   6.861  17.675  0.00  0.00    +0.000 C 
ATOM      2  C   UNL     1       5.538   5.948  17.852  0.00  0.00    +0.000 C 
ATOM      3  C   UNL     1       4.263   6.728  17.493  0.00  0.00    +0.000 C 
ATOM      4  C   UNL     1       5.581   4.623  17.083  0.00  0.00    +0.000 C 
ATOM      5  N   UNL     1       5.279   3.569  17.783  0.00  0.00    +0.000 NA
ATOM      6  C   UNL     1       4.945   4.067  19.129  0.00  0.00    +0.000 C 
ATOM      7  N   UNL     1       5.393   5.479  19.266  0.00  0.00    +0.000 NA
ENDROOT
BRANCH   6   8
ATOM      8  C   UNL     1       3.468   3.857  19.466  0.00  0.00    +0.000 A 
ATOM      9  C   UNL     1       2.808   4.761  20.318  0.00  0.00    +0.000 A 
ATOM     10  C   UNL     1       1.444   4.636  20.588  0.00  0.00    +0.000 A 
ATOM     11  C   UNL     1       0.711   3.608  20.002  0.00  0.00    +0.000 A 
ATOM     12  C   UNL     1       1.340   2.709  19.144  0.00  0.00    +0.000 A 
ATOM     13  C   UNL     1       2.708   2.838  18.870  0.00  0.00    +0.000 A 
ENDBRANCH   6   8
BRANCH   4  14
ATOM     14  C   UNL     1       5.870   4.437  15.669  0.00  0.00    +0.000 A 
ATOM     15  C   UNL     1       5.005   3.904  14.723  0.00  0.00    +0.000 A 
ATOM     16  C   UNL     1       5.562   3.863  13.412  0.00  0.00    +0.000 A 
ATOM     17  C   UNL     1       6.839   4.368  13.388  0.00  0.00    +0.000 A 
ATOM     18  S   UNL     1       7.342   4.896  14.930  0.00  0.00    +0.000 S 
ENDBRANCH   4  14
BRANCH   7  19
ATOM     19  O   UNL     1       6.740   5.358  19.831  0.00  0.00    +0.000 OA
ATOM     20  H   UNL     1       6.597   5.690  20.738  0.00  0.00    +0.000 HD
ENDBRANCH   7  19
TORSDOF 3
ENDMDL
MODEL 3
REMARK VINA RESULT:      -7.2      2.791      5.950
REMARK  Name = 
REMARK  5 active torsions:
REMARK  status: ('A' for Active; 'I' for Inactive)
REMARK    1  A    between atoms: C_1  and  C_2
REMARK    2  A    between atoms: C_2  and  C_3
REMARK    3  A    between atoms: C_4  and  C_5
REMARK    4  A    between atoms: C_11  and  C_12
REMARK    5  A    between atoms: N_18  and  O_19
REMARK                            x       y       z     vdW  Elec       q    Type
REMARK                         _______ _______ _______ _____ _____    ______ ____
ROOT
ATOM      1  C   UNL     1       1.062   3.846  20.017  0.00  0.00    +0.000 C 
ATOM      2  C   UNL     1       2.214   4.346  19.133  0.00  0.00    +0.000 C 
ATOM      3  C   UNL     1       1.740   4.415  17.672  0.00  0.00    +0.000 C 
ATOM      4  C   UNL     1       2.840   5.682  19.548  0.00  0.00    +0.000 C 
ATOM      5  N   UNL     1       4.139   5.689  19.600  0.00  0.00    +0.000 NA
ATOM      6  C   UNL     1       4.562   4.344  19.173  0.00  0.00    +0.000 C 
ATOM      7  N   UNL     1       3.392   3.425  19.180  0.00  0.00    +0.000 NA
ENDROOT
BRANCH   6   8
ATOM      8  C   UNL     1       5.310   4.375  17.839  0.00  0.00    +0.000 A 
ATOM      9  C   UNL     1       6.674   4.716  17.808  0.00  0.00    +0.000 A 
ATOM     10  C   UNL     1       7.400   4.685  16.615  0.00  0.00    +0.000 A 
ATOM     11  C   UNL     1       6.776   4.302  15.432  0.00  0.00    +0.000 A 
ATOM     12  C   UNL     1       5.429   3.946  15.441  0.00  0.00    +0.000 A 
ATOM     13  C   UNL     1       4.703   3.974  16.638  0.00  0.00    +0.000 A 
ENDBRANCH   6   8
BRANCH   4  14
ATOM     14  C   UNL     1       2.143   6.927  19.836  0.00  0.00    +0.000 A 
ATOM     15  C   UNL     1       1.479   7.237  21.015  0.00  0.00    +0.000 A 
ATOM     16  C   UNL     1       0.905   8.541  21.011  0.00  0.00    +0.000 A 
ATOM     17  C   UNL     1       1.144   9.196  19.828  0.00  0.00    +0.000 A 
ATOM     18  S   UNL     1       2.066   8.247  18.752  0.00  0.00    +0.000 S 
ENDBRANCH   4  14
BRANCH   7  19
ATOM     19  O   UNL     1       3.433   2.828  20.518  0.00  0.00    +0.000 OA
ATOM     20  H   UNL     1       3.369   1.878  20.305  0.00  0.00    +0.000 HD
ENDBRANCH   7  19
TORSDOF 3
ENDMDL
MODEL 4
REMARK VINA RESULT:      -7.1      2.802      5.840
REMARK  Name = 
REMARK  5 active torsions:
REMARK  status: ('A' for Active; 'I' for Inactive)
REMARK    1  A    between atoms: C_1  and  C_2
REMARK    2  A    between atoms: C_2  and  C_3
REMARK    3  A    between atoms: C_4  and  C_5
REMARK    4  A    between atoms: C_11  and  C_12
REMARK    5  A    between atoms: N_18  and  O_19
REMARK                            x       y       z     vdW  Elec       q    Type
REMARK                         _______ _______ _______ _____ _____    ______ ____
ROOT
ATOM      1  C   UNL     1       1.003   3.952  20.021  0.00  0.00    +0.000 C 
ATOM      2  C   UNL     1       2.185   4.386  19.140  0.00  0.00    +0.000 C 
ATOM      3  C   UNL     1       1.740   4.409  17.669  0.00  0.00    +0.000 C 
ATOM      4  C   UNL     1       2.839   5.720  19.515  0.00  0.00    +0.000 C 
ATOM      5  N   UNL     1       4.137   5.695  19.591  0.00  0.00    +0.000 NA
ATOM      6  C   UNL     1       4.531   4.323  19.225  0.00  0.00    +0.000 C 
ATOM      7  N   UNL     1       3.337   3.436  19.246  0.00  0.00    +0.000 NA
ENDROOT
BRANCH   6   8
ATOM      8  C   UNL     1       5.303   4.281  17.905  0.00  0.00    +0.000 A 
ATOM      9  C   UNL     1       4.636   3.945  16.714  0.00  0.00    +0.000 A 
ATOM     10  C   UNL     1       5.298   3.966  15.484  0.00  0.00    +0.000 A 
ATOM     11  C   UNL     1       6.638   4.337  15.423  0.00  0.00    +0.000 A 
ATOM     12  C   UNL     1       7.315   4.688  16.588  0.00  0.00    +0.000 A 
ATOM     13  C   UNL     1       6.650   4.670  17.820  0.00  0.00    +0.000 A 
ENDBRANCH   6   8
BRANCH   4  14
ATOM     14  C   UNL     1       2.171   6.994  19.740  0.00  0.00    +0.000 A 
ATOM     15  C   UNL     1       1.567   7.401  20.921  0.00  0.00    +0.000 A 
ATOM     16  C   UNL     1       1.009   8.709  20.846  0.00  0.00    +0.000 A 
ATOM     17  C   UNL     1       1.201   9.271  19.608  0.00  0.00    +0.000 A 
ATOM     18  S   UNL     1       2.060   8.230  18.565  0.00  0.00    +0.000 S 
ENDBRANCH   4  14
BRANCH   7  19
ATOM     19  O   UNL     1       3.337   2.892  20.607  0.00  0.00    +0.000 OA
ATOM     20  H   UNL     1       2.449   3.152  20.916  0.00  0.00    +0.000 HD
ENDBRANCH   7  19
TORSDOF 3
ENDMDL
MODEL 5
REMARK VINA RESULT:      -6.9      2.250      5.843
REMARK  Name = 
REMARK  5 active torsions:
REMARK  status: ('A' for Active; 'I' for Inactive)
REMARK    1  A    between atoms: C_1  and  C_2
REMARK    2  A    between atoms: C_2  and  C_3
REMARK    3  A    between atoms: C_4  and  C_5
REMARK    4  A    between atoms: C_11  and  C_12
REMARK    5  A    between atoms: N_18  and  O_19
REMARK                            x       y       z     vdW  Elec       q    Type
REMARK                         _______ _______ _______ _____ _____    ______ ____
ROOT
ATOM      1  C   UNL     1       7.471   6.228  18.957  0.00  0.00    +0.000 C 
ATOM      2  C   UNL     1       6.995   5.513  17.683  0.00  0.00    +0.000 C 
ATOM      3  C   UNL     1       7.750   4.182  17.534  0.00  0.00    +0.000 C 
ATOM      4  C   UNL     1       5.484   5.279  17.577  0.00  0.00    +0.000 C 
ATOM      5  N   UNL     1       4.951   5.621  16.442  0.00  0.00    +0.000 NA
ATOM      6  C   UNL     1       6.067   6.099  15.606  0.00  0.00    +0.000 C 
ATOM      7  N   UNL     1       7.268   6.324  16.455  0.00  0.00    +0.000 NA
ENDROOT
BRANCH   6   8
ATOM      8  C   UNL     1       6.323   5.177  14.412  0.00  0.00    +0.000 A 
ATOM      9  C   UNL     1       5.363   4.215  14.052  0.00  0.00    +0.000 A 
ATOM     10  C   UNL     1       5.537   3.407  12.926  0.00  0.00    +0.000 A 
ATOM     11  C   UNL     1       6.671   3.556  12.133  0.00  0.00    +0.000 A 
ATOM     12  C   UNL     1       7.628   4.512  12.462  0.00  0.00    +0.000 A 
ATOM     13  C   UNL     1       7.451   5.324  13.589  0.00  0.00    +0.000 A 
ENDBRANCH   6   8
BRANCH   4  14
ATOM     14  C   UNL     1       4.616   4.678  18.580  0.00  0.00    +0.000 A 
ATOM     15  C   UNL     1       4.605   3.341  18.953  0.00  0.00    +0.000 A 
ATOM     16  C   UNL     1       3.656   3.051  19.975  0.00  0.00    +0.000 A 
ATOM     17  C   UNL     1       2.965   4.174  20.359  0.00  0.00    +0.000 A 
ATOM     18  S   UNL     1       3.477   5.557  19.502  0.00  0.00    +0.000 S 
ENDBRANCH   4  14
BRANCH   7  19
ATOM     19  O   UNL     1       7.165   7.738  16.827  0.00  0.00    +0.000 OA
ATOM     20  H   UNL     1       7.704   7.761  17.639  0.00  0.00    +0.000 HD
ENDBRANCH   7  19
TORSDOF 3
ENDMDL
MODEL 6
REMARK VINA RESULT:      -6.8      0.776      1.492
REMARK  Name = 
REMARK  5 active torsions:
REMARK  status: ('A' for Active; 'I' for Inactive)
REMARK    1  A    between atoms: C_1  and  C_2
REMARK    2  A    between atoms: C_2  and  C_3
REMARK    3  A    between atoms: C_4  and  C_5
REMARK    4  A    between atoms: C_11  and  C_12
REMARK    5  A    between atoms: N_18  and  O_19
REMARK                            x       y       z     vdW  Elec       q    Type
REMARK                         _______ _______ _______ _____ _____    ______ ____
ROOT
ATOM      1  C   UNL     1       6.982   6.921  17.755  0.00  0.00    +0.000 C 
ATOM      2  C   UNL     1       5.758   5.994  17.824  0.00  0.00    +0.000 C 
ATOM      3  C   UNL     1       4.499   6.785  17.435  0.00  0.00    +0.000 C 
ATOM      4  C   UNL     1       5.851   4.707  16.997  0.00  0.00    +0.000 C 
ATOM      5  N   UNL     1       5.521   3.620  17.629  0.00  0.00    +0.000 NA
ATOM      6  C   UNL     1       5.113   4.052  18.978  0.00  0.00    +0.000 C 
ATOM      7  N   UNL     1       5.543   5.458  19.205  0.00  0.00    +0.000 NA
ENDROOT
BRANCH   6   8
ATOM      8  C   UNL     1       3.622   3.819  19.227  0.00  0.00    +0.000 A 
ATOM      9  C   UNL     1       2.933   4.621  20.154  0.00  0.00    +0.000 A 
ATOM     10  C   UNL     1       1.558   4.479  20.352  0.00  0.00    +0.000 A 
ATOM     11  C   UNL     1       0.844   3.538  19.616  0.00  0.00    +0.000 A 
ATOM     12  C   UNL     1       1.503   2.742  18.681  0.00  0.00    +0.000 A 
ATOM     13  C   UNL     1       2.881   2.888  18.481  0.00  0.00    +0.000 A 
ENDBRANCH   6   8
BRANCH   4  14
ATOM     14  C   UNL     1       6.215   4.590  15.592  0.00  0.00    +0.000 A 
ATOM     15  C   UNL     1       7.339   5.141  14.993  0.00  0.00    +0.000 A 
ATOM     16  C   UNL     1       7.439   4.843  13.603  0.00  0.00    +0.000 A 
ATOM     17  C   UNL     1       6.387   4.070  13.175  0.00  0.00    +0.000 A 
ATOM     18  S   UNL     1       5.312   3.701  14.446  0.00  0.00    +0.000 S 
ENDBRANCH   4  14
BRANCH   7  19
ATOM     19  O   UNL     1       6.860   5.317  19.834  0.00  0.00    +0.000 OA
ATOM     20  H   UNL     1       7.108   4.415  19.556  0.00  0.00    +0.000 HD
ENDBRANCH   7  19
TORSDOF 3
ENDMDL
MODEL 7
REMARK VINA RESULT:      -6.8      3.092      5.958
REMARK  Name = 
REMARK  5 active torsions:
REMARK  status: ('A' for Active; 'I' for Inactive)
REMARK    1  A    between atoms: C_1  and  C_2
REMARK    2  A    between atoms: C_2  and  C_3
REMARK    3  A    between atoms: C_4  and  C_5
REMARK    4  A    between atoms: C_11  and  C_12
REMARK    5  A    between atoms: N_18  and  O_19
REMARK                            x       y       z     vdW  Elec       q    Type
REMARK                         _______ _______ _______ _____ _____    ______ ____
ROOT
ATOM      1  C   UNL     1       1.088   4.221  20.000  0.00  0.00    +0.000 C 
ATOM      2  C   UNL     1       2.223   4.665  19.064  0.00  0.00    +0.000 C 
ATOM      3  C   UNL     1       1.726   4.630  17.610  0.00  0.00    +0.000 C 
ATOM      4  C   UNL     1       2.847   6.029  19.376  0.00  0.00    +0.000 C 
ATOM      5  N   UNL     1       4.147   6.048  19.406  0.00  0.00    +0.000 NA
ATOM      6  C   UNL     1       4.572   4.678  19.066  0.00  0.00    +0.000 C 
ATOM      7  N   UNL     1       3.408   3.755  19.155  0.00  0.00    +0.000 NA
ENDROOT
BRANCH   6   8
ATOM      8  C   UNL     1       5.298   4.621  17.721  0.00  0.00    +0.000 A 
ATOM      9  C   UNL     1       6.405   5.456  17.487  0.00  0.00    +0.000 A 
ATOM     10  C   UNL     1       7.130   5.377  16.296  0.00  0.00    +0.000 A 
ATOM     11  C   UNL     1       6.767   4.453  15.321  0.00  0.00    +0.000 A 
ATOM     12  C   UNL     1       5.683   3.606  15.537  0.00  0.00    +0.000 A 
ATOM     13  C   UNL     1       4.958   3.683  16.733  0.00  0.00    +0.000 A 
ENDBRANCH   6   8
BRANCH   4  14
ATOM     14  C   UNL     1       2.146   7.288  19.588  0.00  0.00    +0.000 A 
ATOM     15  C   UNL     1       1.943   8.278  18.638  0.00  0.00    +0.000 A 
ATOM     16  C   UNL     1       1.206   9.392  19.135  0.00  0.00    +0.000 A 
ATOM     17  C   UNL     1       0.863   9.224  20.454  0.00  0.00    +0.000 A 
ATOM     18  S   UNL     1       1.413   7.731  21.068  0.00  0.00    +0.000 S 
ENDBRANCH   4  14
BRANCH   7  19
ATOM     19  O   UNL     1       3.474   3.253  20.530  0.00  0.00    +0.000 OA
ATOM     20  H   UNL     1       4.027   2.457  20.416  0.00  0.00    +0.000 HD
ENDBRANCH   7  19
TORSDOF 3
ENDMDL
MODEL 8
REMARK VINA RESULT:      -6.7      2.254      5.862
REMARK  Name = 
REMARK  5 active torsions:
REMARK  status: ('A' for Active; 'I' for Inactive)
REMARK    1  A    between atoms: C_1  and  C_2
REMARK    2  A    between atoms: C_2  and  C_3
REMARK    3  A    between atoms: C_4  and  C_5
REMARK    4  A    between atoms: C_11  and  C_12
REMARK    5  A    between atoms: N_18  and  O_19
REMARK                            x       y       z     vdW  Elec       q    Type
REMARK                         _______ _______ _______ _____ _____    ______ ____
ROOT
ATOM      1  C   UNL     1       7.520   6.165  18.997  0.00  0.00    +0.000 C 
ATOM      2  C   UNL     1       7.008   5.507  17.707  0.00  0.00    +0.000 C 
ATOM      3  C   UNL     1       7.737   4.171  17.493  0.00  0.00    +0.000 C 
ATOM      4  C   UNL     1       5.491   5.302  17.621  0.00  0.00    +0.000 C 
ATOM      5  N   UNL     1       4.943   5.696  16.510  0.00  0.00    +0.000 NA
ATOM      6  C   UNL     1       6.051   6.187  15.672  0.00  0.00    +0.000 C 
ATOM      7  N   UNL     1       7.272   6.359  16.505  0.00  0.00    +0.000 NA
ENDROOT
BRANCH   6   8
ATOM      8  C   UNL     1       6.269   5.307  14.439  0.00  0.00    +0.000 A 
ATOM      9  C   UNL     1       7.438   5.454  13.671  0.00  0.00    +0.000 A 
ATOM     10  C   UNL     1       7.698   4.620  12.582  0.00  0.00    +0.000 A 
ATOM     11  C   UNL     1       6.797   3.612  12.249  0.00  0.00    +0.000 A 
ATOM     12  C   UNL     1       5.640   3.438  13.004  0.00  0.00    +0.000 A 
ATOM     13  C   UNL     1       5.382   4.274  14.098  0.00  0.00    +0.000 A 
ENDBRANCH   6   8
BRANCH   4  14
ATOM     14  C   UNL     1       4.632   4.677  18.617  0.00  0.00    +0.000 A 
ATOM     15  C   UNL     1       4.642   3.337  18.977  0.00  0.00    +0.000 A 
ATOM     16  C   UNL     1       3.696   3.022  19.996  0.00  0.00    +0.000 A 
ATOM     17  C   UNL     1       2.988   4.130  20.390  0.00  0.00    +0.000 A 
ATOM     18  S   UNL     1       3.479   5.530  19.547  0.00  0.00    +0.000 S 
ENDBRANCH   4  14
BRANCH   7  19
ATOM     19  O   UNL     1       7.200   7.759  16.932  0.00  0.00    +0.000 OA
ATOM     20  H   UNL     1       6.242   7.863  17.086  0.00  0.00    +0.000 HD
ENDBRANCH   7  19
TORSDOF 3
ENDMDL
MODEL 9
REMARK VINA RESULT:      -6.7      2.836      5.926
REMARK  Name = 
REMARK  5 active torsions:
REMARK  status: ('A' for Active; 'I' for Inactive)
REMARK    1  A    between atoms: C_1  and  C_2
REMARK    2  A    between atoms: C_2  and  C_3
REMARK    3  A    between atoms: C_4  and  C_5
REMARK    4  A    between atoms: C_11  and  C_12
REMARK    5  A    between atoms: N_18  and  O_19
REMARK                            x       y       z     vdW  Elec       q    Type
REMARK                         _______ _______ _______ _____ _____    ______ ____
ROOT
ATOM      1  C   UNL     1       3.094   3.583  16.642  0.00  0.00    +0.000 C 
ATOM      2  C   UNL     1       4.130   4.465  17.357  0.00  0.00    +0.000 C 
ATOM      3  C   UNL     1       3.634   5.919  17.376  0.00  0.00    +0.000 C 
ATOM      4  C   UNL     1       4.520   4.020  18.771  0.00  0.00    +0.000 C 
ATOM      5  N   UNL     1       5.798   3.980  19.004  0.00  0.00    +0.000 NA
ATOM      6  C   UNL     1       6.444   4.444  17.763  0.00  0.00    +0.000 C 
ATOM      7  N   UNL     1       5.452   4.451  16.655  0.00  0.00    +0.000 NA
ENDROOT
BRANCH   6   8
ATOM      8  C   UNL     1       7.157   5.783  17.957  0.00  0.00    +0.000 A 
ATOM      9  C   UNL     1       6.955   6.825  17.033  0.00  0.00    +0.000 A 
ATOM     10  C   UNL     1       7.537   8.080  17.220  0.00  0.00    +0.000 A 
ATOM     11  C   UNL     1       8.324   8.321  18.343  0.00  0.00    +0.000 A 
ATOM     12  C   UNL     1       8.526   7.309  19.278  0.00  0.00    +0.000 A 
ATOM     13  C   UNL     1       7.939   6.052  19.092  0.00  0.00    +0.000 A 
ENDBRANCH   6   8
BRANCH   4  14
ATOM     14  C   UNL     1       3.620   3.695  19.869  0.00  0.00    +0.000 A 
ATOM     15  C   UNL     1       3.577   2.492  20.559  0.00  0.00    +0.000 A 
ATOM     16  C   UNL     1       2.601   2.473  21.597  0.00  0.00    +0.000 A 
ATOM     17  C   UNL     1       1.922   3.664  21.674  0.00  0.00    +0.000 A 
ATOM     18  S   UNL     1       2.476   4.788  20.517  0.00  0.00    +0.000 S 
ENDBRANCH   4  14
BRANCH   7  19
ATOM     19  O   UNL     1       5.613   3.129  16.042  0.00  0.00    +0.000 OA
ATOM     20  H   UNL     1       6.116   3.352  15.237  0.00  0.00    +0.000 HD
ENDBRANCH   7  19
TORSDOF 3
ENDMDL
