MODEL 1
REMARK VINA RESULT:      -8.1      0.000      0.000
REMARK  Name = 
REMARK  11 active torsions:
REMARK  status: ('A' for Active; 'I' for Inactive)
REMARK    1  A    between atoms: C_1  and  C_2
REMARK    2  A    between atoms: C_2  and  O_3
REMARK    3  A    between atoms: C_2  and  C_4
REMARK    4  A    between atoms: N_7  and  C_8
REMARK    5  A    between atoms: C_8  and  C_9
REMARK    6  A    between atoms: C_9  and  C_10
REMARK    7  A    between atoms: C_10  and  C_11
REMARK    8  A    between atoms: C_10  and  C_22
REMARK    9  A    between atoms: C_11  and  N_12
REMARK   10  A    between atoms: N_12  and  C_13
REMARK   11  A    between atoms: C_14  and  C_16
REMARK                            x       y       z     vdW  Elec       q    Type
REMARK                         _______ _______ _______ _____ _____    ______ ____
ROOT
ATOM      1  C   UNL     1       3.298   6.421  17.850  0.00  0.00    +0.000 C 
ENDROOT
BRANCH   1   2
ATOM      2  C   UNL     1       2.648   5.433  18.841  0.00  0.00    +0.000 A 
ATOM      3  C   UNL     1       2.943   5.519  20.211  0.00  0.00    +0.000 A 
ATOM      4  C   UNL     1       2.455   4.569  21.122  0.00  0.00    +0.000 A 
ATOM      5  C   UNL     1       1.682   3.500  20.680  0.00  0.00    +0.000 A 
ATOM      6 CL   UNL     1       1.155   2.337  21.846  0.00  0.00    +0.000 Cl
ATOM      7  C   UNL     1       1.376   3.392  19.323  0.00  0.00    +0.000 A 
ATOM      8 CL   UNL     1       0.460   2.075  18.678  0.00  0.00    +0.000 Cl
ATOM      9  C   UNL     1       1.845   4.356  18.424  0.00  0.00    +0.000 A 
ENDBRANCH   1   2
BRANCH   1  10
ATOM     10  C   UNL     1       2.796   7.877  18.032  0.00  0.00    +0.000 C 
BRANCH  10  11
ATOM     11  C   UNL     1       1.751   8.124  19.126  0.00  0.00    +0.000 C 
BRANCH  11  15
ATOM     12  C   UNL     1      -0.083  12.031  19.309  0.00  0.00    +0.000 C 
ATOM     13  C   UNL     1       1.294  11.879  18.639  0.00  0.00    +0.000 C 
ATOM     14  C   UNL     1       1.630  10.422  18.308  0.00  0.00    +0.000 C 
ATOM     15  N   UNL     1       1.521   9.535  19.483  0.00  0.00    +0.000 NA
ATOM     16  C   UNL     1       0.197   9.650  20.121  0.00  0.00    +0.000 C 
ATOM     17  C   UNL     1      -0.113  11.091  20.520  0.00  0.00    +0.000 C 
BRANCH  12  19
ATOM     18  C   UNL     1      -2.624  11.914  18.964  0.00  0.00    +0.000 C 
ATOM     19  C   UNL     1      -1.248  11.792  18.317  0.00  0.00    +0.000 C 
BRANCH  19  20
ATOM     20  O   UNL     1      -1.175  12.746  17.257  0.00  0.00    +0.000 OA
ATOM     21  H   UNL     1      -0.575  13.459  17.533  0.00  0.00    +0.000 HD
ENDBRANCH  19  20
ENDBRANCH  12  19
ENDBRANCH  11  15
ENDBRANCH  10  11
ENDBRANCH   1  10
BRANCH   1  22
ATOM     22  C   UNL     1       4.851   6.319  17.729  0.00  0.00    +0.000 C 
BRANCH  22  23
ATOM     23  N   UNL     1       5.382   5.456  16.659  0.00  0.00    +0.000 N 
ATOM     24  C   UNL     1       6.075   4.238  17.062  0.00  0.00    +0.000 C 
ATOM     25  C   UNL     1       5.446   5.970  15.352  0.00  0.00    +0.000 C 
ATOM     26  O   UNL     1       5.143   7.131  15.080  0.00  0.00    +0.000 OA
BRANCH  25  27
ATOM     27  C   UNL     1       5.938   5.116  14.228  0.00  0.00    +0.000 A 
ATOM     28  C   UNL     1       7.224   5.245  13.692  0.00  0.00    +0.000 A 
ATOM     29  C   UNL     1       7.625   4.447  12.617  0.00  0.00    +0.000 A 
ATOM     30  C   UNL     1       6.766   3.473  12.111  0.00  0.00    +0.000 A 
ATOM     31  C   UNL     1       5.506   3.293  12.682  0.00  0.00    +0.000 A 
ATOM     32  C   UNL     1       5.092   4.112  13.734  0.00  0.00    +0.000 A 
ENDBRANCH  25  27
ENDBRANCH  22  23
ENDBRANCH   1  22
TORSDOF 9
ENDMDL
MODEL 2
REMARK VINA RESULT:      -8.0      0.826      1.330
REMARK  Name = 
REMARK  11 active torsions:
REMARK  status: ('A' for Active; 'I' for Inactive)
REMARK    1  A    between atoms: C_1  and  C_2
REMARK    2  A    between atoms: C_2  and  O_3
REMARK    3  A    between atoms: C_2  and  C_4
REMARK    4  A    between atoms: N_7  and  C_8
REMARK    5  A    between atoms: C_8  and  C_9
REMARK    6  A    between atoms: C_9  and  C_10
REMARK    7  A    between atoms: C_10  and  C_11
REMARK    8  A    between atoms: C_10  and  C_22
REMARK    9  A    between atoms: C_11  and  N_12
REMARK   10  A    between atoms: N_12  and  C_13
REMARK   11  A    between atoms: C_14  and  C_16
REMARK                            x       y       z     vdW  Elec       q    Type
REMARK                         _______ _______ _______ _____ _____    ______ ____
ROOT
ATOM      1  C   UNL     1       3.285   6.517  17.779  0.00  0.00    +0.000 C 
ENDROOT
BRANCH   1   2
ATOM      2  C   UNL     1       2.646   5.532  18.780  0.00  0.00    +0.000 A 
ATOM      3  C   UNL     1       2.925   5.647  20.152  0.00  0.00    +0.000 A 
ATOM      4  C   UNL     1       2.448   4.702  21.074  0.00  0.00    +0.000 A 
ATOM      5  C   UNL     1       1.702   3.610  20.642  0.00  0.00    +0.000 A 
ATOM      6 CL   UNL     1       1.187   2.456  21.822  0.00  0.00    +0.000 Cl
ATOM      7  C   UNL     1       1.411   3.474  19.284  0.00  0.00    +0.000 A 
ATOM      8 CL   UNL     1       0.528   2.128  18.653  0.00  0.00    +0.000 Cl
ATOM      9  C   UNL     1       1.869   4.432  18.374  0.00  0.00    +0.000 A 
ENDBRANCH   1   2
BRANCH   1  10
ATOM     10  C   UNL     1       2.905   7.995  18.059  0.00  0.00    +0.000 C 
BRANCH  10  11
ATOM     11  C   UNL     1       1.613   8.247  18.846  0.00  0.00    +0.000 C 
BRANCH  11  15
ATOM     12  C   UNL     1      -0.087  12.141  19.626  0.00  0.00    +0.000 C 
ATOM     13  C   UNL     1       1.237  12.042  18.849  0.00  0.00    +0.000 C 
ATOM     14  C   UNL     1       1.507  10.630  18.322  0.00  0.00    +0.000 C 
ATOM     15  N   UNL     1       1.450   9.608  19.386  0.00  0.00    +0.000 NA
ATOM     16  C   UNL     1       0.175   9.672  20.123  0.00  0.00    +0.000 C 
ATOM     17  C   UNL     1      -0.065  11.059  20.714  0.00  0.00    +0.000 C 
BRANCH  12  19
ATOM     18  C   UNL     1      -2.627  12.429  19.389  0.00  0.00    +0.000 C 
ATOM     19  C   UNL     1      -1.321  12.051  18.696  0.00  0.00    +0.000 C 
BRANCH  19  20
ATOM     20  O   UNL     1      -1.145  12.928  17.583  0.00  0.00    +0.000 OA
ATOM     21  H   UNL     1      -1.334  13.834  17.881  0.00  0.00    +0.000 HD
ENDBRANCH  19  20
ENDBRANCH  12  19
ENDBRANCH  11  15
ENDBRANCH  10  11
ENDBRANCH   1  10
BRANCH   1  22
ATOM     22  C   UNL     1       4.812   6.315  17.528  0.00  0.00    +0.000 C 
BRANCH  22  23
ATOM     23  N   UNL     1       5.233   6.059  16.139  0.00  0.00    +0.000 N 
ATOM     24  C   UNL     1       4.899   7.067  15.141  0.00  0.00    +0.000 C 
ATOM     25  C   UNL     1       5.671   4.768  15.799  0.00  0.00    +0.000 C 
ATOM     26  O   UNL     1       5.651   3.828  16.594  0.00  0.00    +0.000 OA
BRANCH  25  27
ATOM     27  C   UNL     1       6.148   4.473  14.413  0.00  0.00    +0.000 A 
ATOM     28  C   UNL     1       5.439   3.648  13.533  0.00  0.00    +0.000 A 
ATOM     29  C   UNL     1       5.944   3.374  12.258  0.00  0.00    +0.000 A 
ATOM     30  C   UNL     1       7.130   3.970  11.834  0.00  0.00    +0.000 A 
ATOM     31  C   UNL     1       7.811   4.845  12.682  0.00  0.00    +0.000 A 
ATOM     32  C   UNL     1       7.324   5.093  13.967  0.00  0.00    +0.000 A 
ENDBRANCH  25  27
ENDBRANCH  22  23
ENDBRANCH   1  22
TORSDOF 9
ENDMDL
MODEL 3
REMARK VINA RESULT:      -7.9      4.752      9.406
REMARK  Name = 
REMARK  11 active torsions:
REMARK  status: ('A' for Active; 'I' for Inactive)
REMARK    1  A    between atoms: C_1  and  C_2
REMARK    2  A    between atoms: C_2  and  O_3
REMARK    3  A    between atoms: C_2  and  C_4
REMARK    4  A    between atoms: N_7  and  C_8
REMARK    5  A    between atoms: C_8  and  C_9
REMARK    6  A    between atoms: C_9  and  C_10
REMARK    7  A    between atoms: C_10  and  C_11
REMARK    8  A    between atoms: C_10  and  C_22
REMARK    9  A    between atoms: C_11  and  N_12
REMARK   10  A    between atoms: N_12  and  C_13
REMARK   11  A    between atoms: C_14  and  C_16
REMARK                            x       y       z     vdW  Elec       q    Type
REMARK                         _______ _______ _______ _____ _____    ______ ____
ROOT
ATOM      1  C   UNL     1       0.482  10.568  19.496  0.00  0.00    +0.000 C 
ENDROOT
BRANCH   1   2
ATOM      2  C   UNL     1       1.347   9.329  19.186  0.00  0.00    +0.000 A 
ATOM      3  C   UNL     1       2.011   9.229  17.952  0.00  0.00    +0.000 A 
ATOM      4  C   UNL     1       2.715   8.068  17.597  0.00  0.00    +0.000 A 
ATOM      5  C   UNL     1       2.752   6.974  18.455  0.00  0.00    +0.000 A 
ATOM      6 CL   UNL     1       3.594   5.556  17.935  0.00  0.00    +0.000 Cl
ATOM      7  C   UNL     1       2.100   7.048  19.687  0.00  0.00    +0.000 A 
ATOM      8 CL   UNL     1       2.055   5.725  20.797  0.00  0.00    +0.000 Cl
ATOM      9  C   UNL     1       1.421   8.218  20.045  0.00  0.00    +0.000 A 
ENDBRANCH   1   2
BRANCH   1  10
ATOM     10  C   UNL     1      -1.036  10.309  19.305  0.00  0.00    +0.000 C 
BRANCH  10  11
ATOM     11  C   UNL     1      -1.625  10.599  17.920  0.00  0.00    +0.000 C 
BRANCH  11  15
ATOM     12  C   UNL     1      -5.578  12.200  18.603  0.00  0.00    +0.000 C 
ATOM     13  C   UNL     1      -5.140  11.873  17.165  0.00  0.00    +0.000 C 
ATOM     14  C   UNL     1      -3.901  10.973  17.118  0.00  0.00    +0.000 C 
ATOM     15  N   UNL     1      -2.772  11.523  17.895  0.00  0.00    +0.000 NA
ATOM     16  C   UNL     1      -3.170  11.817  19.283  0.00  0.00    +0.000 C 
ATOM     17  C   UNL     1      -4.360  12.773  19.338  0.00  0.00    +0.000 C 
BRANCH  12  19
ATOM     18  C   UNL     1      -6.904  11.340  20.626  0.00  0.00    +0.000 C 
ATOM     19  C   UNL     1      -6.208  10.980  19.317  0.00  0.00    +0.000 C 
BRANCH  19  20
ATOM     20  O   UNL     1      -7.175  10.371  18.460  0.00  0.00    +0.000 OA
ATOM     21  H   UNL     1      -7.220  10.891  17.639  0.00  0.00    +0.000 HD
ENDBRANCH  19  20
ENDBRANCH  12  19
ENDBRANCH  11  15
ENDBRANCH  10  11
ENDBRANCH   1  10
BRANCH   1  22
ATOM     22  C   UNL     1       0.815  11.295  20.837  0.00  0.00    +0.000 C 
BRANCH  22  23
ATOM     23  N   UNL     1      -0.204  12.218  21.368  0.00  0.00    +0.000 N 
ATOM     24  C   UNL     1      -0.306  13.533  20.746  0.00  0.00    +0.000 C 
ATOM     25  C   UNL     1      -0.816  11.907  22.594  0.00  0.00    +0.000 C 
ATOM     26  O   UNL     1      -0.488  10.935  23.273  0.00  0.00    +0.000 OA
BRANCH  25  27
ATOM     27  C   UNL     1      -1.885  12.792  23.150  0.00  0.00    +0.000 A 
ATOM     28  C   UNL     1      -1.599  13.975  23.840  0.00  0.00    +0.000 A 
ATOM     29  C   UNL     1      -2.634  14.751  24.372  0.00  0.00    +0.000 A 
ATOM     30  C   UNL     1      -3.962  14.381  24.165  0.00  0.00    +0.000 A 
ATOM     31  C   UNL     1      -4.258  13.238  23.422  0.00  0.00    +0.000 A 
ATOM     32  C   UNL     1      -3.225  12.445  22.919  0.00  0.00    +0.000 A 
ENDBRANCH  25  27
ENDBRANCH  22  23
ENDBRANCH   1  22
TORSDOF 9
ENDMDL
MODEL 4
REMARK VINA RESULT:      -7.8      1.425      2.236
REMARK  Name = 
REMARK  11 active torsions:
REMARK  status: ('A' for Active; 'I' for Inactive)
REMARK    1  A    between atoms: C_1  and  C_2
REMARK    2  A    between atoms: C_2  and  O_3
REMARK    3  A    between atoms: C_2  and  C_4
REMARK    4  A    between atoms: N_7  and  C_8
REMARK    5  A    between atoms: C_8  and  C_9
REMARK    6  A    between atoms: C_9  and  C_10
REMARK    7  A    between atoms: C_10  and  C_11
REMARK    8  A    between atoms: C_10  and  C_22
REMARK    9  A    between atoms: C_11  and  N_12
REMARK   10  A    between atoms: N_12  and  C_13
REMARK   11  A    between atoms: C_14  and  C_16
REMARK                            x       y       z     vdW  Elec       q    Type
REMARK                         _______ _______ _______ _____ _____    ______ ____
ROOT
ATOM      1  C   UNL     1       3.257   6.636  17.668  0.00  0.00    +0.000 C 
ENDROOT
BRANCH   1   2
ATOM      2  C   UNL     1       2.607   5.666  18.676  0.00  0.00    +0.000 A 
ATOM      3  C   UNL     1       2.819   5.841  20.053  0.00  0.00    +0.000 A 
ATOM      4  C   UNL     1       2.333   4.913  20.988  0.00  0.00    +0.000 A 
ATOM      5  C   UNL     1       1.646   3.780  20.566  0.00  0.00    +0.000 A 
ATOM      6 CL   UNL     1       1.118   2.652  21.765  0.00  0.00    +0.000 Cl
ATOM      7  C   UNL     1       1.423   3.583  19.203  0.00  0.00    +0.000 A 
ATOM      8 CL   UNL     1       0.618   2.184  18.584  0.00  0.00    +0.000 Cl
ATOM      9  C   UNL     1       1.889   4.524  18.278  0.00  0.00    +0.000 A 
ENDBRANCH   1   2
BRANCH   1  10
ATOM     10  C   UNL     1       2.886   8.119  17.931  0.00  0.00    +0.000 C 
BRANCH  10  11
ATOM     11  C   UNL     1       1.410   8.432  18.206  0.00  0.00    +0.000 C 
BRANCH  11  15
ATOM     12  C   UNL     1       0.968  12.614  19.192  0.00  0.00    +0.000 C 
ATOM     13  C   UNL     1      -0.285  11.728  19.106  0.00  0.00    +0.000 C 
ATOM     14  C   UNL     1       0.047  10.233  19.135  0.00  0.00    +0.000 C 
ATOM     15  N   UNL     1       1.028   9.851  18.100  0.00  0.00    +0.000 NA
ATOM     16  C   UNL     1       2.247  10.675  18.186  0.00  0.00    +0.000 C 
ATOM     17  C   UNL     1       1.929  12.165  18.083  0.00  0.00    +0.000 C 
BRANCH  12  19
ATOM     18  C   UNL     1       2.557  13.761  20.851  0.00  0.00    +0.000 C 
ATOM     19  C   UNL     1       1.606  12.594  20.603  0.00  0.00    +0.000 C 
BRANCH  19  20
ATOM     20  O   UNL     1       0.579  12.647  21.592  0.00  0.00    +0.000 OA
ATOM     21  H   UNL     1       0.772  11.970  22.264  0.00  0.00    +0.000 HD
ENDBRANCH  19  20
ENDBRANCH  12  19
ENDBRANCH  11  15
ENDBRANCH  10  11
ENDBRANCH   1  10
BRANCH   1  22
ATOM     22  C   UNL     1       4.783   6.421  17.424  0.00  0.00    +0.000 C 
BRANCH  22  23
ATOM     23  N   UNL     1       5.204   6.118  16.045  0.00  0.00    +0.000 N 
ATOM     24  C   UNL     1       4.928   7.121  15.024  0.00  0.00    +0.000 C 
ATOM     25  C   UNL     1       5.582   4.800  15.733  0.00  0.00    +0.000 C 
ATOM     26  O   UNL     1       5.509   3.879  16.546  0.00  0.00    +0.000 OA
BRANCH  25  27
ATOM     27  C   UNL     1       6.056   4.456  14.358  0.00  0.00    +0.000 A 
ATOM     28  C   UNL     1       5.337   3.613  13.503  0.00  0.00    +0.000 A 
ATOM     29  C   UNL     1       5.840   3.293  12.238  0.00  0.00    +0.000 A 
ATOM     30  C   UNL     1       7.035   3.860  11.798  0.00  0.00    +0.000 A 
ATOM     31  C   UNL     1       7.726   4.752  12.619  0.00  0.00    +0.000 A 
ATOM     32  C   UNL     1       7.241   5.046  13.895  0.00  0.00    +0.000 A 
ENDBRANCH  25  27
ENDBRANCH  22  23
ENDBRANCH   1  22
TORSDOF 9
ENDMDL
MODEL 5
REMARK VINA RESULT:      -7.7      3.754      9.661
REMARK  Name = 
REMARK  11 active torsions:
REMARK  status: ('A' for Active; 'I' for Inactive)
REMARK    1  A    between atoms: C_1  and  C_2
REMARK    2  A    between atoms: C_2  and  O_3
REMARK    3  A    between atoms: C_2  and  C_4
REMARK    4  A    between atoms: N_7  and  C_8
REMARK    5  A    between atoms: C_8  and  C_9
REMARK    6  A    between atoms: C_9  and  C_10
REMARK    7  A    between atoms: C_10  and  C_11
REMARK    8  A    between atoms: C_10  and  C_22
REMARK    9  A    between atoms: C_11  and  N_12
REMARK   10  A    between atoms: N_12  and  C_13
REMARK   11  A    between atoms: C_14  and  C_16
REMARK                            x       y       z     vdW  Elec       q    Type
REMARK                         _______ _______ _______ _____ _____    ______ ____
ROOT
ATOM      1  C   UNL     1       0.512   9.851  19.076  0.00  0.00    +0.000 C 
ENDROOT
BRANCH   1   2
ATOM      2  C   UNL     1      -0.802  10.416  18.496  0.00  0.00    +0.000 A 
ATOM      3  C   UNL     1      -1.602  11.269  19.275  0.00  0.00    +0.000 A 
ATOM      4  C   UNL     1      -2.854  11.711  18.818  0.00  0.00    +0.000 A 
ATOM      5  C   UNL     1      -3.342  11.292  17.584  0.00  0.00    +0.000 A 
ATOM      6 CL   UNL     1      -4.912  11.833  17.103  0.00  0.00    +0.000 Cl
ATOM      7  C   UNL     1      -2.566  10.445  16.793  0.00  0.00    +0.000 A 
ATOM      8 CL   UNL     1      -3.110   9.840  15.267  0.00  0.00    +0.000 Cl
ATOM      9  C   UNL     1      -1.309  10.028  17.243  0.00  0.00    +0.000 A 
ENDBRANCH   1   2
BRANCH   1  10
ATOM     10  C   UNL     1       1.354   9.081  18.025  0.00  0.00    +0.000 C 
BRANCH  10  11
ATOM     11  C   UNL     1       2.500   8.210  18.551  0.00  0.00    +0.000 C 
BRANCH  11  15
ATOM     12  C   UNL     1       3.977   4.273  17.560  0.00  0.00    +0.000 C 
ATOM     13  C   UNL     1       4.520   5.492  16.795  0.00  0.00    +0.000 C 
ATOM     14  C   UNL     1       4.208   6.816  17.500  0.00  0.00    +0.000 C 
ATOM     15  N   UNL     1       2.769   6.979  17.787  0.00  0.00    +0.000 NA
ATOM     16  C   UNL     1       2.240   5.830  18.543  0.00  0.00    +0.000 C 
ATOM     17  C   UNL     1       2.483   4.513  17.810  0.00  0.00    +0.000 C 
BRANCH  12  19
ATOM     18  C   UNL     1       4.322   2.724  19.579  0.00  0.00    +0.000 C 
ATOM     19  C   UNL     1       4.778   3.988  18.854  0.00  0.00    +0.000 C 
BRANCH  19  20
ATOM     20  O   UNL     1       6.161   3.836  18.536  0.00  0.00    +0.000 OA
ATOM     21  H   UNL     1       6.363   4.416  17.782  0.00  0.00    +0.000 HD
ENDBRANCH  19  20
ENDBRANCH  12  19
ENDBRANCH  11  15
ENDBRANCH  10  11
ENDBRANCH   1  10
BRANCH   1  22
ATOM     22  C   UNL     1       1.355  10.857  19.920  0.00  0.00    +0.000 C 
BRANCH  22  23
ATOM     23  N   UNL     1       1.453  12.237  19.412  0.00  0.00    +0.000 N 
ATOM     24  C   UNL     1       2.212  12.448  18.185  0.00  0.00    +0.000 C 
ATOM     25  C   UNL     1       1.064  13.291  20.257  0.00  0.00    +0.000 C 
ATOM     26  O   UNL     1       0.713  13.113  21.423  0.00  0.00    +0.000 OA
BRANCH  25  27
ATOM     27  C   UNL     1       1.105  14.704  19.769  0.00  0.00    +0.000 A 
ATOM     28  C   UNL     1       0.039  15.294  19.081  0.00  0.00    +0.000 A 
ATOM     29  C   UNL     1       0.139  16.608  18.615  0.00  0.00    +0.000 A 
ATOM     30  C   UNL     1       1.281  17.360  18.885  0.00  0.00    +0.000 A 
ATOM     31  C   UNL     1       2.322  16.801  19.627  0.00  0.00    +0.000 A 
ATOM     32  C   UNL     1       2.237  15.478  20.065  0.00  0.00    +0.000 A 
ENDBRANCH  25  27
ENDBRANCH  22  23
ENDBRANCH   1  22
TORSDOF 9
ENDMDL
MODEL 6
REMARK VINA RESULT:      -7.7      1.277      1.908
REMARK  Name = 
REMARK  11 active torsions:
REMARK  status: ('A' for Active; 'I' for Inactive)
REMARK    1  A    between atoms: C_1  and  C_2
REMARK    2  A    between atoms: C_2  and  O_3
REMARK    3  A    between atoms: C_2  and  C_4
REMARK    4  A    between atoms: N_7  and  C_8
REMARK    5  A    between atoms: C_8  and  C_9
REMARK    6  A    between atoms: C_9  and  C_10
REMARK    7  A    between atoms: C_10  and  C_11
REMARK    8  A    between atoms: C_10  and  C_22
REMARK    9  A    between atoms: C_11  and  N_12
REMARK   10  A    between atoms: N_12  and  C_13
REMARK   11  A    between atoms: C_14  and  C_16
REMARK                            x       y       z     vdW  Elec       q    Type
REMARK                         _______ _______ _______ _____ _____    ______ ____
ROOT
ATOM      1  C   UNL     1       3.159   6.710  17.726  0.00  0.00    +0.000 C 
ENDROOT
BRANCH   1   2
ATOM      2  C   UNL     1       2.530   5.711  18.720  0.00  0.00    +0.000 A 
ATOM      3  C   UNL     1       2.697   5.899  20.102  0.00  0.00    +0.000 A 
ATOM      4  C   UNL     1       2.232   4.951  21.027  0.00  0.00    +0.000 A 
ATOM      5  C   UNL     1       1.612   3.784  20.591  0.00  0.00    +0.000 A 
ATOM      6 CL   UNL     1       1.108   2.634  21.779  0.00  0.00    +0.000 Cl
ATOM      7  C   UNL     1       1.435   3.574  19.223  0.00  0.00    +0.000 A 
ATOM      8 CL   UNL     1       0.715   2.137  18.588  0.00  0.00    +0.000 Cl
ATOM      9  C   UNL     1       1.878   4.535  18.307  0.00  0.00    +0.000 A 
ENDBRANCH   1   2
BRANCH   1  10
ATOM     10  C   UNL     1       2.748   8.179  18.006  0.00  0.00    +0.000 C 
BRANCH  10  11
ATOM     11  C   UNL     1       1.261   8.527  17.871  0.00  0.00    +0.000 C 
BRANCH  11  15
ATOM     12  C   UNL     1      -0.399  12.087  19.668  0.00  0.00    +0.000 C 
ATOM     13  C   UNL     1      -0.930  11.619  18.303  0.00  0.00    +0.000 C 
ATOM     14  C   UNL     1      -0.540  10.173  17.984  0.00  0.00    +0.000 C 
ATOM     15  N   UNL     1       0.915   9.943  18.084  0.00  0.00    +0.000 NA
ATOM     16  C   UNL     1       1.435  10.363  19.398  0.00  0.00    +0.000 C 
ATOM     17  C   UNL     1       1.113  11.827  19.690  0.00  0.00    +0.000 C 
BRANCH  12  19
ATOM     18  C   UNL     1      -0.378  11.478  22.162  0.00  0.00    +0.000 C 
ATOM     19  C   UNL     1      -1.153  11.427  20.849  0.00  0.00    +0.000 C 
BRANCH  19  20
ATOM     20  O   UNL     1      -2.401  12.091  21.050  0.00  0.00    +0.000 OA
ATOM     21  H   UNL     1      -2.634  12.015  21.991  0.00  0.00    +0.000 HD
ENDBRANCH  19  20
ENDBRANCH  12  19
ENDBRANCH  11  15
ENDBRANCH  10  11
ENDBRANCH   1  10
BRANCH   1  22
ATOM     22  C   UNL     1       4.691   6.536  17.486  0.00  0.00    +0.000 C 
BRANCH  22  23
ATOM     23  N   UNL     1       5.121   6.215  16.114  0.00  0.00    +0.000 N 
ATOM     24  C   UNL     1       4.749   7.150  15.058  0.00  0.00    +0.000 C 
ATOM     25  C   UNL     1       5.606   4.923  15.849  0.00  0.00    +0.000 C 
ATOM     26  O   UNL     1       5.622   4.032  16.698  0.00  0.00    +0.000 OA
BRANCH  25  27
ATOM     27  C   UNL     1       6.094   4.565  14.482  0.00  0.00    +0.000 A 
ATOM     28  C   UNL     1       5.379   3.721  13.625  0.00  0.00    +0.000 A 
ATOM     29  C   UNL     1       5.893   3.388  12.369  0.00  0.00    +0.000 A 
ATOM     30  C   UNL     1       7.097   3.943  11.937  0.00  0.00    +0.000 A 
ATOM     31  C   UNL     1       7.784   4.837  12.759  0.00  0.00    +0.000 A 
ATOM     32  C   UNL     1       7.287   5.144  14.027  0.00  0.00    +0.000 A 
ENDBRANCH  25  27
ENDBRANCH  22  23
ENDBRANCH   1  22
TORSDOF 9
ENDMDL
MODEL 7
REMARK VINA RESULT:      -7.6      3.972      9.713
REMARK  Name = 
REMARK  11 active torsions:
REMARK  status: ('A' for Active; 'I' for Inactive)
REMARK    1  A    between atoms: C_1  and  C_2
REMARK    2  A    between atoms: C_2  and  O_3
REMARK    3  A    between atoms: C_2  and  C_4
REMARK    4  A    between atoms: N_7  and  C_8
REMARK    5  A    between atoms: C_8  and  C_9
REMARK    6  A    between atoms: C_9  and  C_10
REMARK    7  A    between atoms: C_10  and  C_11
REMARK    8  A    between atoms: C_10  and  C_22
REMARK    9  A    between atoms: C_11  and  N_12
REMARK   10  A    between atoms: N_12  and  C_13
REMARK   11  A    between atoms: C_14  and  C_16
REMARK                            x       y       z     vdW  Elec       q    Type
REMARK                         _______ _______ _______ _____ _____    ______ ____
ROOT
ATOM      1  C   UNL     1       0.563   9.780  19.057  0.00  0.00    +0.000 C 
ENDROOT
BRANCH   1   2
ATOM      2  C   UNL     1      -0.835  10.256  18.610  0.00  0.00    +0.000 A 
ATOM      3  C   UNL     1      -1.311   9.929  17.330  0.00  0.00    +0.000 A 
ATOM      4  C   UNL     1      -2.530  10.438  16.854  0.00  0.00    +0.000 A 
ATOM      5  C   UNL     1      -3.288  11.302  17.638  0.00  0.00    +0.000 A 
ATOM      6 CL   UNL     1      -4.753  11.932  16.973  0.00  0.00    +0.000 Cl
ATOM      7  C   UNL     1      -2.836  11.642  18.914  0.00  0.00    +0.000 A 
ATOM      8 CL   UNL     1      -3.689  12.741  19.940  0.00  0.00    +0.000 Cl
ATOM      9  C   UNL     1      -1.633  11.112  19.391  0.00  0.00    +0.000 A 
ENDBRANCH   1   2
BRANCH   1  10
ATOM     10  C   UNL     1       1.376   9.130  17.907  0.00  0.00    +0.000 C 
BRANCH  10  11
ATOM     11  C   UNL     1       2.669   8.402  18.290  0.00  0.00    +0.000 C 
BRANCH  11  15
ATOM     12  C   UNL     1       4.033   4.369  17.553  0.00  0.00    +0.000 C 
ATOM     13  C   UNL     1       4.623   5.523  16.725  0.00  0.00    +0.000 C 
ATOM     14  C   UNL     1       4.344   6.896  17.345  0.00  0.00    +0.000 C 
ATOM     15  N   UNL     1       2.908   7.120  17.603  0.00  0.00    +0.000 NA
ATOM     16  C   UNL     1       2.334   6.035  18.419  0.00  0.00    +0.000 C 
ATOM     17  C   UNL     1       2.544   4.669  17.768  0.00  0.00    +0.000 C 
BRANCH  12  19
ATOM     18  C   UNL     1       4.324   2.917  19.650  0.00  0.00    +0.000 C 
ATOM     19  C   UNL     1       4.809   4.137  18.872  0.00  0.00    +0.000 C 
BRANCH  19  20
ATOM     20  O   UNL     1       6.195   3.951  18.584  0.00  0.00    +0.000 OA
ATOM     21  H   UNL     1       6.335   3.012  18.372  0.00  0.00    +0.000 HD
ENDBRANCH  19  20
ENDBRANCH  12  19
ENDBRANCH  11  15
ENDBRANCH  10  11
ENDBRANCH   1  10
BRANCH   1  22
ATOM     22  C   UNL     1       1.389  10.818  19.880  0.00  0.00    +0.000 C 
BRANCH  22  23
ATOM     23  N   UNL     1       1.420  12.201  19.371  0.00  0.00    +0.000 N 
ATOM     24  C   UNL     1       2.155  12.445  18.136  0.00  0.00    +0.000 C 
ATOM     25  C   UNL     1       0.997  13.237  20.221  0.00  0.00    +0.000 C 
ATOM     26  O   UNL     1       0.668  13.044  21.391  0.00  0.00    +0.000 OA
BRANCH  25  27
ATOM     27  C   UNL     1       0.970  14.650  19.734  0.00  0.00    +0.000 A 
ATOM     28  C   UNL     1       2.047  15.527  19.911  0.00  0.00    +0.000 A 
ATOM     29  C   UNL     1       1.961  16.850  19.468  0.00  0.00    +0.000 A 
ATOM     30  C   UNL     1       0.822  17.288  18.793  0.00  0.00    +0.000 A 
ATOM     31  C   UNL     1      -0.229  16.403  18.555  0.00  0.00    +0.000 A 
ATOM     32  C   UNL     1      -0.158  15.090  19.026  0.00  0.00    +0.000 A 
ENDBRANCH  25  27
ENDBRANCH  22  23
ENDBRANCH   1  22
TORSDOF 9
ENDMDL
MODEL 8
REMARK VINA RESULT:      -7.5      1.383      1.890
REMARK  Name = 
REMARK  11 active torsions:
REMARK  status: ('A' for Active; 'I' for Inactive)
REMARK    1  A    between atoms: C_1  and  C_2
REMARK    2  A    between atoms: C_2  and  O_3
REMARK    3  A    between atoms: C_2  and  C_4
REMARK    4  A    between atoms: N_7  and  C_8
REMARK    5  A    between atoms: C_8  and  C_9
REMARK    6  A    between atoms: C_9  and  C_10
REMARK    7  A    between atoms: C_10  and  C_11
REMARK    8  A    between atoms: C_10  and  C_22
REMARK    9  A    between atoms: C_11  and  N_12
REMARK   10  A    between atoms: N_12  and  C_13
REMARK   11  A    between atoms: C_14  and  C_16
REMARK                            x       y       z     vdW  Elec       q    Type
REMARK                         _______ _______ _______ _____ _____    ______ ____
ROOT
ATOM      1  C   UNL     1       3.062   6.346  17.769  0.00  0.00    +0.000 C 
ENDROOT
BRANCH   1   2
ATOM      2  C   UNL     1       2.475   5.369  18.810  0.00  0.00    +0.000 A 
ATOM      3  C   UNL     1       2.798   5.516  20.169  0.00  0.00    +0.000 A 
ATOM      4  C   UNL     1       2.370   4.581  21.124  0.00  0.00    +0.000 A 
ATOM      5  C   UNL     1       1.630   3.467  20.739  0.00  0.00    +0.000 A 
ATOM      6 CL   UNL     1       1.177   2.328  21.958  0.00  0.00    +0.000 Cl
ATOM      7  C   UNL     1       1.296   3.299  19.395  0.00  0.00    +0.000 A 
ATOM      8 CL   UNL     1       0.418   1.926  18.819  0.00  0.00    +0.000 Cl
ATOM      9  C   UNL     1       1.705   4.248  18.452  0.00  0.00    +0.000 A 
ENDBRANCH   1   2
BRANCH   1  10
ATOM     10  C   UNL     1       2.529   7.794  17.932  0.00  0.00    +0.000 C 
BRANCH  10  11
ATOM     11  C   UNL     1       2.196   8.259  19.354  0.00  0.00    +0.000 C 
BRANCH  11  15
ATOM     12  C   UNL     1      -0.253  11.742  20.087  0.00  0.00    +0.000 C 
ATOM     13  C   UNL     1      -0.387  10.523  21.015  0.00  0.00    +0.000 C 
ATOM     14  C   UNL     1       0.786   9.547  20.878  0.00  0.00    +0.000 C 
ATOM     15  N   UNL     1       1.005   9.118  19.482  0.00  0.00    +0.000 NA
ATOM     16  C   UNL     1       1.161  10.276  18.583  0.00  0.00    +0.000 C 
ATOM     17  C   UNL     1      -0.040  11.216  18.661  0.00  0.00    +0.000 C 
BRANCH  12  19
ATOM     18  C   UNL     1       0.946  13.979  19.700  0.00  0.00    +0.000 C 
ATOM     19  C   UNL     1       0.855  12.717  20.554  0.00  0.00    +0.000 C 
BRANCH  19  20
ATOM     20  O   UNL     1       0.604  13.116  21.901  0.00  0.00    +0.000 OA
ATOM     21  H   UNL     1       1.314  13.722  22.173  0.00  0.00    +0.000 HD
ENDBRANCH  19  20
ENDBRANCH  12  19
ENDBRANCH  11  15
ENDBRANCH  10  11
ENDBRANCH   1  10
BRANCH   1  22
ATOM     22  C   UNL     1       4.611   6.279  17.592  0.00  0.00    +0.000 C 
BRANCH  22  23
ATOM     23  N   UNL     1       5.118   6.073  16.224  0.00  0.00    +0.000 N 
ATOM     24  C   UNL     1       4.887   7.138  15.255  0.00  0.00    +0.000 C 
ATOM     25  C   UNL     1       5.538   4.784  15.851  0.00  0.00    +0.000 C 
ATOM     26  O   UNL     1       5.432   3.811  16.597  0.00  0.00    +0.000 OA
BRANCH  25  27
ATOM     27  C   UNL     1       6.100   4.537  14.489  0.00  0.00    +0.000 A 
ATOM     28  C   UNL     1       7.298   5.114  14.053  0.00  0.00    +0.000 A 
ATOM     29  C   UNL     1       7.766   4.880  12.757  0.00  0.00    +0.000 A 
ATOM     30  C   UNL     1       7.070   4.021  11.908  0.00  0.00    +0.000 A 
ATOM     31  C   UNL     1       5.908   3.391  12.355  0.00  0.00    +0.000 A 
ATOM     32  C   UNL     1       5.423   3.650  13.639  0.00  0.00    +0.000 A 
ENDBRANCH  25  27
ENDBRANCH  22  23
ENDBRANCH   1  22
TORSDOF 9
ENDMDL
MODEL 9
REMARK VINA RESULT:      -7.5      4.357      6.749
REMARK  Name = 
REMARK  11 active torsions:
REMARK  status: ('A' for Active; 'I' for Inactive)
REMARK    1  A    between atoms: C_1  and  C_2
REMARK    2  A    between atoms: C_2  and  O_3
REMARK    3  A    between atoms: C_2  and  C_4
REMARK    4  A    between atoms: N_7  and  C_8
REMARK    5  A    between atoms: C_8  and  C_9
REMARK    6  A    between atoms: C_9  and  C_10
REMARK    7  A    between atoms: C_10  and  C_11
REMARK    8  A    between atoms: C_10  and  C_22
REMARK    9  A    between atoms: C_11  and  N_12
REMARK   10  A    between atoms: N_12  and  C_13
REMARK   11  A    between atoms: C_14  and  C_16
REMARK                            x       y       z     vdW  Elec       q    Type
REMARK                         _______ _______ _______ _____ _____    ______ ____
ROOT
ATOM      1  C   UNL     1       0.818  10.473  18.953  0.00  0.00    +0.000 C 
ENDROOT
BRANCH   1   2
ATOM      2  C   UNL     1      -0.691  10.596  18.654  0.00  0.00    +0.000 A 
ATOM      3  C   UNL     1      -1.241   9.933  17.544  0.00  0.00    +0.000 A 
ATOM      4  C   UNL     1      -2.586  10.113  17.183  0.00  0.00    +0.000 A 
ATOM      5  C   UNL     1      -3.403  10.975  17.908  0.00  0.00    +0.000 A 
ATOM      6 CL   UNL     1      -5.035  11.189  17.380  0.00  0.00    +0.000 Cl
ATOM      7  C   UNL     1      -2.879  11.644  19.014  0.00  0.00    +0.000 A 
ATOM      8 CL   UNL     1      -3.806  12.766  19.947  0.00  0.00    +0.000 Cl
ATOM      9  C   UNL     1      -1.545  11.442  19.384  0.00  0.00    +0.000 A 
ENDBRANCH   1   2
BRANCH   1  10
ATOM     10  C   UNL     1       1.438  11.793  19.482  0.00  0.00    +0.000 C 
BRANCH  10  11
ATOM     11  C   UNL     1       1.984  12.776  18.439  0.00  0.00    +0.000 C 
BRANCH  11  15
ATOM     12  C   UNL     1       2.302  17.059  18.907  0.00  0.00    +0.000 C 
ATOM     13  C   UNL     1       3.532  16.262  18.440  0.00  0.00    +0.000 C 
ATOM     14  C   UNL     1       3.172  14.854  17.956  0.00  0.00    +0.000 C 
ATOM     15  N   UNL     1       2.405  14.089  18.959  0.00  0.00    +0.000 NA
ATOM     16  C   UNL     1       1.208  14.829  19.397  0.00  0.00    +0.000 C 
ATOM     17  C   UNL     1       1.568  16.206  19.950  0.00  0.00    +0.000 C 
BRANCH  12  19
ATOM     18  C   UNL     1       0.448  18.630  18.081  0.00  0.00    +0.000 C 
ATOM     19  C   UNL     1       1.401  17.494  17.725  0.00  0.00    +0.000 C 
BRANCH  19  20
ATOM     20  O   UNL     1       2.217  17.931  16.638  0.00  0.00    +0.000 OA
ATOM     21  H   UNL     1       2.582  17.143  16.199  0.00  0.00    +0.000 HD
ENDBRANCH  19  20
ENDBRANCH  12  19
ENDBRANCH  11  15
ENDBRANCH  10  11
ENDBRANCH   1  10
BRANCH   1  22
ATOM     22  C   UNL     1       1.232   9.224  19.790  0.00  0.00    +0.000 C 
BRANCH  22  23
ATOM     23  N   UNL     1       1.983   8.167  19.088  0.00  0.00    +0.000 N 
ATOM     24  C   UNL     1       2.320   8.401  17.689  0.00  0.00    +0.000 C 
ATOM     25  C   UNL     1       2.089   6.904  19.695  0.00  0.00    +0.000 C 
ATOM     26  O   UNL     1       1.523   6.625  20.752  0.00  0.00    +0.000 OA
BRANCH  25  27
ATOM     27  C   UNL     1       2.877   5.816  19.041  0.00  0.00    +0.000 A 
ATOM     28  C   UNL     1       2.339   4.991  18.046  0.00  0.00    +0.000 A 
ATOM     29  C   UNL     1       3.106   3.963  17.489  0.00  0.00    +0.000 A 
ATOM     30  C   UNL     1       4.433   3.792  17.878  0.00  0.00    +0.000 A 
ATOM     31  C   UNL     1       4.998   4.651  18.821  0.00  0.00    +0.000 A 
ATOM     32  C   UNL     1       4.223   5.657  19.403  0.00  0.00    +0.000 A 
ENDBRANCH  25  27
ENDBRANCH  22  23
ENDBRANCH   1  22
TORSDOF 9
ENDMDL
