MODEL 1
REMARK VINA RESULT:      -8.5      0.000      0.000
REMARK  Name = 
REMARK  5 active torsions:
REMARK  status: ('A' for Active; 'I' for Inactive)
REMARK    1  A    between atoms: C_2  and  C_3
REMARK    2  A    between atoms: C_3  and  N_4
REMARK    3  A    between atoms: C_10  and  C_11
REMARK    4  A    between atoms: N_20  and  C_21
REMARK    5  A    between atoms: C_24  and  N_25
REMARK                            x       y       z     vdW  Elec       q    Type
REMARK                         _______ _______ _______ _____ _____    ______ ____
ROOT
ATOM      1  N   UNL     1       6.104   5.702  17.814  0.00  0.00    +0.000 N 
ATOM      2  C   UNL     1       6.241   4.392  18.225  0.00  0.00    +0.000 A 
ATOM      3  N   UNL     1       5.353   3.721  18.888  0.00  0.00    +0.000 NA
ATOM      4  C   UNL     1       4.229   4.419  19.189  0.00  0.00    +0.000 A 
ATOM      5  S   UNL     1       2.981   3.709  20.103  0.00  0.00    +0.000 S 
ATOM      6  C   UNL     1       2.066   5.151  20.077  0.00  0.00    +0.000 A 
ATOM      7  C   UNL     1       2.677   6.176  19.374  0.00  0.00    +0.000 A 
ATOM      8  C   UNL     1       3.936   5.719  18.827  0.00  0.00    +0.000 A 
ATOM      9  C   UNL     1       4.914   6.400  17.993  0.00  0.00    +0.000 A 
ATOM     10  O   UNL     1       4.731   7.492  17.459  0.00  0.00    +0.000 OA
ENDROOT
BRANCH   7  11
ATOM     11  C   UNL     1       2.051   7.502  19.280  0.00  0.00    +0.000 A 
ATOM     12  C   UNL     1       1.915   8.146  18.042  0.00  0.00    +0.000 A 
ATOM     13  C   UNL     1       1.254   9.372  17.931  0.00  0.00    +0.000 A 
ATOM     14  C   UNL     1       0.771  10.005  19.071  0.00  0.00    +0.000 A 
ATOM     15  C   UNL     1       0.949   9.412  20.318  0.00  0.00    +0.000 A 
ATOM     16  C   UNL     1       1.574   8.165  20.421  0.00  0.00    +0.000 A 
ENDBRANCH   7  11
BRANCH   1  17
ATOM     17  C   UNL     1       7.158   6.359  17.063  0.00  0.00    +0.000 C 
BRANCH  17  19
ATOM     18  O   UNL     1       8.459   7.004  18.943  0.00  0.00    +0.000 OA
ATOM     19  C   UNL     1       7.814   7.391  17.972  0.00  0.00    +0.000 C 
ATOM     20  N   UNL     1       7.677   8.706  17.549  0.00  0.00    +0.000 N 
ATOM     21  H   UNL     1       7.082   8.881  16.743  0.00  0.00    +0.000 HD
BRANCH  20  22
ATOM     22  C   UNL     1       8.364   9.824  18.074  0.00  0.00    +0.000 A 
ATOM     23  C   UNL     1       9.233   9.734  19.163  0.00  0.00    +0.000 A 
ATOM     24  C   UNL     1       9.930  10.850  19.631  0.00  0.00    +0.000 A 
ATOM     25  C   UNL     1       9.749  12.084  19.007  0.00  0.00    +0.000 A 
ATOM     26  C   UNL     1       8.880  12.202  17.914  0.00  0.00    +0.000 A 
ATOM     27  C   UNL     1       8.200  11.067  17.442  0.00  0.00    +0.000 A 
BRANCH  25  28
ATOM     28  N   UNL     1      10.485  13.256  19.500  0.00  0.00    +0.000 N 
ATOM     29  O   UNL     1       9.936  14.363  19.412  0.00  0.00    +0.000 OA
ATOM     30  O   UNL     1      11.613  13.065  19.973  0.00  0.00    +0.000 OA
ENDBRANCH  25  28
ENDBRANCH  20  22
ENDBRANCH  17  19
ENDBRANCH   1  17
TORSDOF 5
ENDMDL
MODEL 2
REMARK VINA RESULT:      -8.3      0.386      1.344
REMARK  Name = 
REMARK  5 active torsions:
REMARK  status: ('A' for Active; 'I' for Inactive)
REMARK    1  A    between atoms: C_2  and  C_3
REMARK    2  A    between atoms: C_3  and  N_4
REMARK    3  A    between atoms: C_10  and  C_11
REMARK    4  A    between atoms: N_20  and  C_21
REMARK    5  A    between atoms: C_24  and  N_25
REMARK                            x       y       z     vdW  Elec       q    Type
REMARK                         _______ _______ _______ _____ _____    ______ ____
ROOT
ATOM      1  N   UNL     1       6.091   5.691  17.837  0.00  0.00    +0.000 N 
ATOM      2  C   UNL     1       6.237   4.391  18.274  0.00  0.00    +0.000 A 
ATOM      3  N   UNL     1       5.354   3.729  18.954  0.00  0.00    +0.000 NA
ATOM      4  C   UNL     1       4.227   4.427  19.243  0.00  0.00    +0.000 A 
ATOM      5  S   UNL     1       2.985   3.729  20.175  0.00  0.00    +0.000 S 
ATOM      6  C   UNL     1       2.061   5.165  20.122  0.00  0.00    +0.000 A 
ATOM      7  C   UNL     1       2.665   6.179  19.395  0.00  0.00    +0.000 A 
ATOM      8  C   UNL     1       3.925   5.717  18.855  0.00  0.00    +0.000 A 
ATOM      9  C   UNL     1       4.897   6.386  18.004  0.00  0.00    +0.000 A 
ATOM     10  O   UNL     1       4.707   7.466  17.448  0.00  0.00    +0.000 OA
ENDROOT
BRANCH   7  11
ATOM     11  C   UNL     1       2.031   7.499  19.275  0.00  0.00    +0.000 A 
ATOM     12  C   UNL     1       1.557   8.173  20.410  0.00  0.00    +0.000 A 
ATOM     13  C   UNL     1       1.021   9.460  20.316  0.00  0.00    +0.000 A 
ATOM     14  C   UNL     1       0.893  10.070  19.074  0.00  0.00    +0.000 A 
ATOM     15  C   UNL     1       1.301   9.393  17.927  0.00  0.00    +0.000 A 
ATOM     16  C   UNL     1       1.876   8.122  18.028  0.00  0.00    +0.000 A 
ENDBRANCH   7  11
BRANCH   1  17
ATOM     17  C   UNL     1       7.139   6.339  17.069  0.00  0.00    +0.000 C 
BRANCH  17  19
ATOM     18  O   UNL     1       8.446   7.015  18.935  0.00  0.00    +0.000 OA
ATOM     19  C   UNL     1       7.799   7.386  17.959  0.00  0.00    +0.000 C 
ATOM     20  N   UNL     1       7.662   8.693  17.513  0.00  0.00    +0.000 N 
ATOM     21  H   UNL     1       7.065   8.855  16.706  0.00  0.00    +0.000 HD
BRANCH  20  22
ATOM     22  C   UNL     1       8.353   9.819  18.017  0.00  0.00    +0.000 A 
ATOM     23  C   UNL     1       8.215  11.097  17.470  0.00  0.00    +0.000 A 
ATOM     24  C   UNL     1       8.879  12.196  18.017  0.00  0.00    +0.000 A 
ATOM     25  C   UNL     1       9.706  12.018  19.125  0.00  0.00    +0.000 A 
ATOM     26  C   UNL     1       9.863  10.746  19.691  0.00  0.00    +0.000 A 
ATOM     27  C   UNL     1       9.175   9.652  19.142  0.00  0.00    +0.000 A 
BRANCH  25  28
ATOM     28  N   UNL     1      10.401  13.178  19.700  0.00  0.00    +0.000 N 
ATOM     29  O   UNL     1      10.348  13.334  20.928  0.00  0.00    +0.000 OA
ATOM     30  O   UNL     1      10.997  13.931  18.920  0.00  0.00    +0.000 OA
ENDBRANCH  25  28
ENDBRANCH  20  22
ENDBRANCH  17  19
ENDBRANCH   1  17
TORSDOF 5
ENDMDL
MODEL 3
REMARK VINA RESULT:      -8.2      4.913      8.879
REMARK  Name = 
REMARK  5 active torsions:
REMARK  status: ('A' for Active; 'I' for Inactive)
REMARK    1  A    between atoms: C_2  and  C_3
REMARK    2  A    between atoms: C_3  and  N_4
REMARK    3  A    between atoms: C_10  and  C_11
REMARK    4  A    between atoms: N_20  and  C_21
REMARK    5  A    between atoms: C_24  and  N_25
REMARK                            x       y       z     vdW  Elec       q    Type
REMARK                         _______ _______ _______ _____ _____    ______ ____
ROOT
ATOM      1  N   UNL     1       2.486   7.797  18.752  0.00  0.00    +0.000 N 
ATOM      2  C   UNL     1       1.809   7.317  19.854  0.00  0.00    +0.000 A 
ATOM      3  N   UNL     1       1.942   6.129  20.352  0.00  0.00    +0.000 NA
ATOM      4  C   UNL     1       2.816   5.334  19.685  0.00  0.00    +0.000 A 
ATOM      5  S   UNL     1       3.074   3.722  20.170  0.00  0.00    +0.000 S 
ATOM      6  C   UNL     1       4.164   3.450  18.884  0.00  0.00    +0.000 A 
ATOM      7  C   UNL     1       4.359   4.566  18.085  0.00  0.00    +0.000 A 
ATOM      8  C   UNL     1       3.584   5.677  18.590  0.00  0.00    +0.000 A 
ATOM      9  C   UNL     1       3.482   7.053  18.129  0.00  0.00    +0.000 A 
ATOM     10  O   UNL     1       4.211   7.556  17.275  0.00  0.00    +0.000 OA
ENDROOT
BRANCH   7  11
ATOM     11  C   UNL     1       5.236   4.503  16.908  0.00  0.00    +0.000 A 
ATOM     12  C   UNL     1       4.709   4.257  15.632  0.00  0.00    +0.000 A 
ATOM     13  C   UNL     1       5.523   4.271  14.496  0.00  0.00    +0.000 A 
ATOM     14  C   UNL     1       6.893   4.471  14.627  0.00  0.00    +0.000 A 
ATOM     15  C   UNL     1       7.446   4.656  15.891  0.00  0.00    +0.000 A 
ATOM     16  C   UNL     1       6.623   4.684  17.022  0.00  0.00    +0.000 A 
ENDBRANCH   7  11
BRANCH   1  17
ATOM     17  C   UNL     1       2.272   9.154  18.281  0.00  0.00    +0.000 C 
BRANCH  17  19
ATOM     18  O   UNL     1       0.758   9.922  19.943  0.00  0.00    +0.000 OA
ATOM     19  C   UNL     1       0.901   9.611  18.763  0.00  0.00    +0.000 C 
ATOM     20  N   UNL     1      -0.060   9.709  17.766  0.00  0.00    +0.000 N 
ATOM     21  H   UNL     1       0.192   9.382  16.837  0.00  0.00    +0.000 HD
BRANCH  20  22
ATOM     22  C   UNL     1      -1.332  10.312  17.894  0.00  0.00    +0.000 A 
ATOM     23  C   UNL     1      -1.572  11.399  18.736  0.00  0.00    +0.000 A 
ATOM     24  C   UNL     1      -2.831  11.999  18.808  0.00  0.00    +0.000 A 
ATOM     25  C   UNL     1      -3.876  11.498  18.032  0.00  0.00    +0.000 A 
ATOM     26  C   UNL     1      -3.662  10.405  17.181  0.00  0.00    +0.000 A 
ATOM     27  C   UNL     1      -2.386   9.824  17.105  0.00  0.00    +0.000 A 
BRANCH  25  28
ATOM     28  N   UNL     1      -5.198  12.133  18.108  0.00  0.00    +0.000 N 
ATOM     29  O   UNL     1      -5.642  12.413  19.230  0.00  0.00    +0.000 OA
ATOM     30  O   UNL     1      -5.791  12.348  17.043  0.00  0.00    +0.000 OA
ENDBRANCH  25  28
ENDBRANCH  20  22
ENDBRANCH  17  19
ENDBRANCH   1  17
TORSDOF 5
ENDMDL
MODEL 4
REMARK VINA RESULT:      -8.2      4.849      8.207
REMARK  Name = 
REMARK  5 active torsions:
REMARK  status: ('A' for Active; 'I' for Inactive)
REMARK    1  A    between atoms: C_2  and  C_3
REMARK    2  A    between atoms: C_3  and  N_4
REMARK    3  A    between atoms: C_10  and  C_11
REMARK    4  A    between atoms: N_20  and  C_21
REMARK    5  A    between atoms: C_24  and  N_25
REMARK                            x       y       z     vdW  Elec       q    Type
REMARK                         _______ _______ _______ _____ _____    ______ ____
ROOT
ATOM      1  N   UNL     1       2.210   8.014  18.804  0.00  0.00    +0.000 N 
ATOM      2  C   UNL     1       1.497   7.637  19.924  0.00  0.00    +0.000 A 
ATOM      3  N   UNL     1       1.623   6.507  20.544  0.00  0.00    +0.000 NA
ATOM      4  C   UNL     1       2.530   5.661  19.992  0.00  0.00    +0.000 A 
ATOM      5  S   UNL     1       2.785   4.110  20.646  0.00  0.00    +0.000 S 
ATOM      6  C   UNL     1       3.925   3.725  19.434  0.00  0.00    +0.000 A 
ATOM      7  C   UNL     1       4.139   4.757  18.534  0.00  0.00    +0.000 A 
ATOM      8  C   UNL     1       3.334   5.903  18.896  0.00  0.00    +0.000 A 
ATOM      9  C   UNL     1       3.236   7.224  18.295  0.00  0.00    +0.000 A 
ATOM     10  O   UNL     1       3.991   7.648  17.422  0.00  0.00    +0.000 OA
ENDROOT
BRANCH   7  11
ATOM     11  C   UNL     1       5.059   4.589  17.401  0.00  0.00    +0.000 A 
ATOM     12  C   UNL     1       4.576   4.261  16.126  0.00  0.00    +0.000 A 
ATOM     13  C   UNL     1       5.434   4.173  15.027  0.00  0.00    +0.000 A 
ATOM     14  C   UNL     1       6.802   4.351  15.198  0.00  0.00    +0.000 A 
ATOM     15  C   UNL     1       7.310   4.618  16.467  0.00  0.00    +0.000 A 
ATOM     16  C   UNL     1       6.444   4.747  17.558  0.00  0.00    +0.000 A 
ENDBRANCH   7  11
BRANCH   1  17
ATOM     17  C   UNL     1       2.000   9.313  18.192  0.00  0.00    +0.000 C 
BRANCH  17  19
ATOM     18  O   UNL     1      -0.327   9.782  18.294  0.00  0.00    +0.000 OA
ATOM     19  C   UNL     1       0.768   9.943  18.829  0.00  0.00    +0.000 C 
ATOM     20  N   UNL     1       1.005  10.589  20.034  0.00  0.00    +0.000 N 
ATOM     21  H   UNL     1       1.972  10.674  20.339  0.00  0.00    +0.000 HD
BRANCH  20  22
ATOM     22  C   UNL     1       0.021  11.058  20.934  0.00  0.00    +0.000 A 
ATOM     23  C   UNL     1      -0.267  10.416  22.140  0.00  0.00    +0.000 A 
ATOM     24  C   UNL     1      -1.216  10.929  23.027  0.00  0.00    +0.000 A 
ATOM     25  C   UNL     1      -1.900  12.099  22.700  0.00  0.00    +0.000 A 
ATOM     26  C   UNL     1      -1.632  12.761  21.494  0.00  0.00    +0.000 A 
ATOM     27  C   UNL     1      -0.662  12.244  20.620  0.00  0.00    +0.000 A 
BRANCH  25  28
ATOM     28  N   UNL     1      -2.896  12.638  23.637  0.00  0.00    +0.000 N 
ATOM     29  O   UNL     1      -2.774  13.817  23.996  0.00  0.00    +0.000 OA
ATOM     30  O   UNL     1      -3.798  11.877  24.012  0.00  0.00    +0.000 OA
ENDBRANCH  25  28
ENDBRANCH  20  22
ENDBRANCH  17  19
ENDBRANCH   1  17
TORSDOF 5
ENDMDL
MODEL 5
REMARK VINA RESULT:      -8.2      4.890      8.859
REMARK  Name = 
REMARK  5 active torsions:
REMARK  status: ('A' for Active; 'I' for Inactive)
REMARK    1  A    between atoms: C_2  and  C_3
REMARK    2  A    between atoms: C_3  and  N_4
REMARK    3  A    between atoms: C_10  and  C_11
REMARK    4  A    between atoms: N_20  and  C_21
REMARK    5  A    between atoms: C_24  and  N_25
REMARK                            x       y       z     vdW  Elec       q    Type
REMARK                         _______ _______ _______ _____ _____    ______ ____
ROOT
ATOM      1  N   UNL     1       2.523   7.711  18.686  0.00  0.00    +0.000 N 
ATOM      2  C   UNL     1       1.863   7.189  19.778  0.00  0.00    +0.000 A 
ATOM      3  N   UNL     1       2.014   5.987  20.237  0.00  0.00    +0.000 NA
ATOM      4  C   UNL     1       2.891   5.223  19.537  0.00  0.00    +0.000 A 
ATOM      5  S   UNL     1       3.172   3.600  19.968  0.00  0.00    +0.000 S 
ATOM      6  C   UNL     1       4.252   3.382  18.663  0.00  0.00    +0.000 A 
ATOM      7  C   UNL     1       4.426   4.524  17.898  0.00  0.00    +0.000 A 
ATOM      8  C   UNL     1       3.643   5.610  18.445  0.00  0.00    +0.000 A 
ATOM      9  C   UNL     1       3.522   6.999  18.029  0.00  0.00    +0.000 A 
ATOM     10  O   UNL     1       4.236   7.537  17.185  0.00  0.00    +0.000 OA
ENDROOT
BRANCH   7  11
ATOM     11  C   UNL     1       5.292   4.510  16.711  0.00  0.00    +0.000 A 
ATOM     12  C   UNL     1       4.783   4.144  15.456  0.00  0.00    +0.000 A 
ATOM     13  C   UNL     1       5.578   4.200  14.308  0.00  0.00    +0.000 A 
ATOM     14  C   UNL     1       6.916   4.563  14.408  0.00  0.00    +0.000 A 
ATOM     15  C   UNL     1       7.458   4.871  15.653  0.00  0.00    +0.000 A 
ATOM     16  C   UNL     1       6.649   4.856  16.794  0.00  0.00    +0.000 A 
ENDBRANCH   7  11
BRANCH   1  17
ATOM     17  C   UNL     1       2.289   9.080  18.260  0.00  0.00    +0.000 C 
BRANCH  17  19
ATOM     18  O   UNL     1       0.720   9.686  19.938  0.00  0.00    +0.000 OA
ATOM     19  C   UNL     1       0.903   9.493  18.738  0.00  0.00    +0.000 C 
ATOM     20  N   UNL     1      -0.024   9.693  17.724  0.00  0.00    +0.000 N 
ATOM     21  H   UNL     1       0.260   9.459  16.776  0.00  0.00    +0.000 HD
BRANCH  20  22
ATOM     22  C   UNL     1      -1.299  10.286  17.868  0.00  0.00    +0.000 A 
ATOM     23  C   UNL     1      -2.436   9.798  17.222  0.00  0.00    +0.000 A 
ATOM     24  C   UNL     1      -3.690  10.381  17.419  0.00  0.00    +0.000 A 
ATOM     25  C   UNL     1      -3.810  11.481  18.268  0.00  0.00    +0.000 A 
ATOM     26  C   UNL     1      -2.683  11.992  18.925  0.00  0.00    +0.000 A 
ATOM     27  C   UNL     1      -1.432  11.384  18.733  0.00  0.00    +0.000 A 
BRANCH  25  28
ATOM     28  N   UNL     1      -5.131  12.091  18.474  0.00  0.00    +0.000 N 
ATOM     29  O   UNL     1      -6.058  11.727  17.737  0.00  0.00    +0.000 OA
ATOM     30  O   UNL     1      -5.237  12.934  19.374  0.00  0.00    +0.000 OA
ENDBRANCH  25  28
ENDBRANCH  20  22
ENDBRANCH  17  19
ENDBRANCH   1  17
TORSDOF 5
ENDMDL
MODEL 6
REMARK VINA RESULT:      -8.1      4.948      8.923
REMARK  Name = 
REMARK  5 active torsions:
REMARK  status: ('A' for Active; 'I' for Inactive)
REMARK    1  A    between atoms: C_2  and  C_3
REMARK    2  A    between atoms: C_3  and  N_4
REMARK    3  A    between atoms: C_10  and  C_11
REMARK    4  A    between atoms: N_20  and  C_21
REMARK    5  A    between atoms: C_24  and  N_25
REMARK                            x       y       z     vdW  Elec       q    Type
REMARK                         _______ _______ _______ _____ _____    ______ ____
ROOT
ATOM      1  N   UNL     1       2.430   7.832  18.802  0.00  0.00    +0.000 N 
ATOM      2  C   UNL     1       1.750   7.336  19.895  0.00  0.00    +0.000 A 
ATOM      3  N   UNL     1       1.881   6.141  20.376  0.00  0.00    +0.000 NA
ATOM      4  C   UNL     1       2.757   5.355  19.699  0.00  0.00    +0.000 A 
ATOM      5  S   UNL     1       3.012   3.736  20.161  0.00  0.00    +0.000 S 
ATOM      6  C   UNL     1       4.105   3.483  18.874  0.00  0.00    +0.000 A 
ATOM      7  C   UNL     1       4.302   4.610  18.091  0.00  0.00    +0.000 A 
ATOM      8  C   UNL     1       3.527   5.714  18.611  0.00  0.00    +0.000 A 
ATOM      9  C   UNL     1       3.427   7.097  18.170  0.00  0.00    +0.000 A 
ATOM     10  O   UNL     1       4.158   7.611  17.326  0.00  0.00    +0.000 OA
ENDROOT
BRANCH   7  11
ATOM     11  C   UNL     1       5.182   4.564  16.915  0.00  0.00    +0.000 A 
ATOM     12  C   UNL     1       6.563   4.772  17.043  0.00  0.00    +0.000 A 
ATOM     13  C   UNL     1       7.418   4.657  15.944  0.00  0.00    +0.000 A 
ATOM     14  C   UNL     1       6.896   4.391  14.684  0.00  0.00    +0.000 A 
ATOM     15  C   UNL     1       5.521   4.242  14.523  0.00  0.00    +0.000 A 
ATOM     16  C   UNL     1       4.672   4.316  15.633  0.00  0.00    +0.000 A 
ENDBRANCH   7  11
BRANCH   1  17
ATOM     17  C   UNL     1       2.218   9.196  18.351  0.00  0.00    +0.000 C 
BRANCH  17  19
ATOM     18  O   UNL     1       0.685   9.937  20.008  0.00  0.00    +0.000 OA
ATOM     19  C   UNL     1       0.841   9.642  18.826  0.00  0.00    +0.000 C 
ATOM     20  N   UNL     1      -0.111   9.751  17.821  0.00  0.00    +0.000 N 
ATOM     21  H   UNL     1       0.151   9.438  16.890  0.00  0.00    +0.000 HD
BRANCH  20  22
ATOM     22  C   UNL     1      -1.386  10.349  17.945  0.00  0.00    +0.000 A 
ATOM     23  C   UNL     1      -1.657  11.369  18.860  0.00  0.00    +0.000 A 
ATOM     24  C   UNL     1      -2.916  11.967  18.928  0.00  0.00    +0.000 A 
ATOM     25  C   UNL     1      -3.931  11.533  18.075  0.00  0.00    +0.000 A 
ATOM     26  C   UNL     1      -3.686  10.509  17.151  0.00  0.00    +0.000 A 
ATOM     27  C   UNL     1      -2.409   9.929  17.080  0.00  0.00    +0.000 A 
BRANCH  25  28
ATOM     28  N   UNL     1      -5.254  12.167  18.148  0.00  0.00    +0.000 N 
ATOM     29  O   UNL     1      -5.946  12.182  17.120  0.00  0.00    +0.000 OA
ATOM     30  O   UNL     1      -5.598  12.650  19.235  0.00  0.00    +0.000 OA
ENDBRANCH  25  28
ENDBRANCH  20  22
ENDBRANCH  17  19
ENDBRANCH   1  17
TORSDOF 5
ENDMDL
MODEL 7
REMARK VINA RESULT:      -8.1      4.937      8.398
REMARK  Name = 
REMARK  5 active torsions:
REMARK  status: ('A' for Active; 'I' for Inactive)
REMARK    1  A    between atoms: C_2  and  C_3
REMARK    2  A    between atoms: C_3  and  N_4
REMARK    3  A    between atoms: C_10  and  C_11
REMARK    4  A    between atoms: N_20  and  C_21
REMARK    5  A    between atoms: C_24  and  N_25
REMARK                            x       y       z     vdW  Elec       q    Type
REMARK                         _______ _______ _______ _____ _____    ______ ____
ROOT
ATOM      1  N   UNL     1       2.102   8.171  18.905  0.00  0.00    +0.000 N 
ATOM      2  C   UNL     1       1.369   7.831  20.023  0.00  0.00    +0.000 A 
ATOM      3  N   UNL     1       1.466   6.711  20.667  0.00  0.00    +0.000 NA
ATOM      4  C   UNL     1       2.362   5.836  20.144  0.00  0.00    +0.000 A 
ATOM      5  S   UNL     1       2.579   4.294  20.832  0.00  0.00    +0.000 S 
ATOM      6  C   UNL     1       3.725   3.863  19.641  0.00  0.00    +0.000 A 
ATOM      7  C   UNL     1       3.969   4.872  18.723  0.00  0.00    +0.000 A 
ATOM      8  C   UNL     1       3.183   6.041  19.053  0.00  0.00    +0.000 A 
ATOM      9  C   UNL     1       3.118   7.351  18.424  0.00  0.00    +0.000 A 
ATOM     10  O   UNL     1       3.891   7.743  17.552  0.00  0.00    +0.000 OA
ENDROOT
BRANCH   7  11
ATOM     11  C   UNL     1       4.899   4.663  17.605  0.00  0.00    +0.000 A 
ATOM     12  C   UNL     1       6.280   4.837  17.779  0.00  0.00    +0.000 A 
ATOM     13  C   UNL     1       7.180   4.567  16.744  0.00  0.00    +0.000 A 
ATOM     14  C   UNL     1       6.706   4.179  15.496  0.00  0.00    +0.000 A 
ATOM     15  C   UNL     1       5.334   4.060  15.284  0.00  0.00    +0.000 A 
ATOM     16  C   UNL     1       4.439   4.289  16.334  0.00  0.00    +0.000 A 
ENDBRANCH   7  11
BRANCH   1  17
ATOM     17  C   UNL     1       1.925   9.461  18.264  0.00  0.00    +0.000 C 
BRANCH  17  19
ATOM     18  O   UNL     1      -0.404   9.932  18.287  0.00  0.00    +0.000 OA
ATOM     19  C   UNL     1       0.676  10.111  18.846  0.00  0.00    +0.000 C 
ATOM     20  N   UNL     1       0.880  10.797  20.035  0.00  0.00    +0.000 N 
ATOM     21  H   UNL     1       1.838  10.894  20.363  0.00  0.00    +0.000 HD
BRANCH  20  22
ATOM     22  C   UNL     1      -0.129  11.295  20.891  0.00  0.00    +0.000 A 
ATOM     23  C   UNL     1      -0.968  12.353  20.535  0.00  0.00    +0.000 A 
ATOM     24  C   UNL     1      -1.982  12.794  21.387  0.00  0.00    +0.000 A 
ATOM     25  C   UNL     1      -2.157  12.175  22.624  0.00  0.00    +0.000 A 
ATOM     26  C   UNL     1      -1.327  11.113  23.007  0.00  0.00    +0.000 A 
ATOM     27  C   UNL     1      -0.322  10.668  22.132  0.00  0.00    +0.000 A 
BRANCH  25  28
ATOM     28  N   UNL     1      -3.227  12.640  23.518  0.00  0.00    +0.000 N 
ATOM     29  O   UNL     1      -3.842  11.788  24.175  0.00  0.00    +0.000 OA
ATOM     30  O   UNL     1      -3.451  13.856  23.558  0.00  0.00    +0.000 OA
ENDBRANCH  25  28
ENDBRANCH  20  22
ENDBRANCH  17  19
ENDBRANCH   1  17
TORSDOF 5
ENDMDL
MODEL 8
REMARK VINA RESULT:      -7.9      3.994      7.104
REMARK  Name = 
REMARK  5 active torsions:
REMARK  status: ('A' for Active; 'I' for Inactive)
REMARK    1  A    between atoms: C_2  and  C_3
REMARK    2  A    between atoms: C_3  and  N_4
REMARK    3  A    between atoms: C_10  and  C_11
REMARK    4  A    between atoms: N_20  and  C_21
REMARK    5  A    between atoms: C_24  and  N_25
REMARK                            x       y       z     vdW  Elec       q    Type
REMARK                         _______ _______ _______ _____ _____    ______ ____
ROOT
ATOM      1  N   UNL     1       3.732   4.039  19.083  0.00  0.00    +0.000 N 
ATOM      2  C   UNL     1       3.360   3.118  18.125  0.00  0.00    +0.000 A 
ATOM      3  N   UNL     1       3.931   2.970  16.971  0.00  0.00    +0.000 NA
ATOM      4  C   UNL     1       4.957   3.826  16.737  0.00  0.00    +0.000 A 
ATOM      5  S   UNL     1       5.786   3.806  15.250  0.00  0.00    +0.000 S 
ATOM      6  C   UNL     1       6.782   5.110  15.725  0.00  0.00    +0.000 A 
ATOM      7  C   UNL     1       6.516   5.567  17.006  0.00  0.00    +0.000 A 
ATOM      8  C   UNL     1       5.461   4.777  17.602  0.00  0.00    +0.000 A 
ATOM      9  C   UNL     1       4.859   4.838  18.925  0.00  0.00    +0.000 A 
ATOM     10  O   UNL     1       5.294   5.514  19.856  0.00  0.00    +0.000 OA
ENDROOT
BRANCH   7  11
ATOM     11  C   UNL     1       7.251   6.709  17.566  0.00  0.00    +0.000 A 
ATOM     12  C   UNL     1       7.149   7.982  16.986  0.00  0.00    +0.000 A 
ATOM     13  C   UNL     1       7.783   9.090  17.554  0.00  0.00    +0.000 A 
ATOM     14  C   UNL     1       8.582   8.930  18.681  0.00  0.00    +0.000 A 
ATOM     15  C   UNL     1       8.746   7.663  19.237  0.00  0.00    +0.000 A 
ATOM     16  C   UNL     1       8.076   6.564  18.691  0.00  0.00    +0.000 A 
ENDBRANCH   7  11
BRANCH   1  17
ATOM     17  C   UNL     1       3.030   4.115  20.352  0.00  0.00    +0.000 C 
BRANCH  17  19
ATOM     18  O   UNL     1       0.803   4.939  20.411  0.00  0.00    +0.000 OA
ATOM     19  C   UNL     1       1.988   5.221  20.250  0.00  0.00    +0.000 C 
ATOM     20  N   UNL     1       2.510   6.493  20.059  0.00  0.00    +0.000 N 
ATOM     21  H   UNL     1       3.512   6.571  19.906  0.00  0.00    +0.000 HD
BRANCH  20  22
ATOM     22  C   UNL     1       1.794   7.708  20.152  0.00  0.00    +0.000 A 
ATOM     23  C   UNL     1       1.661   8.591  19.078  0.00  0.00    +0.000 A 
ATOM     24  C   UNL     1       0.912   9.764  19.190  0.00  0.00    +0.000 A 
ATOM     25  C   UNL     1       0.290  10.069  20.400  0.00  0.00    +0.000 A 
ATOM     26  C   UNL     1       0.410   9.201  21.494  0.00  0.00    +0.000 A 
ATOM     27  C   UNL     1       1.152   8.016  21.362  0.00  0.00    +0.000 A 
BRANCH  25  28
ATOM     28  N   UNL     1      -0.500  11.302  20.514  0.00  0.00    +0.000 N 
ATOM     29  O   UNL     1      -1.523  11.400  19.822  0.00  0.00    +0.000 OA
ATOM     30  O   UNL     1      -0.094  12.171  21.296  0.00  0.00    +0.000 OA
ENDBRANCH  25  28
ENDBRANCH  20  22
ENDBRANCH  17  19
ENDBRANCH   1  17
TORSDOF 5
ENDMDL
MODEL 9
REMARK VINA RESULT:      -7.9      5.098      9.132
REMARK  Name = 
REMARK  5 active torsions:
REMARK  status: ('A' for Active; 'I' for Inactive)
REMARK    1  A    between atoms: C_2  and  C_3
REMARK    2  A    between atoms: C_3  and  N_4
REMARK    3  A    between atoms: C_10  and  C_11
REMARK    4  A    between atoms: N_20  and  C_21
REMARK    5  A    between atoms: C_24  and  N_25
REMARK                            x       y       z     vdW  Elec       q    Type
REMARK                         _______ _______ _______ _____ _____    ______ ____
ROOT
ATOM      1  N   UNL     1       2.166   8.334  18.702  0.00  0.00    +0.000 N 
ATOM      2  C   UNL     1       1.409   8.048  19.819  0.00  0.00    +0.000 A 
ATOM      3  N   UNL     1       1.476   6.951  20.505  0.00  0.00    +0.000 NA
ATOM      4  C   UNL     1       2.365   6.043  20.029  0.00  0.00    +0.000 A 
ATOM      5  S   UNL     1       2.544   4.523  20.776  0.00  0.00    +0.000 S 
ATOM      6  C   UNL     1       3.702   4.030  19.623  0.00  0.00    +0.000 A 
ATOM      7  C   UNL     1       3.979   5.000  18.673  0.00  0.00    +0.000 A 
ATOM      8  C   UNL     1       3.208   6.193  18.946  0.00  0.00    +0.000 A 
ATOM      9  C   UNL     1       3.176   7.480  18.269  0.00  0.00    +0.000 A 
ATOM     10  O   UNL     1       3.970   7.827  17.397  0.00  0.00    +0.000 OA
ENDROOT
BRANCH   7  11
ATOM     11  C   UNL     1       4.924   4.735  17.579  0.00  0.00    +0.000 A 
ATOM     12  C   UNL     1       6.306   4.862  17.779  0.00  0.00    +0.000 A 
ATOM     13  C   UNL     1       7.216   4.539  16.769  0.00  0.00    +0.000 A 
ATOM     14  C   UNL     1       6.755   4.143  15.519  0.00  0.00    +0.000 A 
ATOM     15  C   UNL     1       5.385   4.069  15.281  0.00  0.00    +0.000 A 
ATOM     16  C   UNL     1       4.476   4.351  16.307  0.00  0.00    +0.000 A 
ENDBRANCH   7  11
BRANCH   1  17
ATOM     17  C   UNL     1       2.022   9.603  18.012  0.00  0.00    +0.000 C 
BRANCH  17  19
ATOM     18  O   UNL     1       0.665  11.087  19.276  0.00  0.00    +0.000 OA
ATOM     19  C   UNL     1       0.685  10.212  18.415  0.00  0.00    +0.000 C 
ATOM     20  N   UNL     1      -0.403   9.754  17.685  0.00  0.00    +0.000 N 
ATOM     21  H   UNL     1      -0.241   8.997  17.025  0.00  0.00    +0.000 HD
BRANCH  20  22
ATOM     22  C   UNL     1      -1.705  10.305  17.698  0.00  0.00    +0.000 A 
ATOM     23  C   UNL     1      -2.685   9.950  16.770  0.00  0.00    +0.000 A 
ATOM     24  C   UNL     1      -3.975  10.482  16.837  0.00  0.00    +0.000 A 
ATOM     25  C   UNL     1      -4.290  11.395  17.842  0.00  0.00    +0.000 A 
ATOM     26  C   UNL     1      -3.323  11.770  18.784  0.00  0.00    +0.000 A 
ATOM     27  C   UNL     1      -2.036  11.214  18.716  0.00  0.00    +0.000 A 
BRANCH  25  28
ATOM     28  N   UNL     1      -5.649  11.950  17.911  0.00  0.00    +0.000 N 
ATOM     29  O   UNL     1      -5.767  13.182  17.983  0.00  0.00    +0.000 OA
ATOM     30  O   UNL     1      -6.595  11.152  17.893  0.00  0.00    +0.000 OA
ENDBRANCH  25  28
ENDBRANCH  20  22
ENDBRANCH  17  19
ENDBRANCH   1  17
TORSDOF 5
ENDMDL
