MODEL 1
REMARK VINA RESULT:      -7.6      0.000      0.000
REMARK  Name = 
REMARK  4 active torsions:
REMARK  status: ('A' for Active; 'I' for Inactive)
REMARK    1  A    between atoms: C_1  and  C_2
REMARK    2  A    between atoms: C_4  and  C_5
REMARK    3  A    between atoms: C_10  and  C_11
REMARK    4  A    between atoms: N_13  and  C_14
REMARK                            x       y       z     vdW  Elec       q    Type
REMARK                         _______ _______ _______ _____ _____    ______ ____
ROOT
ATOM      1  C   UNL     1       6.598   4.787  14.969  0.00  0.00    +0.000 C 
ATOM      2  C   UNL     1       5.690   5.033  16.139  0.00  0.00    +0.000 A 
ATOM      3  C   UNL     1       5.515   4.056  17.125  0.00  0.00    +0.000 A 
ATOM      4  C   UNL     1       4.663   4.266  18.223  0.00  0.00    +0.000 A 
ATOM      5  C   UNL     1       4.519   3.167  19.242  0.00  0.00    +0.000 C 
ATOM      6  C   UNL     1       3.975   5.492  18.318  0.00  0.00    +0.000 A 
ATOM      7  C   UNL     1       3.055   5.805  19.434  0.00  0.00    +0.000 A 
ATOM      8  O   UNL     1       2.856   5.064  20.386  0.00  0.00    +0.000 OA
ATOM      9  C   UNL     1       2.345   7.085  19.360  0.00  0.00    +0.000 A 
ATOM     10  C   UNL     1       2.585   7.921  18.342  0.00  0.00    +0.000 A 
ATOM     11  O   UNL     1       3.489   7.681  17.327  0.00  0.00    +0.000 OA
ATOM     12  C   UNL     1       4.142   6.468  17.326  0.00  0.00    +0.000 A 
ATOM     13  C   UNL     1       4.998   6.243  16.246  0.00  0.00    +0.000 A 
ENDROOT
BRANCH  10  14
ATOM     14  C   UNL     1       1.801   9.195  18.335  0.00  0.00    +0.000 C 
ATOM     15  O   UNL     1       2.019  10.030  17.459  0.00  0.00    +0.000 OA
ATOM     16  N   UNL     1       0.902   9.337  19.377  0.00  0.00    +0.000 N 
ATOM     17  H   UNL     1       0.906   8.629  20.102  0.00  0.00    +0.000 HD
BRANCH  16  18
ATOM     18  C   UNL     1       0.032  10.446  19.542  0.00  0.00    +0.000 A 
ATOM     19  C   UNL     1      -1.200  10.542  18.896  0.00  0.00    +0.000 A 
ATOM     20  C   UNL     1      -2.025  11.644  19.097  0.00  0.00    +0.000 A 
ATOM     21  C   UNL     1      -1.590  12.639  19.948  0.00  0.00    +0.000 A 
ATOM     22  N   UNL     1      -0.409  12.595  20.604  0.00  0.00    +0.000 NA
ATOM     23  C   UNL     1       0.370  11.501  20.388  0.00  0.00    +0.000 A 
ENDBRANCH  16  18
ENDBRANCH  10  14
TORSDOF 2
ENDMDL
MODEL 2
REMARK VINA RESULT:      -7.5      1.396      2.649
REMARK  Name = 
REMARK  4 active torsions:
REMARK  status: ('A' for Active; 'I' for Inactive)
REMARK    1  A    between atoms: C_1  and  C_2
REMARK    2  A    between atoms: C_4  and  C_5
REMARK    3  A    between atoms: C_10  and  C_11
REMARK    4  A    between atoms: N_13  and  C_14
REMARK                            x       y       z     vdW  Elec       q    Type
REMARK                         _______ _______ _______ _____ _____    ______ ____
ROOT
ATOM      1  C   UNL     1       2.181   1.776  18.794  0.00  0.00    +0.000 C 
ATOM      2  C   UNL     1       2.801   3.039  18.272  0.00  0.00    +0.000 A 
ATOM      3  C   UNL     1       4.008   3.003  17.566  0.00  0.00    +0.000 A 
ATOM      4  C   UNL     1       4.607   4.176  17.076  0.00  0.00    +0.000 A 
ATOM      5  C   UNL     1       5.910   4.061  16.329  0.00  0.00    +0.000 C 
ATOM      6  C   UNL     1       3.967   5.409  17.312  0.00  0.00    +0.000 A 
ATOM      7  C   UNL     1       4.521   6.697  16.839  0.00  0.00    +0.000 A 
ATOM      8  O   UNL     1       5.536   6.800  16.165  0.00  0.00    +0.000 OA
ATOM      9  C   UNL     1       3.791   7.908  17.228  0.00  0.00    +0.000 A 
ATOM     10  C   UNL     1       2.657   7.803  17.933  0.00  0.00    +0.000 A 
ATOM     11  O   UNL     1       2.085   6.609  18.325  0.00  0.00    +0.000 OA
ATOM     12  C   UNL     1       2.763   5.448  18.028  0.00  0.00    +0.000 A 
ATOM     13  C   UNL     1       2.180   4.270  18.500  0.00  0.00    +0.000 A 
ENDROOT
BRANCH  10  14
ATOM     14  C   UNL     1       1.990   9.089  18.304  0.00  0.00    +0.000 C 
ATOM     15  O   UNL     1       2.176  10.086  17.607  0.00  0.00    +0.000 OA
ATOM     16  N   UNL     1       1.232   9.046  19.461  0.00  0.00    +0.000 N 
ATOM     17  H   UNL     1       1.259   8.194  20.009  0.00  0.00    +0.000 HD
BRANCH  16  18
ATOM     18  C   UNL     1       0.486  10.138  19.974  0.00  0.00    +0.000 A 
ATOM     19  C   UNL     1      -0.728  10.548  19.423  0.00  0.00    +0.000 A 
ATOM     20  C   UNL     1      -1.431  11.618  19.967  0.00  0.00    +0.000 A 
ATOM     21  C   UNL     1      -0.893  12.263  21.062  0.00  0.00    +0.000 A 
ATOM     22  N   UNL     1       0.275  11.905  21.638  0.00  0.00    +0.000 NA
ATOM     23  C   UNL     1       0.933  10.851  21.084  0.00  0.00    +0.000 A 
ENDBRANCH  16  18
ENDBRANCH  10  14
TORSDOF 2
ENDMDL
MODEL 3
REMARK VINA RESULT:      -7.5      1.586      1.742
REMARK  Name = 
REMARK  4 active torsions:
REMARK  status: ('A' for Active; 'I' for Inactive)
REMARK    1  A    between atoms: C_1  and  C_2
REMARK    2  A    between atoms: C_4  and  C_5
REMARK    3  A    between atoms: C_10  and  C_11
REMARK    4  A    between atoms: N_13  and  C_14
REMARK                            x       y       z     vdW  Elec       q    Type
REMARK                         _______ _______ _______ _____ _____    ______ ____
ROOT
ATOM      1  C   UNL     1       5.950   5.125  15.046  0.00  0.00    +0.000 C 
ATOM      2  C   UNL     1       5.139   5.083  16.308  0.00  0.00    +0.000 A 
ATOM      3  C   UNL     1       5.028   3.900  17.047  0.00  0.00    +0.000 A 
ATOM      4  C   UNL     1       4.267   3.840  18.227  0.00  0.00    +0.000 A 
ATOM      5  C   UNL     1       4.188   2.532  18.966  0.00  0.00    +0.000 C 
ATOM      6  C   UNL     1       3.605   5.006  18.661  0.00  0.00    +0.000 A 
ATOM      7  C   UNL     1       2.778   5.042  19.888  0.00  0.00    +0.000 A 
ATOM      8  O   UNL     1       2.644   4.096  20.652  0.00  0.00    +0.000 OA
ATOM      9  C   UNL     1       2.081   6.299  20.175  0.00  0.00    +0.000 A 
ATOM     10  C   UNL     1       2.253   7.353  19.366  0.00  0.00    +0.000 A 
ATOM     11  O   UNL     1       3.073   7.364  18.256  0.00  0.00    +0.000 OA
ATOM     12  C   UNL     1       3.707   6.189  17.917  0.00  0.00    +0.000 A 
ATOM     13  C   UNL     1       4.474   6.230  16.751  0.00  0.00    +0.000 A 
ENDROOT
BRANCH  10  14
ATOM     14  C   UNL     1       1.488   8.589  19.721  0.00  0.00    +0.000 C 
ATOM     15  O   UNL     1       1.138   9.357  18.827  0.00  0.00    +0.000 OA
ATOM     16  N   UNL     1       1.275   8.779  21.075  0.00  0.00    +0.000 N 
ATOM     17  H   UNL     1       1.721   8.134  21.717  0.00  0.00    +0.000 HD
BRANCH  16  18
ATOM     18  C   UNL     1       0.543   9.860  21.629  0.00  0.00    +0.000 A 
ATOM     19  C   UNL     1      -0.469   9.683  22.573  0.00  0.00    +0.000 A 
ATOM     20  C   UNL     1      -1.153  10.775  23.096  0.00  0.00    +0.000 A 
ATOM     21  C   UNL     1      -0.807  12.035  22.654  0.00  0.00    +0.000 A 
ATOM     22  N   UNL     1       0.167  12.266  21.747  0.00  0.00    +0.000 NA
ATOM     23  C   UNL     1       0.819  11.176  21.260  0.00  0.00    +0.000 A 
ENDBRANCH  16  18
ENDBRANCH  10  14
TORSDOF 2
ENDMDL
MODEL 4
REMARK VINA RESULT:      -7.5      4.045      7.960
REMARK  Name = 
REMARK  4 active torsions:
REMARK  status: ('A' for Active; 'I' for Inactive)
REMARK    1  A    between atoms: C_1  and  C_2
REMARK    2  A    between atoms: C_4  and  C_5
REMARK    3  A    between atoms: C_10  and  C_11
REMARK    4  A    between atoms: N_13  and  C_14
REMARK                            x       y       z     vdW  Elec       q    Type
REMARK                         _______ _______ _______ _____ _____    ______ ____
ROOT
ATOM      1  C   UNL     1       1.282   7.929  21.026  0.00  0.00    +0.000 C 
ATOM      2  C   UNL     1       1.759   6.610  20.493  0.00  0.00    +0.000 A 
ATOM      3  C   UNL     1       1.288   5.408  21.033  0.00  0.00    +0.000 A 
ATOM      4  C   UNL     1       1.729   4.163  20.552  0.00  0.00    +0.000 A 
ATOM      5  C   UNL     1       1.183   2.912  21.185  0.00  0.00    +0.000 C 
ATOM      6  C   UNL     1       2.669   4.142  19.503  0.00  0.00    +0.000 A 
ATOM      7  C   UNL     1       3.196   2.883  18.930  0.00  0.00    +0.000 A 
ATOM      8  O   UNL     1       2.827   1.768  19.272  0.00  0.00    +0.000 OA
ATOM      9  C   UNL     1       4.230   3.011  17.900  0.00  0.00    +0.000 A 
ATOM     10  C   UNL     1       4.613   4.228  17.491  0.00  0.00    +0.000 A 
ATOM     11  O   UNL     1       4.087   5.414  17.960  0.00  0.00    +0.000 OA
ATOM     12  C   UNL     1       3.150   5.345  18.967  0.00  0.00    +0.000 A 
ATOM     13  C   UNL     1       2.693   6.571  19.455  0.00  0.00    +0.000 A 
ENDROOT
BRANCH  10  14
ATOM     14  C   UNL     1       5.688   4.266  16.451  0.00  0.00    +0.000 C 
ATOM     15  O   UNL     1       6.867   4.241  16.804  0.00  0.00    +0.000 OA
ATOM     16  N   UNL     1       5.241   4.372  15.147  0.00  0.00    +0.000 N 
ATOM     17  H   UNL     1       4.247   4.507  15.000  0.00  0.00    +0.000 HD
BRANCH  16  18
ATOM     18  C   UNL     1       6.084   4.387  14.006  0.00  0.00    +0.000 A 
ATOM     19  C   UNL     1       5.916   3.514  12.931  0.00  0.00    +0.000 A 
ATOM     20  C   UNL     1       6.762   3.572  11.828  0.00  0.00    +0.000 A 
ATOM     21  C   UNL     1       7.772   4.512  11.829  0.00  0.00    +0.000 A 
ATOM     22  N   UNL     1       7.978   5.384  12.840  0.00  0.00    +0.000 NA
ATOM     23  C   UNL     1       7.129   5.303  13.900  0.00  0.00    +0.000 A 
ENDBRANCH  16  18
ENDBRANCH  10  14
TORSDOF 2
ENDMDL
MODEL 5
REMARK VINA RESULT:      -7.5      5.288      6.631
REMARK  Name = 
REMARK  4 active torsions:
REMARK  status: ('A' for Active; 'I' for Inactive)
REMARK    1  A    between atoms: C_1  and  C_2
REMARK    2  A    between atoms: C_4  and  C_5
REMARK    3  A    between atoms: C_10  and  C_11
REMARK    4  A    between atoms: N_13  and  C_14
REMARK                            x       y       z     vdW  Elec       q    Type
REMARK                         _______ _______ _______ _____ _____    ______ ____
ROOT
ATOM      1  C   UNL     1       5.386   2.408  11.338  0.00  0.00    +0.000 C 
ATOM      2  C   UNL     1       5.843   3.299  12.455  0.00  0.00    +0.000 A 
ATOM      3  C   UNL     1       6.953   4.136  12.293  0.00  0.00    +0.000 A 
ATOM      4  C   UNL     1       7.400   4.972  13.330  0.00  0.00    +0.000 A 
ATOM      5  C   UNL     1       8.604   5.841  13.085  0.00  0.00    +0.000 C 
ATOM      6  C   UNL     1       6.707   4.953  14.556  0.00  0.00    +0.000 A 
ATOM      7  C   UNL     1       7.102   5.794  15.708  0.00  0.00    +0.000 A 
ATOM      8  O   UNL     1       8.016   6.607  15.681  0.00  0.00    +0.000 OA
ATOM      9  C   UNL     1       6.341   5.611  16.948  0.00  0.00    +0.000 A 
ATOM     10  C   UNL     1       5.315   4.752  16.976  0.00  0.00    +0.000 A 
ATOM     11  O   UNL     1       4.884   4.009  15.896  0.00  0.00    +0.000 OA
ATOM     12  C   UNL     1       5.601   4.108  14.724  0.00  0.00    +0.000 A 
ATOM     13  C   UNL     1       5.168   3.290  13.679  0.00  0.00    +0.000 A 
ENDROOT
BRANCH  10  14
ATOM     14  C   UNL     1       4.607   4.613  18.287  0.00  0.00    +0.000 C 
ATOM     15  O   UNL     1       4.879   5.388  19.203  0.00  0.00    +0.000 OA
ATOM     16  N   UNL     1       3.712   3.561  18.363  0.00  0.00    +0.000 N 
ATOM     17  H   UNL     1       3.669   2.922  17.577  0.00  0.00    +0.000 HD
BRANCH  16  18
ATOM     18  C   UNL     1       2.908   3.270  19.495  0.00  0.00    +0.000 A 
ATOM     19  C   UNL     1       1.534   3.509  19.527  0.00  0.00    +0.000 A 
ATOM     20  C   UNL     1       0.784   3.197  20.657  0.00  0.00    +0.000 A 
ATOM     21  C   UNL     1       1.436   2.650  21.743  0.00  0.00    +0.000 A 
ATOM     22  N   UNL     1       2.762   2.393  21.764  0.00  0.00    +0.000 NA
ATOM     23  C   UNL     1       3.463   2.705  20.641  0.00  0.00    +0.000 A 
ENDBRANCH  16  18
ENDBRANCH  10  14
TORSDOF 2
ENDMDL
MODEL 6
REMARK VINA RESULT:      -7.5      0.997      1.004
REMARK  Name = 
REMARK  4 active torsions:
REMARK  status: ('A' for Active; 'I' for Inactive)
REMARK    1  A    between atoms: C_1  and  C_2
REMARK    2  A    between atoms: C_4  and  C_5
REMARK    3  A    between atoms: C_10  and  C_11
REMARK    4  A    between atoms: N_13  and  C_14
REMARK                            x       y       z     vdW  Elec       q    Type
REMARK                         _______ _______ _______ _____ _____    ______ ____
ROOT
ATOM      1  C   UNL     1       7.214   4.826  15.356  0.00  0.00    +0.000 C 
ATOM      2  C   UNL     1       5.939   4.899  16.143  0.00  0.00    +0.000 A 
ATOM      3  C   UNL     1       5.279   3.732  16.545  0.00  0.00    +0.000 A 
ATOM      4  C   UNL     1       4.080   3.781  17.276  0.00  0.00    +0.000 A 
ATOM      5  C   UNL     1       3.423   2.485  17.670  0.00  0.00    +0.000 C 
ATOM      6  C   UNL     1       3.541   5.042  17.602  0.00  0.00    +0.000 A 
ATOM      7  C   UNL     1       2.283   5.197  18.366  0.00  0.00    +0.000 A 
ATOM      8  O   UNL     1       1.639   4.262  18.823  0.00  0.00    +0.000 OA
ATOM      9  C   UNL     1       1.797   6.566  18.561  0.00  0.00    +0.000 A 
ATOM     10  C   UNL     1       2.515   7.598  18.099  0.00  0.00    +0.000 A 
ATOM     11  O   UNL     1       3.724   7.481  17.445  0.00  0.00    +0.000 OA
ATOM     12  C   UNL     1       4.195   6.212  17.192  0.00  0.00    +0.000 A 
ATOM     13  C   UNL     1       5.389   6.141  16.472  0.00  0.00    +0.000 A 
ENDROOT
BRANCH  10  14
ATOM     14  C   UNL     1       1.934   8.959  18.324  0.00  0.00    +0.000 C 
ATOM     15  O   UNL     1       2.151   9.848  17.502  0.00  0.00    +0.000 OA
ATOM     16  N   UNL     1       1.219   9.105  19.498  0.00  0.00    +0.000 N 
ATOM     17  H   UNL     1       1.217   8.327  20.149  0.00  0.00    +0.000 HD
BRANCH  16  18
ATOM     18  C   UNL     1       0.554  10.295  19.891  0.00  0.00    +0.000 A 
ATOM     19  C   UNL     1      -0.683  10.676  19.371  0.00  0.00    +0.000 A 
ATOM     20  C   UNL     1      -1.302  11.848  19.794  0.00  0.00    +0.000 A 
ATOM     21  C   UNL     1      -0.659  12.622  20.739  0.00  0.00    +0.000 A 
ATOM     22  N   UNL     1       0.536  12.298  21.280  0.00  0.00    +0.000 NA
ATOM     23  C   UNL     1       1.110  11.143  20.847  0.00  0.00    +0.000 A 
ENDBRANCH  16  18
ENDBRANCH  10  14
TORSDOF 2
ENDMDL
MODEL 7
REMARK VINA RESULT:      -7.4      0.641      1.062
REMARK  Name = 
REMARK  4 active torsions:
REMARK  status: ('A' for Active; 'I' for Inactive)
REMARK    1  A    between atoms: C_1  and  C_2
REMARK    2  A    between atoms: C_4  and  C_5
REMARK    3  A    between atoms: C_10  and  C_11
REMARK    4  A    between atoms: N_13  and  C_14
REMARK                            x       y       z     vdW  Elec       q    Type
REMARK                         _______ _______ _______ _____ _____    ______ ____
ROOT
ATOM      1  C   UNL     1       6.349   4.342  15.036  0.00  0.00    +0.000 C 
ATOM      2  C   UNL     1       5.497   4.656  16.230  0.00  0.00    +0.000 A 
ATOM      3  C   UNL     1       5.321   3.714  17.250  0.00  0.00    +0.000 A 
ATOM      4  C   UNL     1       4.520   3.988  18.372  0.00  0.00    +0.000 A 
ATOM      5  C   UNL     1       4.372   2.924  19.427  0.00  0.00    +0.000 C 
ATOM      6  C   UNL     1       3.884   5.242  18.456  0.00  0.00    +0.000 A 
ATOM      7  C   UNL     1       3.020   5.623  19.595  0.00  0.00    +0.000 A 
ATOM      8  O   UNL     1       2.828   4.916  20.575  0.00  0.00    +0.000 OA
ATOM      9  C   UNL     1       2.357   6.927  19.511  0.00  0.00    +0.000 A 
ATOM     10  C   UNL     1       2.591   7.724  18.460  0.00  0.00    +0.000 A 
ATOM     11  O   UNL     1       3.447   7.421  17.421  0.00  0.00    +0.000 OA
ATOM     12  C   UNL     1       4.052   6.183  17.431  0.00  0.00    +0.000 A 
ATOM     13  C   UNL     1       4.857   5.894  16.327  0.00  0.00    +0.000 A 
ENDROOT
BRANCH  10  14
ATOM     14  C   UNL     1       1.858   9.028  18.445  0.00  0.00    +0.000 C 
ATOM     15  O   UNL     1       2.023   9.800  17.502  0.00  0.00    +0.000 OA
ATOM     16  N   UNL     1       1.067   9.270  19.554  0.00  0.00    +0.000 N 
ATOM     17  H   UNL     1       1.112   8.606  20.318  0.00  0.00    +0.000 HD
BRANCH  16  18
ATOM     18  C   UNL     1       0.258  10.423  19.728  0.00  0.00    +0.000 A 
ATOM     19  C   UNL     1       0.675  11.535  20.459  0.00  0.00    +0.000 A 
ATOM     20  C   UNL     1      -0.149  12.647  20.594  0.00  0.00    +0.000 A 
ATOM     21  C   UNL     1      -1.389  12.619  19.989  0.00  0.00    +0.000 A 
ATOM     22  N   UNL     1      -1.842  11.571  19.266  0.00  0.00    +0.000 NA
ATOM     23  C   UNL     1      -1.008  10.502  19.150  0.00  0.00    +0.000 A 
ENDBRANCH  16  18
ENDBRANCH  10  14
TORSDOF 2
ENDMDL
MODEL 8
REMARK VINA RESULT:      -7.4      1.379      1.613
REMARK  Name = 
REMARK  4 active torsions:
REMARK  status: ('A' for Active; 'I' for Inactive)
REMARK    1  A    between atoms: C_1  and  C_2
REMARK    2  A    between atoms: C_4  and  C_5
REMARK    3  A    between atoms: C_10  and  C_11
REMARK    4  A    between atoms: N_13  and  C_14
REMARK                            x       y       z     vdW  Elec       q    Type
REMARK                         _______ _______ _______ _____ _____    ______ ____
ROOT
ATOM      1  C   UNL     1       5.682   5.197  15.223  0.00  0.00    +0.000 C 
ATOM      2  C   UNL     1       4.849   5.019  16.458  0.00  0.00    +0.000 A 
ATOM      3  C   UNL     1       4.610   3.743  16.981  0.00  0.00    +0.000 A 
ATOM      4  C   UNL     1       3.826   3.556  18.132  0.00  0.00    +0.000 A 
ATOM      5  C   UNL     1       3.607   2.154  18.634  0.00  0.00    +0.000 C 
ATOM      6  C   UNL     1       3.274   4.689  18.762  0.00  0.00    +0.000 A 
ATOM      7  C   UNL     1       2.433   4.594  19.977  0.00  0.00    +0.000 A 
ATOM      8  O   UNL     1       2.194   3.549  20.564  0.00  0.00    +0.000 OA
ATOM      9  C   UNL     1       1.857   5.846  20.476  0.00  0.00    +0.000 A 
ATOM     10  C   UNL     1       2.145   7.001  19.862  0.00  0.00    +0.000 A 
ATOM     11  O   UNL     1       2.981   7.122  18.771  0.00  0.00    +0.000 OA
ATOM     12  C   UNL     1       3.504   5.967  18.234  0.00  0.00    +0.000 A 
ATOM     13  C   UNL     1       4.291   6.131  17.093  0.00  0.00    +0.000 A 
ENDROOT
BRANCH  10  14
ATOM     14  C   UNL     1       1.497   8.227  20.426  0.00  0.00    +0.000 C 
ATOM     15  O   UNL     1       1.306   8.302  21.639  0.00  0.00    +0.000 OA
ATOM     16  N   UNL     1       1.122   9.176  19.492  0.00  0.00    +0.000 N 
ATOM     17  H   UNL     1       1.226   8.938  18.512  0.00  0.00    +0.000 HD
BRANCH  16  18
ATOM     18  C   UNL     1       0.529  10.425  19.808  0.00  0.00    +0.000 A 
ATOM     19  C   UNL     1      -0.847  10.645  19.749  0.00  0.00    +0.000 A 
ATOM     20  C   UNL     1      -1.384  11.884  20.078  0.00  0.00    +0.000 A 
ATOM     21  C   UNL     1      -0.520  12.890  20.462  0.00  0.00    +0.000 A 
ATOM     22  N   UNL     1       0.819  12.731  20.542  0.00  0.00    +0.000 NA
ATOM     23  C   UNL     1       1.310  11.504  20.218  0.00  0.00    +0.000 A 
ENDBRANCH  16  18
ENDBRANCH  10  14
TORSDOF 2
ENDMDL
MODEL 9
REMARK VINA RESULT:      -7.3      1.438      2.794
REMARK  Name = 
REMARK  4 active torsions:
REMARK  status: ('A' for Active; 'I' for Inactive)
REMARK    1  A    between atoms: C_1  and  C_2
REMARK    2  A    between atoms: C_4  and  C_5
REMARK    3  A    between atoms: C_10  and  C_11
REMARK    4  A    between atoms: N_13  and  C_14
REMARK                            x       y       z     vdW  Elec       q    Type
REMARK                         _______ _______ _______ _____ _____    ______ ____
ROOT
ATOM      1  C   UNL     1       2.128   1.740  18.528  0.00  0.00    +0.000 C 
ATOM      2  C   UNL     1       2.781   3.015  18.083  0.00  0.00    +0.000 A 
ATOM      3  C   UNL     1       4.028   2.996  17.448  0.00  0.00    +0.000 A 
ATOM      4  C   UNL     1       4.657   4.181  17.032  0.00  0.00    +0.000 A 
ATOM      5  C   UNL     1       6.001   4.084  16.360  0.00  0.00    +0.000 C 
ATOM      6  C   UNL     1       4.007   5.409  17.268  0.00  0.00    +0.000 A 
ATOM      7  C   UNL     1       4.591   6.709  16.869  0.00  0.00    +0.000 A 
ATOM      8  O   UNL     1       5.644   6.829  16.260  0.00  0.00    +0.000 OA
ATOM      9  C   UNL     1       3.843   7.910  17.252  0.00  0.00    +0.000 A 
ATOM     10  C   UNL     1       2.670   7.788  17.886  0.00  0.00    +0.000 A 
ATOM     11  O   UNL     1       2.073   6.586  18.206  0.00  0.00    +0.000 OA
ATOM     12  C   UNL     1       2.763   5.431  17.913  0.00  0.00    +0.000 A 
ATOM     13  C   UNL     1       2.151   4.242  18.313  0.00  0.00    +0.000 A 
ENDROOT
BRANCH  10  14
ATOM     14  C   UNL     1       1.984   9.066  18.257  0.00  0.00    +0.000 C 
ATOM     15  O   UNL     1       2.197  10.078  17.591  0.00  0.00    +0.000 OA
ATOM     16  N   UNL     1       1.180   8.996  19.381  0.00  0.00    +0.000 N 
ATOM     17  H   UNL     1       1.187   8.132  19.911  0.00  0.00    +0.000 HD
BRANCH  16  18
ATOM     18  C   UNL     1       0.411  10.075  19.887  0.00  0.00    +0.000 A 
ATOM     19  C   UNL     1       0.802  10.829  20.993  0.00  0.00    +0.000 A 
ATOM     20  C   UNL     1       0.020  11.885  21.447  0.00  0.00    +0.000 A 
ATOM     21  C   UNL     1      -1.154  12.164  20.777  0.00  0.00    +0.000 A 
ATOM     22  N   UNL     1      -1.578  11.471  19.698  0.00  0.00    +0.000 NA
ATOM     23  C   UNL     1      -0.786  10.448  19.277  0.00  0.00    +0.000 A 
ENDBRANCH  16  18
ENDBRANCH  10  14
TORSDOF 2
ENDMDL
