MODEL 1
REMARK VINA RESULT:      -7.1      0.000      0.000
REMARK  Name = 
REMARK  2 active torsions:
REMARK  status: ('A' for Active; 'I' for Inactive)
REMARK    1  A    between atoms: C_1  and  O_2
REMARK    2  A    between atoms: O_2  and  C_3
REMARK                            x       y       z     vdW  Elec       q    Type
REMARK                         _______ _______ _______ _____ _____    ______ ____
ROOT
ATOM      1  C   UNL     1       2.112   3.145  19.354  0.00  0.00    +0.000 A 
ATOM      2  C   UNL     1       2.060   2.554  18.097  0.00  0.00    +0.000 A 
ATOM      3  C   UNL     1       3.002   2.877  17.110  0.00  0.00    +0.000 A 
ATOM      4  C   UNL     1       4.027   3.820  17.377  0.00  0.00    +0.000 A 
ATOM      5  C   UNL     1       4.054   4.401  18.644  0.00  0.00    +0.000 A 
ATOM      6  C   UNL     1       3.113   4.073  19.640  0.00  0.00    +0.000 A 
ATOM      7  S   UNL     1       5.338   5.525  18.807  0.00  0.00    +0.000 S 
ATOM      8  C   UNL     1       5.871   5.274  17.202  0.00  0.00    +0.000 A 
ATOM      9  C   UNL     1       6.929   5.884  16.526  0.00  0.00    +0.000 A 
ATOM     10  N   UNL     1       7.727   6.864  17.088  0.00  0.00    +0.000 N 
ATOM     11  N   UNL     1       7.187   5.499  15.265  0.00  0.00    +0.000 NA
ATOM     12  C   UNL     1       6.392   4.571  14.711  0.00  0.00    +0.000 A 
ATOM     13  N   UNL     1       5.347   3.948  15.266  0.00  0.00    +0.000 NA
ATOM     14  C   UNL     1       5.098   4.323  16.549  0.00  0.00    +0.000 A 
ATOM     15  H   UNL     1       7.736   6.909  18.099  0.00  0.00    +0.000 HD
ATOM     16  H   UNL     1       8.606   6.987  16.603  0.00  0.00    +0.000 HD
ENDROOT
BRANCH   1  18
ATOM     17  C   UNL     1       1.498   2.732  21.611  0.00  0.00    +0.000 C 
ATOM     18  O   UNL     1       1.138   2.746  20.232  0.00  0.00    +0.000 OA
ENDBRANCH   1  18
TORSDOF 1
ENDMDL
MODEL 2
REMARK VINA RESULT:      -6.7      3.675      5.923
REMARK  Name = 
REMARK  2 active torsions:
REMARK  status: ('A' for Active; 'I' for Inactive)
REMARK    1  A    between atoms: C_1  and  O_2
REMARK    2  A    between atoms: O_2  and  C_3
REMARK                            x       y       z     vdW  Elec       q    Type
REMARK                         _______ _______ _______ _____ _____    ______ ____
ROOT
ATOM      1  C   UNL     1       7.211   7.296  17.621  0.00  0.00    +0.000 A 
ATOM      2  C   UNL     1       7.833   6.428  18.512  0.00  0.00    +0.000 A 
ATOM      3  C   UNL     1       7.145   5.330  19.046  0.00  0.00    +0.000 A 
ATOM      4  C   UNL     1       5.794   5.085  18.688  0.00  0.00    +0.000 A 
ATOM      5  C   UNL     1       5.194   5.973  17.796  0.00  0.00    +0.000 A 
ATOM      6  C   UNL     1       5.884   7.074  17.253  0.00  0.00    +0.000 A 
ATOM      7  S   UNL     1       3.563   5.553  17.475  0.00  0.00    +0.000 S 
ATOM      8  C   UNL     1       3.619   4.199  18.518  0.00  0.00    +0.000 A 
ATOM      9  C   UNL     1       2.605   3.295  18.833  0.00  0.00    +0.000 A 
ATOM     10  N   UNL     1       1.317   3.391  18.336  0.00  0.00    +0.000 N 
ATOM     11  N   UNL     1       2.891   2.276  19.661  0.00  0.00    +0.000 NA
ATOM     12  C   UNL     1       4.132   2.202  20.168  0.00  0.00    +0.000 A 
ATOM     13  N   UNL     1       5.160   3.028  19.945  0.00  0.00    +0.000 NA
ATOM     14  C   UNL     1       4.875   4.047  19.091  0.00  0.00    +0.000 A 
ATOM     15  H   UNL     1       1.203   3.941  17.494  0.00  0.00    +0.000 HD
ATOM     16  H   UNL     1       0.798   2.527  18.409  0.00  0.00    +0.000 HD
ENDROOT
BRANCH   1  18
ATOM     17  C   UNL     1       8.386   9.293  18.140  0.00  0.00    +0.000 C 
ATOM     18  O   UNL     1       7.988   8.330  17.168  0.00  0.00    +0.000 OA
ENDBRANCH   1  18
TORSDOF 1
ENDMDL
MODEL 3
REMARK VINA RESULT:      -6.6      3.719      5.943
REMARK  Name = 
REMARK  2 active torsions:
REMARK  status: ('A' for Active; 'I' for Inactive)
REMARK    1  A    between atoms: C_1  and  O_2
REMARK    2  A    between atoms: O_2  and  C_3
REMARK                            x       y       z     vdW  Elec       q    Type
REMARK                         _______ _______ _______ _____ _____    ______ ____
ROOT
ATOM      1  C   UNL     1       5.841   5.132  15.414  0.00  0.00    +0.000 A 
ATOM      2  C   UNL     1       5.551   6.392  15.926  0.00  0.00    +0.000 A 
ATOM      3  C   UNL     1       4.688   6.544  17.020  0.00  0.00    +0.000 A 
ATOM      4  C   UNL     1       4.090   5.409  17.625  0.00  0.00    +0.000 A 
ATOM      5  C   UNL     1       4.394   4.158  17.091  0.00  0.00    +0.000 A 
ATOM      6  C   UNL     1       5.266   4.002  15.995  0.00  0.00    +0.000 A 
ATOM      7  S   UNL     1       3.585   2.894  17.919  0.00  0.00    +0.000 S 
ATOM      8  C   UNL     1       2.809   3.978  18.988  0.00  0.00    +0.000 A 
ATOM      9  C   UNL     1       1.905   3.700  20.014  0.00  0.00    +0.000 A 
ATOM     10  N   UNL     1       1.458   2.424  20.308  0.00  0.00    +0.000 N 
ATOM     11  N   UNL     1       1.446   4.721  20.756  0.00  0.00    +0.000 NA
ATOM     12  C   UNL     1       1.856   5.961  20.449  0.00  0.00    +0.000 A 
ATOM     13  N   UNL     1       2.698   6.330  19.477  0.00  0.00    +0.000 NA
ATOM     14  C   UNL     1       3.178   5.294  18.739  0.00  0.00    +0.000 A 
ATOM     15  H   UNL     1       2.034   1.660  19.978  0.00  0.00    +0.000 HD
ATOM     16  H   UNL     1       1.058   2.347  21.234  0.00  0.00    +0.000 HD
ENDROOT
BRANCH   1  18
ATOM     17  C   UNL     1       6.576   4.007  13.456  0.00  0.00    +0.000 C 
ATOM     18  O   UNL     1       6.699   5.114  14.346  0.00  0.00    +0.000 OA
ENDBRANCH   1  18
TORSDOF 1
ENDMDL
MODEL 4
REMARK VINA RESULT:      -6.6      3.444      5.577
REMARK  Name = 
REMARK  2 active torsions:
REMARK  status: ('A' for Active; 'I' for Inactive)
REMARK    1  A    between atoms: C_1  and  O_2
REMARK    2  A    between atoms: O_2  and  C_3
REMARK                            x       y       z     vdW  Elec       q    Type
REMARK                         _______ _______ _______ _____ _____    ______ ____
ROOT
ATOM      1  C   UNL     1       6.576   6.219  16.987  0.00  0.00    +0.000 A 
ATOM      2  C   UNL     1       6.575   4.975  16.366  0.00  0.00    +0.000 A 
ATOM      3  C   UNL     1       5.567   4.039  16.631  0.00  0.00    +0.000 A 
ATOM      4  C   UNL     1       4.526   4.344  17.545  0.00  0.00    +0.000 A 
ATOM      5  C   UNL     1       4.553   5.596  18.157  0.00  0.00    +0.000 A 
ATOM      6  C   UNL     1       5.562   6.542  17.888  0.00  0.00    +0.000 A 
ATOM      7  S   UNL     1       3.242   5.807  19.242  0.00  0.00    +0.000 S 
ATOM      8  C   UNL     1       2.625   4.244  18.931  0.00  0.00    +0.000 A 
ATOM      9  C   UNL     1       1.508   3.617  19.486  0.00  0.00    +0.000 A 
ATOM     10  N   UNL     1       0.710   4.202  20.453  0.00  0.00    +0.000 N 
ATOM     11  N   UNL     1       1.190   2.383  19.060  0.00  0.00    +0.000 NA
ATOM     12  C   UNL     1       1.984   1.805  18.146  0.00  0.00    +0.000 A 
ATOM     13  N   UNL     1       3.081   2.312  17.573  0.00  0.00    +0.000 NA
ATOM     14  C   UNL     1       3.392   3.569  17.990  0.00  0.00    +0.000 A 
ATOM     15  H   UNL     1       0.758   5.210  20.524  0.00  0.00    +0.000 HD
ATOM     16  H   UNL     1      -0.199   3.767  20.533  0.00  0.00    +0.000 HD
ENDROOT
BRANCH   1  18
ATOM     17  C   UNL     1       7.869   8.137  17.527  0.00  0.00    +0.000 C 
ATOM     18  O   UNL     1       7.613   7.047  16.645  0.00  0.00    +0.000 OA
ENDBRANCH   1  18
TORSDOF 1
ENDMDL
MODEL 5
REMARK VINA RESULT:      -6.5      2.233      2.791
REMARK  Name = 
REMARK  2 active torsions:
REMARK  status: ('A' for Active; 'I' for Inactive)
REMARK    1  A    between atoms: C_1  and  O_2
REMARK    2  A    between atoms: O_2  and  C_3
REMARK                            x       y       z     vdW  Elec       q    Type
REMARK                         _______ _______ _______ _____ _____    ______ ____
ROOT
ATOM      1  C   UNL     1       2.469   3.216  18.089  0.00  0.00    +0.000 A 
ATOM      2  C   UNL     1       3.224   2.749  19.159  0.00  0.00    +0.000 A 
ATOM      3  C   UNL     1       4.443   3.352  19.497  0.00  0.00    +0.000 A 
ATOM      4  C   UNL     1       4.932   4.452  18.747  0.00  0.00    +0.000 A 
ATOM      5  C   UNL     1       4.158   4.897  17.677  0.00  0.00    +0.000 A 
ATOM      6  C   UNL     1       2.929   4.297  17.339  0.00  0.00    +0.000 A 
ATOM      7  S   UNL     1       4.888   6.218  16.864  0.00  0.00    +0.000 S 
ATOM      8  C   UNL     1       6.245   6.216  17.903  0.00  0.00    +0.000 A 
ATOM      9  C   UNL     1       7.372   7.038  17.874  0.00  0.00    +0.000 A 
ATOM     10  N   UNL     1       7.575   8.016  16.916  0.00  0.00    +0.000 N 
ATOM     11  N   UNL     1       8.307   6.875  18.824  0.00  0.00    +0.000 NA
ATOM     12  C   UNL     1       8.124   5.905  19.733  0.00  0.00    +0.000 A 
ATOM     13  N   UNL     1       7.095   5.056  19.831  0.00  0.00    +0.000 NA
ATOM     14  C   UNL     1       6.138   5.235  18.881  0.00  0.00    +0.000 A 
ATOM     15  H   UNL     1       6.752   8.340  16.426  0.00  0.00    +0.000 HD
ATOM     16  H   UNL     1       8.261   8.705  17.192  0.00  0.00    +0.000 HD
ENDROOT
BRANCH   1  18
ATOM     17  C   UNL     1       0.513   2.231  19.009  0.00  0.00    +0.000 C 
ATOM     18  O   UNL     1       1.296   2.545  17.860  0.00  0.00    +0.000 OA
ENDBRANCH   1  18
TORSDOF 1
ENDMDL
MODEL 6
REMARK VINA RESULT:      -6.5      3.448      5.631
REMARK  Name = 
REMARK  2 active torsions:
REMARK  status: ('A' for Active; 'I' for Inactive)
REMARK    1  A    between atoms: C_1  and  O_2
REMARK    2  A    between atoms: O_2  and  C_3
REMARK                            x       y       z     vdW  Elec       q    Type
REMARK                         _______ _______ _______ _____ _____    ______ ____
ROOT
ATOM      1  C   UNL     1       6.788   5.146  15.327  0.00  0.00    +0.000 A 
ATOM      2  C   UNL     1       5.903   4.261  14.721  0.00  0.00    +0.000 A 
ATOM      3  C   UNL     1       4.736   3.847  15.377  0.00  0.00    +0.000 A 
ATOM      4  C   UNL     1       4.438   4.320  16.680  0.00  0.00    +0.000 A 
ATOM      5  C   UNL     1       5.344   5.203  17.267  0.00  0.00    +0.000 A 
ATOM      6  C   UNL     1       6.514   5.627  16.607  0.00  0.00    +0.000 A 
ATOM      7  S   UNL     1       4.852   5.672  18.841  0.00  0.00    +0.000 S 
ATOM      8  C   UNL     1       3.442   4.707  18.779  0.00  0.00    +0.000 A 
ATOM      9  C   UNL     1       2.463   4.523  19.756  0.00  0.00    +0.000 A 
ATOM     10  N   UNL     1       2.518   5.112  21.007  0.00  0.00    +0.000 N 
ATOM     11  N   UNL     1       1.414   3.736  19.469  0.00  0.00    +0.000 NA
ATOM     12  C   UNL     1       1.379   3.141  18.267  0.00  0.00    +0.000 A 
ATOM     13  N   UNL     1       2.274   3.237  17.277  0.00  0.00    +0.000 NA
ATOM     14  C   UNL     1       3.327   4.049  17.561  0.00  0.00    +0.000 A 
ATOM     15  H   UNL     1       3.111   5.927  21.093  0.00  0.00    +0.000 HD
ATOM     16  H   UNL     1       1.622   5.129  21.477  0.00  0.00    +0.000 HD
ENDROOT
BRANCH   1  18
ATOM     17  C   UNL     1       7.809   5.222  13.185  0.00  0.00    +0.000 C 
ATOM     18  O   UNL     1       7.890   5.477  14.584  0.00  0.00    +0.000 OA
ENDBRANCH   1  18
TORSDOF 1
ENDMDL
MODEL 7
REMARK VINA RESULT:      -6.4      3.622      6.048
REMARK  Name = 
REMARK  2 active torsions:
REMARK  status: ('A' for Active; 'I' for Inactive)
REMARK    1  A    between atoms: C_1  and  O_2
REMARK    2  A    between atoms: O_2  and  C_3
REMARK                            x       y       z     vdW  Elec       q    Type
REMARK                         _______ _______ _______ _____ _____    ______ ____
ROOT
ATOM      1  C   UNL     1       6.611   5.233  16.101  0.00  0.00    +0.000 A 
ATOM      2  C   UNL     1       6.580   6.164  17.133  0.00  0.00    +0.000 A 
ATOM      3  C   UNL     1       5.580   6.120  18.113  0.00  0.00    +0.000 A 
ATOM      4  C   UNL     1       4.573   5.121  18.067  0.00  0.00    +0.000 A 
ATOM      5  C   UNL     1       4.625   4.202  17.020  0.00  0.00    +0.000 A 
ATOM      6  C   UNL     1       5.633   4.241  16.037  0.00  0.00    +0.000 A 
ATOM      7  S   UNL     1       3.338   3.073  17.094  0.00  0.00    +0.000 S 
ATOM      8  C   UNL     1       2.683   3.787  18.503  0.00  0.00    +0.000 A 
ATOM      9  C   UNL     1       1.538   3.427  19.215  0.00  0.00    +0.000 A 
ATOM     10  N   UNL     1       0.701   2.392  18.837  0.00  0.00    +0.000 N 
ATOM     11  N   UNL     1       1.233   4.118  20.326  0.00  0.00    +0.000 NA
ATOM     12  C   UNL     1       2.028   5.142  20.673  0.00  0.00    +0.000 A 
ATOM     13  N   UNL     1       3.128   5.575  20.047  0.00  0.00    +0.000 NA
ATOM     14  C   UNL     1       3.448   4.862  18.934  0.00  0.00    +0.000 A 
ATOM     15  H   UNL     1       1.098   1.698  18.218  0.00  0.00    +0.000 HD
ATOM     16  H   UNL     1       0.106   2.069  19.588  0.00  0.00    +0.000 HD
ENDROOT
BRANCH   1  18
ATOM     17  C   UNL     1       7.380   4.956  13.872  0.00  0.00    +0.000 C 
ATOM     18  O   UNL     1       7.639   5.380  15.207  0.00  0.00    +0.000 OA
ENDBRANCH   1  18
TORSDOF 1
ENDMDL
MODEL 8
REMARK VINA RESULT:      -6.4      3.729      5.630
REMARK  Name = 
REMARK  2 active torsions:
REMARK  status: ('A' for Active; 'I' for Inactive)
REMARK    1  A    between atoms: C_1  and  O_2
REMARK    2  A    between atoms: O_2  and  C_3
REMARK                            x       y       z     vdW  Elec       q    Type
REMARK                         _______ _______ _______ _____ _____    ______ ____
ROOT
ATOM      1  C   UNL     1       5.833   5.198  15.270  0.00  0.00    +0.000 A 
ATOM      2  C   UNL     1       5.627   3.913  15.759  0.00  0.00    +0.000 A 
ATOM      3  C   UNL     1       4.815   3.690  16.879  0.00  0.00    +0.000 A 
ATOM      4  C   UNL     1       4.190   4.778  17.541  0.00  0.00    +0.000 A 
ATOM      5  C   UNL     1       4.416   6.056  17.033  0.00  0.00    +0.000 A 
ATOM      6  C   UNL     1       5.227   6.283  15.903  0.00  0.00    +0.000 A 
ATOM      7  S   UNL     1       3.608   7.261  17.946  0.00  0.00    +0.000 S 
ATOM      8  C   UNL     1       2.955   6.115  19.035  0.00  0.00    +0.000 A 
ATOM      9  C   UNL     1       2.146   6.331  20.151  0.00  0.00    +0.000 A 
ATOM     10  N   UNL     1       1.759   7.588  20.579  0.00  0.00    +0.000 N 
ATOM     11  N   UNL     1       1.720   5.263  20.847  0.00  0.00    +0.000 NA
ATOM     12  C   UNL     1       2.123   4.047  20.449  0.00  0.00    +0.000 A 
ATOM     13  N   UNL     1       2.911   3.741  19.412  0.00  0.00    +0.000 NA
ATOM     14  C   UNL     1       3.326   4.820  18.697  0.00  0.00    +0.000 A 
ATOM     15  H   UNL     1       1.807   8.329  19.892  0.00  0.00    +0.000 HD
ATOM     16  H   UNL     1       0.958   7.568  21.196  0.00  0.00    +0.000 HD
ENDROOT
BRANCH   1  18
ATOM     17  C   UNL     1       6.705   4.132  13.336  0.00  0.00    +0.000 C 
ATOM     18  O   UNL     1       6.645   5.286  14.169  0.00  0.00    +0.000 OA
ENDBRANCH   1  18
TORSDOF 1
ENDMDL
MODEL 9
REMARK VINA RESULT:      -6.3      3.985      4.604
REMARK  Name = 
REMARK  2 active torsions:
REMARK  status: ('A' for Active; 'I' for Inactive)
REMARK    1  A    between atoms: C_1  and  O_2
REMARK    2  A    between atoms: O_2  and  C_3
REMARK                            x       y       z     vdW  Elec       q    Type
REMARK                         _______ _______ _______ _____ _____    ______ ____
ROOT
ATOM      1  C   UNL     1       1.199   8.906  19.669  0.00  0.00    +0.000 A 
ATOM      2  C   UNL     1       1.682   9.318  18.432  0.00  0.00    +0.000 A 
ATOM      3  C   UNL     1       2.584   8.525  17.711  0.00  0.00    +0.000 A 
ATOM      4  C   UNL     1       3.026   7.283  18.235  0.00  0.00    +0.000 A 
ATOM      5  C   UNL     1       2.530   6.895  19.478  0.00  0.00    +0.000 A 
ATOM      6  C   UNL     1       1.617   7.687  20.203  0.00  0.00    +0.000 A 
ATOM      7  S   UNL     1       3.166   5.384  19.980  0.00  0.00    +0.000 S 
ATOM      8  C   UNL     1       4.119   5.224  18.569  0.00  0.00    +0.000 A 
ATOM      9  C   UNL     1       4.998   4.198  18.218  0.00  0.00    +0.000 A 
ATOM     10  N   UNL     1       5.262   3.111  19.033  0.00  0.00    +0.000 N 
ATOM     11  N   UNL     1       5.619   4.268  17.030  0.00  0.00    +0.000 NA
ATOM     12  C   UNL     1       5.386   5.338  16.255  0.00  0.00    +0.000 A 
ATOM     13  N   UNL     1       4.583   6.377  16.511  0.00  0.00    +0.000 NA
ATOM     14  C   UNL     1       3.939   6.297  17.706  0.00  0.00    +0.000 A 
ATOM     15  H   UNL     1       4.573   2.908  19.745  0.00  0.00    +0.000 HD
ATOM     16  H   UNL     1       5.669   2.331  18.534  0.00  0.00    +0.000 HD
ENDROOT
BRANCH   1  18
ATOM     17  C   UNL     1      -0.645  10.383  19.427  0.00  0.00    +0.000 C 
ATOM     18  O   UNL     1       0.321   9.767  20.274  0.00  0.00    +0.000 OA
ENDBRANCH   1  18
TORSDOF 1
ENDMDL
