MODEL 1
REMARK VINA RESULT:      -8.1      0.000      0.000
REMARK  Name = 
REMARK  6 active torsions:
REMARK  status: ('A' for Active; 'I' for Inactive)
REMARK    1  A    between atoms: C_8  and  C_9
REMARK    2  A    between atoms: C_9  and  C_10
REMARK    3  A    between atoms: C_10  and  N_11
REMARK    4  A    between atoms: C_15  and  C_17
REMARK    5  A    between atoms: C_17  and  C_18
REMARK    6  A    between atoms: C_21  and  N_22
REMARK                            x       y       z     vdW  Elec       q    Type
REMARK                         _______ _______ _______ _____ _____    ______ ____
ROOT
ATOM      1  N   UNL     1      -3.128  11.478  17.296  0.00  0.00    +0.000 NA
ATOM      2  C   UNL     1      -2.323  12.174  18.326  0.00  0.00    +0.000 C 
ATOM      3  C   UNL     1      -1.714  11.203  19.341  0.00  0.00    +0.000 C 
ATOM      4  N   UNL     1      -0.738  10.380  18.646  0.00  0.00    +0.000 N 
ATOM      5  C   UNL     1       0.600  10.659  18.869  0.00  0.00    +0.000 C 
ATOM      6  O   UNL     1       0.956  11.517  19.686  0.00  0.00    +0.000 OA
ATOM      7  C   UNL     1      -1.328   9.589  17.555  0.00  0.00    +0.000 C 
ATOM      8  C   UNL     1      -2.314  10.411  16.660  0.00  0.00    +0.000 C 
ENDROOT
BRANCH   1   9
ATOM      9  C   UNL     1      -4.455  11.033  17.776  0.00  0.00    +0.000 C 
BRANCH   9  10
ATOM     10  C   UNL     1      -5.302  12.241  18.248  0.00  0.00    +0.000 C 
BRANCH  10  18
ATOM     11  O   UNL     1      -4.006  13.414  23.531  0.00  0.00    +0.000 OA
ATOM     12  C   UNL     1      -5.150  13.069  23.307  0.00  0.00    +0.000 C 
ATOM     13  O   UNL     1      -6.157  12.942  24.218  0.00  0.00    +0.000 OA
ATOM     14  C   UNL     1      -7.392  12.507  23.603  0.00  0.00    +0.000 C 
ATOM     15  C   UNL     1      -7.041  12.405  22.176  0.00  0.00    +0.000 A 
ATOM     16  C   UNL     1      -7.819  12.052  21.094  0.00  0.00    +0.000 A 
ATOM     17  C   UNL     1      -7.204  12.010  19.841  0.00  0.00    +0.000 A 
ATOM     18  C   UNL     1      -5.827  12.319  19.661  0.00  0.00    +0.000 A 
ATOM     19  C   UNL     1      -5.067  12.693  20.771  0.00  0.00    +0.000 A 
ATOM     20  C   UNL     1      -5.708  12.719  22.006  0.00  0.00    +0.000 A 
ENDBRANCH  10  18
ENDBRANCH   9  10
ENDBRANCH   1   9
BRANCH   5  21
ATOM     21  C   UNL     1       1.674   9.918  18.089  0.00  0.00    +0.000 C 
BRANCH  21  22
ATOM     22  C   UNL     1       1.947   8.536  18.638  0.00  0.00    +0.000 A 
ATOM     23  C   UNL     1       2.434   7.513  17.812  0.00  0.00    +0.000 A 
ATOM     24  C   UNL     1       2.636   6.221  18.308  0.00  0.00    +0.000 A 
ATOM     25  C   UNL     1       2.351   5.940  19.645  0.00  0.00    +0.000 A 
ATOM     26  C   UNL     1       1.916   6.970  20.493  0.00  0.00    +0.000 A 
ATOM     27  C   UNL     1       1.724   8.258  19.991  0.00  0.00    +0.000 A 
BRANCH  25  28
ATOM     28  N   UNL     1       2.470   4.627  20.160  0.00  0.00    +0.000 N 
ATOM     29  C   UNL     1       3.449   3.690  19.946  0.00  0.00    +0.000 A 
ATOM     30  N   UNL     1       3.128   2.575  20.562  0.00  0.00    +0.000 NA
ATOM     31  N   UNL     1       1.933   2.825  21.183  0.00  0.00    +0.000 NA
ATOM     32  N   UNL     1       1.532   4.068  20.961  0.00  0.00    +0.000 NA
ENDBRANCH  25  28
ENDBRANCH  21  22
ENDBRANCH   5  21
TORSDOF 6
ENDMDL
MODEL 2
REMARK VINA RESULT:      -8.0      4.155     10.906
REMARK  Name = 
REMARK  6 active torsions:
REMARK  status: ('A' for Active; 'I' for Inactive)
REMARK    1  A    between atoms: C_8  and  C_9
REMARK    2  A    between atoms: C_9  and  C_10
REMARK    3  A    between atoms: C_10  and  N_11
REMARK    4  A    between atoms: C_15  and  C_17
REMARK    5  A    between atoms: C_17  and  C_18
REMARK    6  A    between atoms: C_21  and  N_22
REMARK                            x       y       z     vdW  Elec       q    Type
REMARK                         _______ _______ _______ _____ _____    ______ ____
ROOT
ATOM      1  N   UNL     1       2.320   7.269  19.980  0.00  0.00    +0.000 NA
ATOM      2  C   UNL     1       2.414   8.208  18.839  0.00  0.00    +0.000 C 
ATOM      3  C   UNL     1       1.093   8.936  18.574  0.00  0.00    +0.000 C 
ATOM      4  N   UNL     1       0.823   9.804  19.709  0.00  0.00    +0.000 N 
ATOM      5  C   UNL     1       1.025  11.163  19.529  0.00  0.00    +0.000 C 
ATOM      6  O   UNL     1       1.340  11.630  18.428  0.00  0.00    +0.000 OA
ATOM      7  C   UNL     1       0.694   9.069  20.976  0.00  0.00    +0.000 C 
ATOM      8  C   UNL     1       1.802   7.982  21.176  0.00  0.00    +0.000 C 
ENDROOT
BRANCH   1   9
ATOM      9  C   UNL     1       1.607   6.011  19.660  0.00  0.00    +0.000 C 
BRANCH   9  10
ATOM     10  C   UNL     1       2.570   4.800  19.736  0.00  0.00    +0.000 C 
BRANCH  10  18
ATOM     11  O   UNL     1       8.099   5.056  19.163  0.00  0.00    +0.000 OA
ATOM     12  C   UNL     1       7.453   4.781  18.170  0.00  0.00    +0.000 C 
ATOM     13  O   UNL     1       7.944   4.524  16.923  0.00  0.00    +0.000 OA
ATOM     14  C   UNL     1       6.889   4.236  15.976  0.00  0.00    +0.000 C 
ATOM     15  C   UNL     1       5.668   4.315  16.796  0.00  0.00    +0.000 A 
ATOM     16  C   UNL     1       4.349   4.116  16.445  0.00  0.00    +0.000 A 
ATOM     17  C   UNL     1       3.383   4.290  17.437  0.00  0.00    +0.000 A 
ATOM     18  C   UNL     1       3.720   4.657  18.769  0.00  0.00    +0.000 A 
ATOM     19  C   UNL     1       5.064   4.833  19.102  0.00  0.00    +0.000 A 
ATOM     20  C   UNL     1       6.003   4.658  18.090  0.00  0.00    +0.000 A 
ENDBRANCH  10  18
ENDBRANCH   9  10
ENDBRANCH   1   9
BRANCH   5  21
ATOM     21  C   UNL     1       0.875  12.117  20.702  0.00  0.00    +0.000 C 
BRANCH  21  22
ATOM     22  C   UNL     1      -0.540  12.175  21.233  0.00  0.00    +0.000 A 
ATOM     23  C   UNL     1      -1.605  12.564  20.411  0.00  0.00    +0.000 A 
ATOM     24  C   UNL     1      -2.905  12.668  20.917  0.00  0.00    +0.000 A 
ATOM     25  C   UNL     1      -3.151  12.382  22.261  0.00  0.00    +0.000 A 
ATOM     26  C   UNL     1      -2.100  11.939  23.079  0.00  0.00    +0.000 A 
ATOM     27  C   UNL     1      -0.808  11.831  22.564  0.00  0.00    +0.000 A 
BRANCH  25  28
ATOM     28  N   UNL     1      -4.439  12.552  22.823  0.00  0.00    +0.000 N 
ATOM     29  C   UNL     1      -5.541  13.184  22.308  0.00  0.00    +0.000 A 
ATOM     30  N   UNL     1      -6.507  13.171  23.197  0.00  0.00    +0.000 NA
ATOM     31  N   UNL     1      -6.004  12.507  24.283  0.00  0.00    +0.000 NA
ATOM     32  N   UNL     1      -4.757  12.112  24.064  0.00  0.00    +0.000 NA
ENDBRANCH  25  28
ENDBRANCH  21  22
ENDBRANCH   5  21
TORSDOF 6
ENDMDL
MODEL 3
REMARK VINA RESULT:      -8.0      3.973     10.913
REMARK  Name = 
REMARK  6 active torsions:
REMARK  status: ('A' for Active; 'I' for Inactive)
REMARK    1  A    between atoms: C_8  and  C_9
REMARK    2  A    between atoms: C_9  and  C_10
REMARK    3  A    between atoms: C_10  and  N_11
REMARK    4  A    between atoms: C_15  and  C_17
REMARK    5  A    between atoms: C_17  and  C_18
REMARK    6  A    between atoms: C_21  and  N_22
REMARK                            x       y       z     vdW  Elec       q    Type
REMARK                         _______ _______ _______ _____ _____    ______ ____
ROOT
ATOM      1  N   UNL     1       2.210   7.376  20.176  0.00  0.00    +0.000 NA
ATOM      2  C   UNL     1       2.230   8.311  19.027  0.00  0.00    +0.000 C 
ATOM      3  C   UNL     1       0.882   9.006  18.819  0.00  0.00    +0.000 C 
ATOM      4  N   UNL     1       0.644   9.874  19.961  0.00  0.00    +0.000 N 
ATOM      5  C   UNL     1       0.805  11.236  19.765  0.00  0.00    +0.000 C 
ATOM      6  O   UNL     1       1.059  11.705  18.649  0.00  0.00    +0.000 OA
ATOM      7  C   UNL     1       0.590   9.144  21.236  0.00  0.00    +0.000 C 
ATOM      8  C   UNL     1       1.732   8.084  21.390  0.00  0.00    +0.000 C 
ENDROOT
BRANCH   1   9
ATOM      9  C   UNL     1       1.514   6.101  19.895  0.00  0.00    +0.000 C 
BRANCH   9  10
ATOM     10  C   UNL     1       2.498   4.907  19.982  0.00  0.00    +0.000 C 
BRANCH  10  18
ATOM     11  O   UNL     1       7.981   5.358  19.150  0.00  0.00    +0.000 OA
ATOM     12  C   UNL     1       7.309   4.982  18.209  0.00  0.00    +0.000 C 
ATOM     13  O   UNL     1       7.760   4.654  16.964  0.00  0.00    +0.000 OA
ATOM     14  C   UNL     1       6.683   4.250  16.087  0.00  0.00    +0.000 C 
ATOM     15  C   UNL     1       5.494   4.338  16.952  0.00  0.00    +0.000 A 
ATOM     16  C   UNL     1       4.172   4.057  16.675  0.00  0.00    +0.000 A 
ATOM     17  C   UNL     1       3.239   4.263  17.692  0.00  0.00    +0.000 A 
ATOM     18  C   UNL     1       3.613   4.742  18.978  0.00  0.00    +0.000 A 
ATOM     19  C   UNL     1       4.960   5.000  19.239  0.00  0.00    +0.000 A 
ATOM     20  C   UNL     1       5.865   4.790  18.202  0.00  0.00    +0.000 A 
ENDBRANCH  10  18
ENDBRANCH   9  10
ENDBRANCH   1   9
BRANCH   5  21
ATOM     21  C   UNL     1       0.686  12.194  20.939  0.00  0.00    +0.000 C 
BRANCH  21  22
ATOM     22  C   UNL     1      -0.742  12.385  21.398  0.00  0.00    +0.000 A 
ATOM     23  C   UNL     1      -1.109  12.161  22.731  0.00  0.00    +0.000 A 
ATOM     24  C   UNL     1      -2.439  12.287  23.143  0.00  0.00    +0.000 A 
ATOM     25  C   UNL     1      -3.421  12.641  22.216  0.00  0.00    +0.000 A 
ATOM     26  C   UNL     1      -3.055  12.920  20.890  0.00  0.00    +0.000 A 
ATOM     27  C   UNL     1      -1.724  12.800  20.490  0.00  0.00    +0.000 A 
BRANCH  25  28
ATOM     28  N   UNL     1      -4.788  12.700  22.582  0.00  0.00    +0.000 N 
ATOM     29  C   UNL     1      -5.372  13.255  23.692  0.00  0.00    +0.000 A 
ATOM     30  N   UNL     1      -6.664  13.020  23.668  0.00  0.00    +0.000 NA
ATOM     31  N   UNL     1      -6.893  12.318  22.515  0.00  0.00    +0.000 NA
ATOM     32  N   UNL     1      -5.768  12.131  21.840  0.00  0.00    +0.000 NA
ENDBRANCH  25  28
ENDBRANCH  21  22
ENDBRANCH   5  21
TORSDOF 6
ENDMDL
MODEL 4
REMARK VINA RESULT:      -7.9      5.865      9.184
REMARK  Name = 
REMARK  6 active torsions:
REMARK  status: ('A' for Active; 'I' for Inactive)
REMARK    1  A    between atoms: C_8  and  C_9
REMARK    2  A    between atoms: C_9  and  C_10
REMARK    3  A    between atoms: C_10  and  N_11
REMARK    4  A    between atoms: C_15  and  C_17
REMARK    5  A    between atoms: C_17  and  C_18
REMARK    6  A    between atoms: C_21  and  N_22
REMARK                            x       y       z     vdW  Elec       q    Type
REMARK                         _______ _______ _______ _____ _____    ______ ____
ROOT
ATOM      1  N   UNL     1       2.747   2.820  19.351  0.00  0.00    +0.000 NA
ATOM      2  C   UNL     1       2.880   2.764  17.878  0.00  0.00    +0.000 C 
ATOM      3  C   UNL     1       3.321   4.104  17.282  0.00  0.00    +0.000 C 
ATOM      4  N   UNL     1       4.676   4.373  17.737  0.00  0.00    +0.000 N 
ATOM      5  C   UNL     1       5.698   4.203  16.817  0.00  0.00    +0.000 C 
ATOM      6  O   UNL     1       5.466   3.915  15.636  0.00  0.00    +0.000 OA
ATOM      7  C   UNL     1       4.782   4.466  19.200  0.00  0.00    +0.000 C 
ATOM      8  C   UNL     1       4.006   3.331  19.950  0.00  0.00    +0.000 C 
ENDROOT
BRANCH   1   9
ATOM      9  C   UNL     1       1.523   3.511  19.814  0.00  0.00    +0.000 C 
BRANCH   9  10
ATOM     10  C   UNL     1       1.875   4.644  20.811  0.00  0.00    +0.000 C 
BRANCH  10  18
ATOM     11  O   UNL     1       2.888   8.432  16.863  0.00  0.00    +0.000 OA
ATOM     12  C   UNL     1       2.323   8.819  17.867  0.00  0.00    +0.000 C 
ATOM     13  O   UNL     1       1.905  10.091  18.129  0.00  0.00    +0.000 OA
ATOM     14  C   UNL     1       1.270  10.196  19.425  0.00  0.00    +0.000 C 
ATOM     15  C   UNL     1       1.315   8.815  19.936  0.00  0.00    +0.000 A 
ATOM     16  C   UNL     1       0.844   8.292  21.121  0.00  0.00    +0.000 A 
ATOM     17  C   UNL     1       1.055   6.932  21.357  0.00  0.00    +0.000 A 
ATOM     18  C   UNL     1       1.727   6.096  20.424  0.00  0.00    +0.000 A 
ATOM     19  C   UNL     1       2.177   6.647  19.223  0.00  0.00    +0.000 A 
ATOM     20  C   UNL     1       1.957   8.006  19.020  0.00  0.00    +0.000 A 
ENDBRANCH  10  18
ENDBRANCH   9  10
ENDBRANCH   1   9
BRANCH   5  21
ATOM     21  C   UNL     1       7.147   4.353  17.251  0.00  0.00    +0.000 C 
BRANCH  21  22
ATOM     22  C   UNL     1       7.502   5.774  17.625  0.00  0.00    +0.000 A 
ATOM     23  C   UNL     1       7.255   6.836  16.746  0.00  0.00    +0.000 A 
ATOM     24  C   UNL     1       7.632   8.143  17.070  0.00  0.00    +0.000 A 
ATOM     25  C   UNL     1       8.265   8.400  18.288  0.00  0.00    +0.000 A 
ATOM     26  C   UNL     1       8.467   7.351  19.199  0.00  0.00    +0.000 A 
ATOM     27  C   UNL     1       8.081   6.052  18.869  0.00  0.00    +0.000 A 
BRANCH  25  28
ATOM     28  N   UNL     1       8.729   9.697  18.614  0.00  0.00    +0.000 N 
ATOM     29  C   UNL     1       9.303  10.154  19.773  0.00  0.00    +0.000 A 
ATOM     30  N   UNL     1       9.517  11.446  19.673  0.00  0.00    +0.000 NA
ATOM     31  N   UNL     1       9.082  11.799  18.424  0.00  0.00    +0.000 NA
ATOM     32  N   UNL     1       8.618  10.747  17.766  0.00  0.00    +0.000 NA
ENDBRANCH  25  28
ENDBRANCH  21  22
ENDBRANCH   5  21
TORSDOF 6
ENDMDL
MODEL 5
REMARK VINA RESULT:      -7.9      3.793     10.207
REMARK  Name = 
REMARK  6 active torsions:
REMARK  status: ('A' for Active; 'I' for Inactive)
REMARK    1  A    between atoms: C_8  and  C_9
REMARK    2  A    between atoms: C_9  and  C_10
REMARK    3  A    between atoms: C_10  and  N_11
REMARK    4  A    between atoms: C_15  and  C_17
REMARK    5  A    between atoms: C_17  and  C_18
REMARK    6  A    between atoms: C_21  and  N_22
REMARK                            x       y       z     vdW  Elec       q    Type
REMARK                         _______ _______ _______ _____ _____    ______ ____
ROOT
ATOM      1  N   UNL     1       0.207   9.830  18.776  0.00  0.00    +0.000 NA
ATOM      2  C   UNL     1       0.822  10.301  20.038  0.00  0.00    +0.000 C 
ATOM      3  C   UNL     1       1.489  11.671  19.885  0.00  0.00    +0.000 C 
ATOM      4  N   UNL     1       0.446  12.651  19.627  0.00  0.00    +0.000 N 
ATOM      5  C   UNL     1       0.102  13.498  20.669  0.00  0.00    +0.000 C 
ATOM      6  O   UNL     1       0.708  13.480  21.746  0.00  0.00    +0.000 OA
ATOM      7  C   UNL     1      -0.313  12.372  18.399  0.00  0.00    +0.000 C 
ATOM      8  C   UNL     1      -0.717  10.867  18.251  0.00  0.00    +0.000 C 
ENDROOT
BRANCH   1   9
ATOM      9  C   UNL     1       1.186   9.324  17.789  0.00  0.00    +0.000 C 
BRANCH   9  10
ATOM     10  C   UNL     1       2.379   8.638  18.500  0.00  0.00    +0.000 C 
BRANCH  10  18
ATOM     11  O   UNL     1       1.064   3.231  18.466  0.00  0.00    +0.000 OA
ATOM     12  C   UNL     1       2.132   3.542  17.976  0.00  0.00    +0.000 C 
ATOM     13  O   UNL     1       3.047   2.702  17.412  0.00  0.00    +0.000 OA
ATOM     14  C   UNL     1       4.210   3.413  16.930  0.00  0.00    +0.000 C 
ATOM     15  C   UNL     1       3.897   4.819  17.237  0.00  0.00    +0.000 A 
ATOM     16  C   UNL     1       4.627   5.964  16.994  0.00  0.00    +0.000 A 
ATOM     17  C   UNL     1       4.090   7.177  17.428  0.00  0.00    +0.000 A 
ATOM     18  C   UNL     1       2.837   7.257  18.097  0.00  0.00    +0.000 A 
ATOM     19  C   UNL     1       2.110   6.085  18.313  0.00  0.00    +0.000 A 
ATOM     20  C   UNL     1       2.675   4.891  17.874  0.00  0.00    +0.000 A 
ENDBRANCH  10  18
ENDBRANCH   9  10
ENDBRANCH   1   9
BRANCH   5  21
ATOM     21  C   UNL     1      -1.057  14.469  20.509  0.00  0.00    +0.000 C 
BRANCH  21  22
ATOM     22  C   UNL     1      -2.350  13.938  21.086  0.00  0.00    +0.000 A 
ATOM     23  C   UNL     1      -3.160  13.059  20.354  0.00  0.00    +0.000 A 
ATOM     24  C   UNL     1      -4.382  12.610  20.867  0.00  0.00    +0.000 A 
ATOM     25  C   UNL     1      -4.806  13.041  22.125  0.00  0.00    +0.000 A 
ATOM     26  C   UNL     1      -3.977  13.878  22.887  0.00  0.00    +0.000 A 
ATOM     27  C   UNL     1      -2.756  14.315  22.371  0.00  0.00    +0.000 A 
BRANCH  25  28
ATOM     28  N   UNL     1      -6.071  12.669  22.639  0.00  0.00    +0.000 N 
ATOM     29  C   UNL     1      -6.711  13.090  23.777  0.00  0.00    +0.000 A 
ATOM     30  N   UNL     1      -7.840  12.433  23.911  0.00  0.00    +0.000 NA
ATOM     31  N   UNL     1      -7.913  11.595  22.831  0.00  0.00    +0.000 NA
ATOM     32  N   UNL     1      -6.857  11.740  22.044  0.00  0.00    +0.000 NA
ENDBRANCH  25  28
ENDBRANCH  21  22
ENDBRANCH   5  21
TORSDOF 6
ENDMDL
MODEL 6
REMARK VINA RESULT:      -7.9      3.247     10.795
REMARK  Name = 
REMARK  6 active torsions:
REMARK  status: ('A' for Active; 'I' for Inactive)
REMARK    1  A    between atoms: C_8  and  C_9
REMARK    2  A    between atoms: C_9  and  C_10
REMARK    3  A    between atoms: C_10  and  N_11
REMARK    4  A    between atoms: C_15  and  C_17
REMARK    5  A    between atoms: C_17  and  C_18
REMARK    6  A    between atoms: C_21  and  N_22
REMARK                            x       y       z     vdW  Elec       q    Type
REMARK                         _______ _______ _______ _____ _____    ______ ____
ROOT
ATOM      1  N   UNL     1       1.293   3.908  19.031  0.00  0.00    +0.000 NA
ATOM      2  C   UNL     1       1.016   4.685  20.260  0.00  0.00    +0.000 C 
ATOM      3  C   UNL     1       2.158   5.641  20.614  0.00  0.00    +0.000 C 
ATOM      4  N   UNL     1       2.231   6.658  19.577  0.00  0.00    +0.000 N 
ATOM      5  C   UNL     1       1.752   7.919  19.891  0.00  0.00    +0.000 C 
ATOM      6  O   UNL     1       1.356   8.196  21.030  0.00  0.00    +0.000 OA
ATOM      7  C   UNL     1       2.499   6.099  18.243  0.00  0.00    +0.000 C 
ATOM      8  C   UNL     1       1.639   4.831  17.921  0.00  0.00    +0.000 C 
ENDROOT
BRANCH   1   9
ATOM      9  C   UNL     1       2.255   2.800  19.230  0.00  0.00    +0.000 C 
BRANCH   9  10
ATOM     10  C   UNL     1       3.164   2.632  17.988  0.00  0.00    +0.000 C 
BRANCH  10  18
ATOM     11  O   UNL     1       7.388   5.426  20.294  0.00  0.00    +0.000 OA
ATOM     12  C   UNL     1       7.225   5.561  19.097  0.00  0.00    +0.000 C 
ATOM     13  O   UNL     1       7.975   6.327  18.254  0.00  0.00    +0.000 OA
ATOM     14  C   UNL     1       7.497   6.258  16.890  0.00  0.00    +0.000 C 
ATOM     15  C   UNL     1       6.362   5.322  16.978  0.00  0.00    +0.000 A 
ATOM     16  C   UNL     1       5.523   4.850  15.991  0.00  0.00    +0.000 A 
ATOM     17  C   UNL     1       4.498   3.983  16.374  0.00  0.00    +0.000 A 
ATOM     18  C   UNL     1       4.308   3.582  17.725  0.00  0.00    +0.000 A 
ATOM     19  C   UNL     1       5.185   4.059  18.701  0.00  0.00    +0.000 A 
ATOM     20  C   UNL     1       6.192   4.927  18.289  0.00  0.00    +0.000 A 
ENDBRANCH  10  18
ENDBRANCH   9  10
ENDBRANCH   1   9
BRANCH   5  21
ATOM     21  C   UNL     1       1.689   8.999  18.823  0.00  0.00    +0.000 C 
BRANCH  21  22
ATOM     22  C   UNL     1       0.417   9.813  18.887  0.00  0.00    +0.000 A 
ATOM     23  C   UNL     1       0.194  10.724  19.929  0.00  0.00    +0.000 A 
ATOM     24  C   UNL     1      -1.006  11.438  20.017  0.00  0.00    +0.000 A 
ATOM     25  C   UNL     1      -1.999  11.245  19.055  0.00  0.00    +0.000 A 
ATOM     26  C   UNL     1      -1.763  10.376  17.979  0.00  0.00    +0.000 A 
ATOM     27  C   UNL     1      -0.561   9.674  17.895  0.00  0.00    +0.000 A 
BRANCH  25  28
ATOM     28  N   UNL     1      -3.254  11.893  19.158  0.00  0.00    +0.000 N 
ATOM     29  C   UNL     1      -3.737  12.712  20.146  0.00  0.00    +0.000 A 
ATOM     30  N   UNL     1      -4.980  13.036  19.875  0.00  0.00    +0.000 NA
ATOM     31  N   UNL     1      -5.275  12.419  18.689  0.00  0.00    +0.000 NA
ATOM     32  N   UNL     1      -4.233  11.736  18.236  0.00  0.00    +0.000 NA
ENDBRANCH  25  28
ENDBRANCH  21  22
ENDBRANCH   5  21
TORSDOF 6
ENDMDL
MODEL 7
REMARK VINA RESULT:      -7.8      3.683     10.947
REMARK  Name = 
REMARK  6 active torsions:
REMARK  status: ('A' for Active; 'I' for Inactive)
REMARK    1  A    between atoms: C_8  and  C_9
REMARK    2  A    between atoms: C_9  and  C_10
REMARK    3  A    between atoms: C_10  and  N_11
REMARK    4  A    between atoms: C_15  and  C_17
REMARK    5  A    between atoms: C_17  and  C_18
REMARK    6  A    between atoms: C_21  and  N_22
REMARK                            x       y       z     vdW  Elec       q    Type
REMARK                         _______ _______ _______ _____ _____    ______ ____
ROOT
ATOM      1  N   UNL     1       1.253   4.032  19.252  0.00  0.00    +0.000 NA
ATOM      2  C   UNL     1       1.034   4.893  20.436  0.00  0.00    +0.000 C 
ATOM      3  C   UNL     1       2.190   5.870  20.667  0.00  0.00    +0.000 C 
ATOM      4  N   UNL     1       2.210   6.812  19.560  0.00  0.00    +0.000 N 
ATOM      5  C   UNL     1       1.744   8.093  19.809  0.00  0.00    +0.000 C 
ATOM      6  O   UNL     1       1.402   8.449  20.943  0.00  0.00    +0.000 OA
ATOM      7  C   UNL     1       2.414   6.162  18.257  0.00  0.00    +0.000 C 
ATOM      8  C   UNL     1       1.543   4.876  18.065  0.00  0.00    +0.000 C 
ENDROOT
BRANCH   1   9
ATOM      9  C   UNL     1       2.226   2.940  19.481  0.00  0.00    +0.000 C 
BRANCH   9  10
ATOM     10  C   UNL     1       3.107   2.718  18.227  0.00  0.00    +0.000 C 
BRANCH  10  18
ATOM     11  O   UNL     1       6.350   4.884  14.257  0.00  0.00    +0.000 OA
ATOM     12  C   UNL     1       6.627   5.161  15.408  0.00  0.00    +0.000 C 
ATOM     13  O   UNL     1       7.653   5.954  15.832  0.00  0.00    +0.000 OA
ATOM     14  C   UNL     1       7.690   6.065  17.274  0.00  0.00    +0.000 C 
ATOM     15  C   UNL     1       6.534   5.261  17.704  0.00  0.00    +0.000 A 
ATOM     16  C   UNL     1       6.050   5.010  18.971  0.00  0.00    +0.000 A 
ATOM     17  C   UNL     1       4.938   4.174  19.085  0.00  0.00    +0.000 A 
ATOM     18  C   UNL     1       4.306   3.593  17.951  0.00  0.00    +0.000 A 
ATOM     19  C   UNL     1       4.804   3.879  16.679  0.00  0.00    +0.000 A 
ATOM     20  C   UNL     1       5.918   4.711  16.599  0.00  0.00    +0.000 A 
ENDBRANCH  10  18
ENDBRANCH   9  10
ENDBRANCH   1   9
BRANCH   5  21
ATOM     21  C   UNL     1       1.627   9.096  18.673  0.00  0.00    +0.000 C 
BRANCH  21  22
ATOM     22  C   UNL     1       0.225   9.640  18.514  0.00  0.00    +0.000 A 
ATOM     23  C   UNL     1      -0.576   9.266  17.427  0.00  0.00    +0.000 A 
ATOM     24  C   UNL     1      -1.853   9.810  17.251  0.00  0.00    +0.000 A 
ATOM     25  C   UNL     1      -2.341  10.741  18.170  0.00  0.00    +0.000 A 
ATOM     26  C   UNL     1      -1.568  11.081  19.291  0.00  0.00    +0.000 A 
ATOM     27  C   UNL     1      -0.299  10.527  19.462  0.00  0.00    +0.000 A 
BRANCH  25  28
ATOM     28  N   UNL     1      -3.596  11.369  17.980  0.00  0.00    +0.000 N 
ATOM     29  C   UNL     1      -4.310  11.564  16.826  0.00  0.00    +0.000 A 
ATOM     30  N   UNL     1      -5.392  12.259  17.094  0.00  0.00    +0.000 NA
ATOM     31  N   UNL     1      -5.360  12.489  18.444  0.00  0.00    +0.000 NA
ATOM     32  N   UNL     1      -4.286  11.942  18.995  0.00  0.00    +0.000 NA
ENDBRANCH  25  28
ENDBRANCH  21  22
ENDBRANCH   5  21
TORSDOF 6
ENDMDL
MODEL 8
REMARK VINA RESULT:      -7.7      4.125     11.626
REMARK  Name = 
REMARK  6 active torsions:
REMARK  status: ('A' for Active; 'I' for Inactive)
REMARK    1  A    between atoms: C_8  and  C_9
REMARK    2  A    between atoms: C_9  and  C_10
REMARK    3  A    between atoms: C_10  and  N_11
REMARK    4  A    between atoms: C_15  and  C_17
REMARK    5  A    between atoms: C_17  and  C_18
REMARK    6  A    between atoms: C_21  and  N_22
REMARK                            x       y       z     vdW  Elec       q    Type
REMARK                         _______ _______ _______ _____ _____    ______ ____
ROOT
ATOM      1  N   UNL     1       2.406   5.310  18.899  0.00  0.00    +0.000 NA
ATOM      2  C   UNL     1       1.630   5.898  20.015  0.00  0.00    +0.000 C 
ATOM      3  C   UNL     1       2.183   7.255  20.457  0.00  0.00    +0.000 C 
ATOM      4  N   UNL     1       1.983   8.198  19.369  0.00  0.00    +0.000 N 
ATOM      5  C   UNL     1       0.969   9.131  19.518  0.00  0.00    +0.000 C 
ATOM      6  O   UNL     1       0.315   9.215  20.564  0.00  0.00    +0.000 OA
ATOM      7  C   UNL     1       2.674   7.803  18.133  0.00  0.00    +0.000 C 
ATOM      8  C   UNL     1       2.500   6.287  17.784  0.00  0.00    +0.000 C 
ENDROOT
BRANCH   1   9
ATOM      9  C   UNL     1       3.701   4.727  19.315  0.00  0.00    +0.000 C 
BRANCH   9  10
ATOM     10  C   UNL     1       4.183   3.672  18.289  0.00  0.00    +0.000 C 
BRANCH  10  18
ATOM     11  O   UNL     1       4.988   3.300  12.796  0.00  0.00    +0.000 OA
ATOM     12  C   UNL     1       5.818   3.917  13.435  0.00  0.00    +0.000 C 
ATOM     13  O   UNL     1       6.931   4.535  12.944  0.00  0.00    +0.000 OA
ATOM     14  C   UNL     1       7.700   5.175  13.989  0.00  0.00    +0.000 C 
ATOM     15  C   UNL     1       6.910   4.904  15.203  0.00  0.00    +0.000 A 
ATOM     16  C   UNL     1       7.135   5.281  16.510  0.00  0.00    +0.000 A 
ATOM     17  C   UNL     1       6.221   4.850  17.474  0.00  0.00    +0.000 A 
ATOM     18  C   UNL     1       5.090   4.054  17.144  0.00  0.00    +0.000 A 
ATOM     19  C   UNL     1       4.875   3.704  15.810  0.00  0.00    +0.000 A 
ATOM     20  C   UNL     1       5.807   4.143  14.874  0.00  0.00    +0.000 A 
ENDBRANCH  10  18
ENDBRANCH   9  10
ENDBRANCH   1   9
BRANCH   5  21
ATOM     21  C   UNL     1       0.626  10.072  18.375  0.00  0.00    +0.000 C 
BRANCH  21  22
ATOM     22  C   UNL     1      -0.840  10.440  18.339  0.00  0.00    +0.000 A 
ATOM     23  C   UNL     1      -1.745   9.723  17.545  0.00  0.00    +0.000 A 
ATOM     24  C   UNL     1      -3.091  10.097  17.471  0.00  0.00    +0.000 A 
ATOM     25  C   UNL     1      -3.545  11.200  18.196  0.00  0.00    +0.000 A 
ATOM     26  C   UNL     1      -2.658  11.891  19.036  0.00  0.00    +0.000 A 
ATOM     27  C   UNL     1      -1.319  11.506  19.109  0.00  0.00    +0.000 A 
BRANCH  25  28
ATOM     28  N   UNL     1      -4.882  11.652  18.083  0.00  0.00    +0.000 N 
ATOM     29  C   UNL     1      -5.899  11.614  19.003  0.00  0.00    +0.000 A 
ATOM     30  N   UNL     1      -6.999  12.076  18.456  0.00  0.00    +0.000 NA
ATOM     31  N   UNL     1      -6.661  12.421  17.175  0.00  0.00    +0.000 NA
ATOM     32  N   UNL     1      -5.378  12.185  16.941  0.00  0.00    +0.000 NA
ENDBRANCH  25  28
ENDBRANCH  21  22
ENDBRANCH   5  21
TORSDOF 6
ENDMDL
MODEL 9
REMARK VINA RESULT:      -7.7      3.359     11.086
REMARK  Name = 
REMARK  6 active torsions:
REMARK  status: ('A' for Active; 'I' for Inactive)
REMARK    1  A    between atoms: C_8  and  C_9
REMARK    2  A    between atoms: C_9  and  C_10
REMARK    3  A    between atoms: C_10  and  N_11
REMARK    4  A    between atoms: C_15  and  C_17
REMARK    5  A    between atoms: C_17  and  C_18
REMARK    6  A    between atoms: C_21  and  N_22
REMARK                            x       y       z     vdW  Elec       q    Type
REMARK                         _______ _______ _______ _____ _____    ______ ____
ROOT
ATOM      1  N   UNL     1       1.890   5.008  19.810  0.00  0.00    +0.000 NA
ATOM      2  C   UNL     1       1.219   5.895  20.786  0.00  0.00    +0.000 C 
ATOM      3  C   UNL     1       1.980   7.206  21.001  0.00  0.00    +0.000 C 
ATOM      4  N   UNL     1       1.928   7.964  19.761  0.00  0.00    +0.000 N 
ATOM      5  C   UNL     1       1.074   9.054  19.719  0.00  0.00    +0.000 C 
ATOM      6  O   UNL     1       0.444   9.421  20.718  0.00  0.00    +0.000 OA
ATOM      7  C   UNL     1       2.547   7.256  18.630  0.00  0.00    +0.000 C 
ATOM      8  C   UNL     1       2.135   5.748  18.546  0.00  0.00    +0.000 C 
ENDROOT
BRANCH   1   9
ATOM      9  C   UNL     1       3.078   4.313  20.354  0.00  0.00    +0.000 C 
BRANCH   9  10
ATOM     10  C   UNL     1       3.679   3.346  19.303  0.00  0.00    +0.000 C 
BRANCH  10  18
ATOM     11  O   UNL     1       7.808   6.837  17.991  0.00  0.00    +0.000 OA
ATOM     12  C   UNL     1       7.351   6.160  17.090  0.00  0.00    +0.000 C 
ATOM     13  O   UNL     1       7.747   6.163  15.785  0.00  0.00    +0.000 OA
ATOM     14  C   UNL     1       6.982   5.232  14.985  0.00  0.00    +0.000 C 
ATOM     15  C   UNL     1       6.068   4.618  15.964  0.00  0.00    +0.000 A 
ATOM     16  C   UNL     1       5.110   3.641  15.792  0.00  0.00    +0.000 A 
ATOM     17  C   UNL     1       4.359   3.268  16.908  0.00  0.00    +0.000 A 
ATOM     18  C   UNL     1       4.558   3.856  18.187  0.00  0.00    +0.000 A 
ATOM     19  C   UNL     1       5.548   4.829  18.338  0.00  0.00    +0.000 A 
ATOM     20  C   UNL     1       6.275   5.183  17.205  0.00  0.00    +0.000 A 
ENDBRANCH  10  18
ENDBRANCH   9  10
ENDBRANCH   1   9
BRANCH   5  21
ATOM     21  C   UNL     1       0.882   9.822  18.422  0.00  0.00    +0.000 C 
BRANCH  21  22
ATOM     22  C   UNL     1      -0.507  10.403  18.285  0.00  0.00    +0.000 A 
ATOM     23  C   UNL     1      -0.880  11.558  18.985  0.00  0.00    +0.000 A 
ATOM     24  C   UNL     1      -2.181  12.064  18.900  0.00  0.00    +0.000 A 
ATOM     25  C   UNL     1      -3.127  11.413  18.107  0.00  0.00    +0.000 A 
ATOM     26  C   UNL     1      -2.749  10.287  17.359  0.00  0.00    +0.000 A 
ATOM     27  C   UNL     1      -1.447   9.794  17.445  0.00  0.00    +0.000 A 
BRANCH  25  28
ATOM     28  N   UNL     1      -4.472  11.853  18.059  0.00  0.00    +0.000 N 
ATOM     29  C   UNL     1      -5.375  11.795  17.029  0.00  0.00    +0.000 A 
ATOM     30  N   UNL     1      -6.490  12.386  17.393  0.00  0.00    +0.000 NA
ATOM     31  N   UNL     1      -6.285  12.809  18.679  0.00  0.00    +0.000 NA
ATOM     32  N   UNL     1      -5.072  12.479  19.100  0.00  0.00    +0.000 NA
ENDBRANCH  25  28
ENDBRANCH  21  22
ENDBRANCH   5  21
TORSDOF 6
ENDMDL
