MODEL 1
REMARK VINA RESULT:      -6.4      0.000      0.000
REMARK  Name = 
REMARK  6 active torsions:
REMARK  status: ('A' for Active; 'I' for Inactive)
REMARK    1  A    between atoms: C_5  and  O_6
REMARK    2  A    between atoms: O_6  and  C_7
REMARK    3  A    between atoms: C_7  and  C_8
REMARK    4  A    between atoms: C_8  and  C_9
REMARK    5  A    between atoms: C_9  and  C_10
REMARK    6  A    between atoms: C_10  and  N_11
REMARK                            x       y       z     vdW  Elec       q    Type
REMARK                         _______ _______ _______ _____ _____    ______ ____
ROOT
ATOM      1  C   UNL     1       6.835   6.277  17.035  0.00  0.00    +0.000 C 
ENDROOT
BRANCH   1   2
ATOM      2  O   UNL     1       7.513   5.881  15.833  0.00  0.00    +0.000 OA
BRANCH   2   7
ATOM      3 CL   UNL     1       5.338   2.482  11.527  0.00  0.00    +0.000 Cl
ATOM      4  C   UNL     1       5.887   3.542  12.767  0.00  0.00    +0.000 A 
ATOM      5  C   UNL     1       7.120   4.164  12.643  0.00  0.00    +0.000 A 
ATOM      6  C   UNL     1       7.584   4.989  13.677  0.00  0.00    +0.000 A 
ATOM      7  C   UNL     1       6.846   5.187  14.856  0.00  0.00    +0.000 A 
ATOM      8  C   UNL     1       5.587   4.592  14.952  0.00  0.00    +0.000 A 
ATOM      9  C   UNL     1       5.104   3.782  13.901  0.00  0.00    +0.000 A 
ENDBRANCH   2   7
ENDBRANCH   1   2
BRANCH   1  10
ATOM     10  C   UNL     1       7.048   5.223  18.141  0.00  0.00    +0.000 C 
BRANCH  10  11
ATOM     11  C   UNL     1       5.961   5.219  19.221  0.00  0.00    +0.000 C 
BRANCH  11  12
ATOM     12  C   UNL     1       4.511   5.370  18.716  0.00  0.00    +0.000 C 
BRANCH  12  13
ATOM     13  N   UNL     1       3.568   4.360  19.249  0.00  0.00    +0.000 NA
ATOM     14  C   UNL     1       2.690   4.949  20.277  0.00  0.00    +0.000 C 
ATOM     15  C   UNL     1       1.729   3.916  20.863  0.00  0.00    +0.000 C 
ATOM     16  C   UNL     1       0.888   3.258  19.780  0.00  0.00    +0.000 C 
ATOM     17  C   UNL     1       1.792   2.693  18.694  0.00  0.00    +0.000 C 
ATOM     18  C   UNL     1       2.755   3.767  18.166  0.00  0.00    +0.000 C 
ENDBRANCH  12  13
ENDBRANCH  11  12
ENDBRANCH  10  11
ENDBRANCH   1  10
TORSDOF 6
ENDMDL
MODEL 2
REMARK VINA RESULT:      -6.4      4.301      6.225
REMARK  Name = 
REMARK  6 active torsions:
REMARK  status: ('A' for Active; 'I' for Inactive)
REMARK    1  A    between atoms: C_5  and  O_6
REMARK    2  A    between atoms: O_6  and  C_7
REMARK    3  A    between atoms: C_7  and  C_8
REMARK    4  A    between atoms: C_8  and  C_9
REMARK    5  A    between atoms: C_9  and  C_10
REMARK    6  A    between atoms: C_10  and  N_11
REMARK                            x       y       z     vdW  Elec       q    Type
REMARK                         _______ _______ _______ _____ _____    ______ ____
ROOT
ATOM      1  C   UNL     1       4.386   6.269  17.890  0.00  0.00    +0.000 C 
ENDROOT
BRANCH   1   2
ATOM      2  O   UNL     1       3.324   6.257  18.857  0.00  0.00    +0.000 OA
BRANCH   2   7
ATOM      3 CL   UNL     1       0.010  11.008  19.981  0.00  0.00    +0.000 Cl
ATOM      4  C   UNL     1       0.899   9.590  19.580  0.00  0.00    +0.000 A 
ATOM      5  C   UNL     1       1.162   8.645  20.560  0.00  0.00    +0.000 A 
ATOM      6  C   UNL     1       1.928   7.515  20.241  0.00  0.00    +0.000 A 
ATOM      7  C   UNL     1       2.463   7.320  18.957  0.00  0.00    +0.000 A 
ATOM      8  C   UNL     1       2.157   8.255  17.967  0.00  0.00    +0.000 A 
ATOM      9  C   UNL     1       1.364   9.381  18.278  0.00  0.00    +0.000 A 
ENDBRANCH   2   7
ENDBRANCH   1   2
BRANCH   1  10
ATOM     10  C   UNL     1       4.290   5.031  16.975  0.00  0.00    +0.000 C 
BRANCH  10  11
ATOM     11  C   UNL     1       4.698   3.718  17.651  0.00  0.00    +0.000 C 
BRANCH  11  12
ATOM     12  C   UNL     1       3.654   2.582  17.599  0.00  0.00    +0.000 C 
BRANCH  12  13
ATOM     13  N   UNL     1       2.823   2.457  18.818  0.00  0.00    +0.000 NA
ATOM     14  C   UNL     1       3.576   2.881  20.014  0.00  0.00    +0.000 C 
ATOM     15  C   UNL     1       2.747   2.731  21.290  0.00  0.00    +0.000 C 
ATOM     16  C   UNL     1       1.441   3.504  21.200  0.00  0.00    +0.000 C 
ATOM     17  C   UNL     1       0.687   3.103  19.940  0.00  0.00    +0.000 C 
ATOM     18  C   UNL     1       1.578   3.245  18.698  0.00  0.00    +0.000 C 
ENDBRANCH  12  13
ENDBRANCH  11  12
ENDBRANCH  10  11
ENDBRANCH   1  10
TORSDOF 6
ENDMDL
MODEL 3
REMARK VINA RESULT:      -6.3      1.039      1.469
REMARK  Name = 
REMARK  6 active torsions:
REMARK  status: ('A' for Active; 'I' for Inactive)
REMARK    1  A    between atoms: C_5  and  O_6
REMARK    2  A    between atoms: O_6  and  C_7
REMARK    3  A    between atoms: C_7  and  C_8
REMARK    4  A    between atoms: C_8  and  C_9
REMARK    5  A    between atoms: C_9  and  C_10
REMARK    6  A    between atoms: C_10  and  N_11
REMARK                            x       y       z     vdW  Elec       q    Type
REMARK                         _______ _______ _______ _____ _____    ______ ____
ROOT
ATOM      1  C   UNL     1       7.470   6.033  17.798  0.00  0.00    +0.000 C 
ENDROOT
BRANCH   1   2
ATOM      2  O   UNL     1       7.762   4.890  16.980  0.00  0.00    +0.000 OA
BRANCH   2   7
ATOM      3 CL   UNL     1       5.100   3.378  11.935  0.00  0.00    +0.000 Cl
ATOM      4  C   UNL     1       5.786   3.879  13.431  0.00  0.00    +0.000 A 
ATOM      5  C   UNL     1       6.960   4.616  13.435  0.00  0.00    +0.000 A 
ATOM      6  C   UNL     1       7.542   4.982  14.658  0.00  0.00    +0.000 A 
ATOM      7  C   UNL     1       6.984   4.599  15.889  0.00  0.00    +0.000 A 
ATOM      8  C   UNL     1       5.779   3.894  15.874  0.00  0.00    +0.000 A 
ATOM      9  C   UNL     1       5.176   3.548  14.646  0.00  0.00    +0.000 A 
ENDBRANCH   2   7
ENDBRANCH   1   2
BRANCH   1  10
ATOM     10  C   UNL     1       6.939   5.583  19.174  0.00  0.00    +0.000 C 
BRANCH  10  11
ATOM     11  C   UNL     1       5.413   5.459  19.248  0.00  0.00    +0.000 C 
BRANCH  11  12
ATOM     12  C   UNL     1       4.857   4.020  19.301  0.00  0.00    +0.000 C 
BRANCH  12  13
ATOM     13  N   UNL     1       3.381   3.936  19.383  0.00  0.00    +0.000 NA
ATOM     14  C   UNL     1       2.797   3.619  18.066  0.00  0.00    +0.000 C 
ATOM     15  C   UNL     1       1.271   3.558  18.121  0.00  0.00    +0.000 C 
ATOM     16  C   UNL     1       0.790   2.553  19.155  0.00  0.00    +0.000 C 
ATOM     17  C   UNL     1       1.431   2.849  20.503  0.00  0.00    +0.000 C 
ATOM     18  C   UNL     1       2.959   2.928  20.380  0.00  0.00    +0.000 C 
ENDBRANCH  12  13
ENDBRANCH  11  12
ENDBRANCH  10  11
ENDBRANCH   1  10
TORSDOF 6
ENDMDL
MODEL 4
REMARK VINA RESULT:      -6.3      0.883      1.724
REMARK  Name = 
REMARK  6 active torsions:
REMARK  status: ('A' for Active; 'I' for Inactive)
REMARK    1  A    between atoms: C_5  and  O_6
REMARK    2  A    between atoms: O_6  and  C_7
REMARK    3  A    between atoms: C_7  and  C_8
REMARK    4  A    between atoms: C_8  and  C_9
REMARK    5  A    between atoms: C_9  and  C_10
REMARK    6  A    between atoms: C_10  and  N_11
REMARK                            x       y       z     vdW  Elec       q    Type
REMARK                         _______ _______ _______ _____ _____    ______ ____
ROOT
ATOM      1  C   UNL     1       7.278   5.488  16.958  0.00  0.00    +0.000 C 
ENDROOT
BRANCH   1   2
ATOM      2  O   UNL     1       7.454   5.905  15.595  0.00  0.00    +0.000 OA
BRANCH   2   7
ATOM      3 CL   UNL     1       5.098   2.593  11.317  0.00  0.00    +0.000 Cl
ATOM      4  C   UNL     1       5.878   3.499  12.555  0.00  0.00    +0.000 A 
ATOM      5  C   UNL     1       5.352   3.502  13.838  0.00  0.00    +0.000 A 
ATOM      6  C   UNL     1       5.963   4.279  14.833  0.00  0.00    +0.000 A 
ATOM      7  C   UNL     1       7.084   5.082  14.563  0.00  0.00    +0.000 A 
ATOM      8  C   UNL     1       7.631   5.038  13.280  0.00  0.00    +0.000 A 
ATOM      9  C   UNL     1       7.035   4.236  12.283  0.00  0.00    +0.000 A 
ENDBRANCH   2   7
ENDBRANCH   1   2
BRANCH   1  10
ATOM     10  C   UNL     1       6.249   6.393  17.666  0.00  0.00    +0.000 C 
BRANCH  10  11
ATOM     11  C   UNL     1       4.852   5.776  17.791  0.00  0.00    +0.000 C 
BRANCH  11  12
ATOM     12  C   UNL     1       4.332   5.576  19.231  0.00  0.00    +0.000 C 
BRANCH  12  13
ATOM     13  N   UNL     1       3.160   4.677  19.339  0.00  0.00    +0.000 NA
ATOM     14  C   UNL     1       3.581   3.302  19.668  0.00  0.00    +0.000 C 
ATOM     15  C   UNL     1       2.389   2.349  19.754  0.00  0.00    +0.000 C 
ATOM     16  C   UNL     1       1.362   2.831  20.766  0.00  0.00    +0.000 C 
ATOM     17  C   UNL     1       0.964   4.268  20.457  0.00  0.00    +0.000 C 
ATOM     18  C   UNL     1       2.202   5.170  20.352  0.00  0.00    +0.000 C 
ENDBRANCH  12  13
ENDBRANCH  11  12
ENDBRANCH  10  11
ENDBRANCH   1  10
TORSDOF 6
ENDMDL
MODEL 5
REMARK VINA RESULT:      -6.3      0.859      1.479
REMARK  Name = 
REMARK  6 active torsions:
REMARK  status: ('A' for Active; 'I' for Inactive)
REMARK    1  A    between atoms: C_5  and  O_6
REMARK    2  A    between atoms: O_6  and  C_7
REMARK    3  A    between atoms: C_7  and  C_8
REMARK    4  A    between atoms: C_8  and  C_9
REMARK    5  A    between atoms: C_9  and  C_10
REMARK    6  A    between atoms: C_10  and  N_11
REMARK                            x       y       z     vdW  Elec       q    Type
REMARK                         _______ _______ _______ _____ _____    ______ ____
ROOT
ATOM      1  C   UNL     1       6.416   6.299  16.927  0.00  0.00    +0.000 C 
ENDROOT
BRANCH   1   2
ATOM      2  O   UNL     1       7.397   5.884  15.964  0.00  0.00    +0.000 OA
BRANCH   2   7
ATOM      3 CL   UNL     1       5.089   2.765  11.519  0.00  0.00    +0.000 Cl
ATOM      4  C   UNL     1       5.853   3.611  12.808  0.00  0.00    +0.000 A 
ATOM      5  C   UNL     1       5.271   3.613  14.067  0.00  0.00    +0.000 A 
ATOM      6  C   UNL     1       5.871   4.342  15.103  0.00  0.00    +0.000 A 
ATOM      7  C   UNL     1       7.037   5.099  14.899  0.00  0.00    +0.000 A 
ATOM      8  C   UNL     1       7.638   5.055  13.641  0.00  0.00    +0.000 A 
ATOM      9  C   UNL     1       7.052   4.300  12.602  0.00  0.00    +0.000 A 
ENDBRANCH   2   7
ENDBRANCH   1   2
BRANCH   1  10
ATOM     10  C   UNL     1       6.745   5.709  18.314  0.00  0.00    +0.000 C 
BRANCH  10  11
ATOM     11  C   UNL     1       5.514   5.292  19.126  0.00  0.00    +0.000 C 
BRANCH  11  12
ATOM     12  C   UNL     1       5.225   3.777  19.179  0.00  0.00    +0.000 C 
BRANCH  12  13
ATOM     13  N   UNL     1       3.796   3.420  19.027  0.00  0.00    +0.000 NA
ATOM     14  C   UNL     1       3.262   2.841  20.275  0.00  0.00    +0.000 C 
ATOM     15  C   UNL     1       1.795   2.437  20.131  0.00  0.00    +0.000 C 
ATOM     16  C   UNL     1       0.933   3.611  19.695  0.00  0.00    +0.000 C 
ATOM     17  C   UNL     1       1.511   4.240  18.436  0.00  0.00    +0.000 C 
ATOM     18  C   UNL     1       2.992   4.596  18.630  0.00  0.00    +0.000 C 
ENDBRANCH  12  13
ENDBRANCH  11  12
ENDBRANCH  10  11
ENDBRANCH   1  10
TORSDOF 6
ENDMDL
MODEL 6
REMARK VINA RESULT:      -6.3      4.212      7.115
REMARK  Name = 
REMARK  6 active torsions:
REMARK  status: ('A' for Active; 'I' for Inactive)
REMARK    1  A    between atoms: C_5  and  O_6
REMARK    2  A    between atoms: O_6  and  C_7
REMARK    3  A    between atoms: C_7  and  C_8
REMARK    4  A    between atoms: C_8  and  C_9
REMARK    5  A    between atoms: C_9  and  C_10
REMARK    6  A    between atoms: C_10  and  N_11
REMARK                            x       y       z     vdW  Elec       q    Type
REMARK                         _______ _______ _______ _____ _____    ______ ____
ROOT
ATOM      1  C   UNL     1       2.061   5.061  19.810  0.00  0.00    +0.000 C 
ENDROOT
BRANCH   1   2
ATOM      2  O   UNL     1       2.837   6.262  19.677  0.00  0.00    +0.000 OA
BRANCH   2   7
ATOM      3 CL   UNL     1      -0.136  11.249  18.626  0.00  0.00    +0.000 Cl
ATOM      4  C   UNL     1       0.792   9.850  19.007  0.00  0.00    +0.000 A 
ATOM      5  C   UNL     1       1.552   9.242  18.020  0.00  0.00    +0.000 A 
ATOM      6  C   UNL     1       2.269   8.075  18.322  0.00  0.00    +0.000 A 
ATOM      7  C   UNL     1       2.220   7.483  19.595  0.00  0.00    +0.000 A 
ATOM      8  C   UNL     1       1.487   8.128  20.593  0.00  0.00    +0.000 A 
ATOM      9  C   UNL     1       0.786   9.317  20.300  0.00  0.00    +0.000 A 
ENDBRANCH   2   7
ENDBRANCH   1   2
BRANCH   1  10
ATOM     10  C   UNL     1       2.037   4.289  18.475  0.00  0.00    +0.000 C 
BRANCH  10  11
ATOM     11  C   UNL     1       3.270   4.519  17.595  0.00  0.00    +0.000 C 
BRANCH  11  12
ATOM     12  C   UNL     1       4.498   3.641  17.915  0.00  0.00    +0.000 C 
BRANCH  12  13
ATOM     13  N   UNL     1       5.793   4.359  17.870  0.00  0.00    +0.000 NA
ATOM     14  C   UNL     1       5.822   5.324  16.755  0.00  0.00    +0.000 C 
ATOM     15  C   UNL     1       7.161   6.055  16.671  0.00  0.00    +0.000 C 
ATOM     16  C   UNL     1       7.493   6.761  17.976  0.00  0.00    +0.000 C 
ATOM     17  C   UNL     1       7.415   5.777  19.134  0.00  0.00    +0.000 C 
ATOM     18  C   UNL     1       6.062   5.052  19.148  0.00  0.00    +0.000 C 
ENDBRANCH  12  13
ENDBRANCH  11  12
ENDBRANCH  10  11
ENDBRANCH   1  10
TORSDOF 6
ENDMDL
MODEL 7
REMARK VINA RESULT:      -6.2      1.310      1.519
REMARK  Name = 
REMARK  6 active torsions:
REMARK  status: ('A' for Active; 'I' for Inactive)
REMARK    1  A    between atoms: C_5  and  O_6
REMARK    2  A    between atoms: O_6  and  C_7
REMARK    3  A    between atoms: C_7  and  C_8
REMARK    4  A    between atoms: C_8  and  C_9
REMARK    5  A    between atoms: C_9  and  C_10
REMARK    6  A    between atoms: C_10  and  N_11
REMARK                            x       y       z     vdW  Elec       q    Type
REMARK                         _______ _______ _______ _____ _____    ______ ____
ROOT
ATOM      1  C   UNL     1       7.717   4.639  17.329  0.00  0.00    +0.000 C 
ENDROOT
BRANCH   1   2
ATOM      2  O   UNL     1       7.639   5.351  16.085  0.00  0.00    +0.000 OA
BRANCH   2   7
ATOM      3 CL   UNL     1       4.827   2.932  11.495  0.00  0.00    +0.000 Cl
ATOM      4  C   UNL     1       5.568   3.715  12.837  0.00  0.00    +0.000 A 
ATOM      5  C   UNL     1       6.846   4.235  12.707  0.00  0.00    +0.000 A 
ATOM      6  C   UNL     1       7.465   4.830  13.816  0.00  0.00    +0.000 A 
ATOM      7  C   UNL     1       6.837   4.893  15.071  0.00  0.00    +0.000 A 
ATOM      8  C   UNL     1       5.534   4.406  15.179  0.00  0.00    +0.000 A 
ATOM      9  C   UNL     1       4.897   3.831  14.059  0.00  0.00    +0.000 A 
ENDBRANCH   2   7
ENDBRANCH   1   2
BRANCH   1  10
ATOM     10  C   UNL     1       7.605   5.621  18.514  0.00  0.00    +0.000 C 
BRANCH  10  11
ATOM     11  C   UNL     1       6.338   5.444  19.357  0.00  0.00    +0.000 C 
BRANCH  11  12
ATOM     12  C   UNL     1       5.003   5.704  18.628  0.00  0.00    +0.000 C 
BRANCH  12  13
ATOM     13  N   UNL     1       4.000   4.625  18.784  0.00  0.00    +0.000 NA
ATOM     14  C   UNL     1       3.211   4.457  17.549  0.00  0.00    +0.000 C 
ATOM     15  C   UNL     1       2.147   3.370  17.698  0.00  0.00    +0.000 C 
ATOM     16  C   UNL     1       2.763   2.040  18.104  0.00  0.00    +0.000 C 
ATOM     17  C   UNL     1       3.618   2.222  19.350  0.00  0.00    +0.000 C 
ATOM     18  C   UNL     1       4.644   3.347  19.152  0.00  0.00    +0.000 C 
ENDBRANCH  12  13
ENDBRANCH  11  12
ENDBRANCH  10  11
ENDBRANCH   1  10
TORSDOF 6
ENDMDL
MODEL 8
REMARK VINA RESULT:      -6.2      4.362      6.409
REMARK  Name = 
REMARK  6 active torsions:
REMARK  status: ('A' for Active; 'I' for Inactive)
REMARK    1  A    between atoms: C_5  and  O_6
REMARK    2  A    between atoms: O_6  and  C_7
REMARK    3  A    between atoms: C_7  and  C_8
REMARK    4  A    between atoms: C_8  and  C_9
REMARK    5  A    between atoms: C_9  and  C_10
REMARK    6  A    between atoms: C_10  and  N_11
REMARK                            x       y       z     vdW  Elec       q    Type
REMARK                         _______ _______ _______ _____ _____    ______ ____
ROOT
ATOM      1  C   UNL     1       4.184   6.751  17.654  0.00  0.00    +0.000 C 
ENDROOT
BRANCH   1   2
ATOM      2  O   UNL     1       2.758   6.685  17.814  0.00  0.00    +0.000 OA
BRANCH   2   7
ATOM      3 CL   UNL     1       0.476  10.825  21.346  0.00  0.00    +0.000 Cl
ATOM      4  C   UNL     1       1.044   9.612  20.264  0.00  0.00    +0.000 A 
ATOM      5  C   UNL     1       1.469   8.392  20.765  0.00  0.00    +0.000 A 
ATOM      6  C   UNL     1       1.976   7.424  19.885  0.00  0.00    +0.000 A 
ATOM      7  C   UNL     1       2.091   7.663  18.506  0.00  0.00    +0.000 A 
ATOM      8  C   UNL     1       1.619   8.878  18.007  0.00  0.00    +0.000 A 
ATOM      9  C   UNL     1       1.084   9.844  18.886  0.00  0.00    +0.000 A 
ENDBRANCH   2   7
ENDBRANCH   1   2
BRANCH   1  10
ATOM     10  C   UNL     1       4.824   5.390  17.995  0.00  0.00    +0.000 C 
BRANCH  10  11
ATOM     11  C   UNL     1       4.455   4.262  17.025  0.00  0.00    +0.000 C 
BRANCH  11  12
ATOM     12  C   UNL     1       3.557   3.147  17.601  0.00  0.00    +0.000 C 
BRANCH  12  13
ATOM     13  N   UNL     1       2.993   3.443  18.938  0.00  0.00    +0.000 NA
ATOM     14  C   UNL     1       1.527   3.593  18.869  0.00  0.00    +0.000 C 
ATOM     15  C   UNL     1       0.926   3.931  20.233  0.00  0.00    +0.000 C 
ATOM     16  C   UNL     1       1.291   2.887  21.277  0.00  0.00    +0.000 C 
ATOM     17  C   UNL     1       2.800   2.696  21.314  0.00  0.00    +0.000 C 
ATOM     18  C   UNL     1       3.350   2.391  19.913  0.00  0.00    +0.000 C 
ENDBRANCH  12  13
ENDBRANCH  11  12
ENDBRANCH  10  11
ENDBRANCH   1  10
TORSDOF 6
ENDMDL
MODEL 9
REMARK VINA RESULT:      -6.2      4.291      6.080
REMARK  Name = 
REMARK  6 active torsions:
REMARK  status: ('A' for Active; 'I' for Inactive)
REMARK    1  A    between atoms: C_5  and  O_6
REMARK    2  A    between atoms: O_6  and  C_7
REMARK    3  A    between atoms: C_7  and  C_8
REMARK    4  A    between atoms: C_8  and  C_9
REMARK    5  A    between atoms: C_9  and  C_10
REMARK    6  A    between atoms: C_10  and  N_11
REMARK                            x       y       z     vdW  Elec       q    Type
REMARK                         _______ _______ _______ _____ _____    ______ ____
ROOT
ATOM      1  C   UNL     1       3.914   6.335  17.644  0.00  0.00    +0.000 C 
ENDROOT
BRANCH   1   2
ATOM      2  O   UNL     1       3.249   6.539  18.900  0.00  0.00    +0.000 OA
BRANCH   2   7
ATOM      3 CL   UNL     1      -0.564  11.041  19.037  0.00  0.00    +0.000 Cl
ATOM      4  C   UNL     1       0.610   9.782  19.071  0.00  0.00    +0.000 A 
ATOM      5  C   UNL     1       1.304   9.459  17.916  0.00  0.00    +0.000 A 
ATOM      6  C   UNL     1       2.224   8.402  17.936  0.00  0.00    +0.000 A 
ATOM      7  C   UNL     1       2.449   7.636  19.092  0.00  0.00    +0.000 A 
ATOM      8  C   UNL     1       1.777   7.997  20.261  0.00  0.00    +0.000 A 
ATOM      9  C   UNL     1       0.870   9.078  20.252  0.00  0.00    +0.000 A 
ENDBRANCH   2   7
ENDBRANCH   1   2
BRANCH   1  10
ATOM     10  C   UNL     1       5.277   5.649  17.866  0.00  0.00    +0.000 C 
BRANCH  10  11
ATOM     11  C   UNL     1       5.195   4.127  18.027  0.00  0.00    +0.000 C 
BRANCH  11  12
ATOM     12  C   UNL     1       3.898   3.466  17.515  0.00  0.00    +0.000 C 
BRANCH  12  13
ATOM     13  N   UNL     1       3.020   2.931  18.581  0.00  0.00    +0.000 NA
ATOM     14  C   UNL     1       3.536   3.289  19.916  0.00  0.00    +0.000 C 
ATOM     15  C   UNL     1       2.662   2.721  21.034  0.00  0.00    +0.000 C 
ATOM     16  C   UNL     1       1.217   3.177  20.898  0.00  0.00    +0.000 C 
ATOM     17  C   UNL     1       0.700   2.853  19.504  0.00  0.00    +0.000 C 
ATOM     18  C   UNL     1       1.634   3.421  18.425  0.00  0.00    +0.000 C 
ENDBRANCH  12  13
ENDBRANCH  11  12
ENDBRANCH  10  11
ENDBRANCH   1  10
TORSDOF 6
ENDMDL
