MODEL 1
REMARK VINA RESULT:      -7.9      0.000      0.000
REMARK  Name = 
REMARK  3 active torsions:
REMARK  status: ('A' for Active; 'I' for Inactive)
REMARK    1  A    between atoms: C_2  and  C_11
REMARK    2  A    between atoms: N_3  and  C_4
REMARK    3  A    between atoms: C_13  and  C_14
REMARK                            x       y       z     vdW  Elec       q    Type
REMARK                         _______ _______ _______ _____ _____    ______ ____
ROOT
ATOM      1  O   UNL     1       5.231   5.579  18.934  0.00  0.00    +0.000 OA
ATOM      2  C   UNL     1       4.744   5.290  17.847  0.00  0.00    +0.000 C 
ATOM      3  N   UNL     1       3.575   4.593  17.629  0.00  0.00    +0.000 N 
ATOM      4  H   UNL     1       3.357   4.304  16.684  0.00  0.00    +0.000 HD
ENDROOT
BRANCH   3   5
ATOM      5  C   UNL     1       2.685   4.143  18.633  0.00  0.00    +0.000 A 
ATOM      6  C   UNL     1       2.096   4.991  19.575  0.00  0.00    +0.000 A 
ATOM      7  C   UNL     1       1.238   4.484  20.553  0.00  0.00    +0.000 A 
ATOM      8  C   UNL     1       0.953   3.121  20.601  0.00  0.00    +0.000 A 
ATOM      9  C   UNL     1       1.522   2.264  19.661  0.00  0.00    +0.000 A 
ATOM     10  C   UNL     1       2.374   2.778  18.685  0.00  0.00    +0.000 A 
ATOM     11  F   UNL     1       2.921   1.938  17.790  0.00  0.00    +0.000 F 
ENDBRANCH   3   5
BRANCH   2  12
ATOM     12  C   UNL     1       5.476   5.664  16.605  0.00  0.00    +0.000 C 
ATOM     13  C   UNL     1       6.949   5.990  16.693  0.00  0.00    +0.000 C 
ATOM     14  C   UNL     1       6.507   4.697  16.049  0.00  0.00    +0.000 C 
BRANCH  14  15
ATOM     15  C   UNL     1       6.706   4.540  14.563  0.00  0.00    +0.000 A 
ATOM     16  C   UNL     1       7.653   5.326  13.885  0.00  0.00    +0.000 A 
ATOM     17  C   UNL     1       7.832   5.222  12.505  0.00  0.00    +0.000 A 
ATOM     18  C   UNL     1       7.067   4.317  11.774  0.00  0.00    +0.000 A 
ATOM     19  C   UNL     1       6.141   3.507  12.425  0.00  0.00    +0.000 A 
ATOM     20  C   UNL     1       5.969   3.614  13.807  0.00  0.00    +0.000 A 
ENDBRANCH  14  15
ENDBRANCH   2  12
TORSDOF 3
ENDMDL
MODEL 2
REMARK VINA RESULT:      -7.8      1.011      1.595
REMARK  Name = 
REMARK  3 active torsions:
REMARK  status: ('A' for Active; 'I' for Inactive)
REMARK    1  A    between atoms: C_2  and  C_11
REMARK    2  A    between atoms: N_3  and  C_4
REMARK    3  A    between atoms: C_13  and  C_14
REMARK                            x       y       z     vdW  Elec       q    Type
REMARK                         _______ _______ _______ _____ _____    ______ ____
ROOT
ATOM      1  O   UNL     1       5.013   5.963  18.959  0.00  0.00    +0.000 OA
ATOM      2  C   UNL     1       4.740   5.352  17.931  0.00  0.00    +0.000 C 
ATOM      3  N   UNL     1       3.852   4.305  17.809  0.00  0.00    +0.000 N 
ATOM      4  H   UNL     1       3.821   3.802  16.931  0.00  0.00    +0.000 HD
ENDROOT
BRANCH   3   5
ATOM      5  C   UNL     1       3.037   3.791  18.845  0.00  0.00    +0.000 A 
ATOM      6  C   UNL     1       3.548   3.200  20.004  0.00  0.00    +0.000 A 
ATOM      7  C   UNL     1       2.691   2.696  20.984  0.00  0.00    +0.000 A 
ATOM      8  C   UNL     1       1.309   2.778  20.822  0.00  0.00    +0.000 A 
ATOM      9  C   UNL     1       0.785   3.376  19.678  0.00  0.00    +0.000 A 
ATOM     10  C   UNL     1       1.646   3.881  18.706  0.00  0.00    +0.000 A 
ATOM     11  F   UNL     1       1.125   4.448  17.605  0.00  0.00    +0.000 F 
ENDBRANCH   3   5
BRANCH   2  12
ATOM     12  C   UNL     1       5.450   5.705  16.671  0.00  0.00    +0.000 C 
ATOM     13  C   UNL     1       6.924   6.036  16.728  0.00  0.00    +0.000 C 
ATOM     14  C   UNL     1       6.474   4.731  16.114  0.00  0.00    +0.000 C 
BRANCH  14  15
ATOM     15  C   UNL     1       6.647   4.548  14.628  0.00  0.00    +0.000 A 
ATOM     16  C   UNL     1       5.860   3.617  13.929  0.00  0.00    +0.000 A 
ATOM     17  C   UNL     1       6.026   3.406  12.560  0.00  0.00    +0.000 A 
ATOM     18  C   UNL     1       6.983   4.133  11.858  0.00  0.00    +0.000 A 
ATOM     19  C   UNL     1       7.757   5.081  12.521  0.00  0.00    +0.000 A 
ATOM     20  C   UNL     1       7.584   5.290  13.891  0.00  0.00    +0.000 A 
ENDBRANCH  14  15
ENDBRANCH   2  12
TORSDOF 3
ENDMDL
MODEL 3
REMARK VINA RESULT:      -7.8      0.499      1.209
REMARK  Name = 
REMARK  3 active torsions:
REMARK  status: ('A' for Active; 'I' for Inactive)
REMARK    1  A    between atoms: C_2  and  C_11
REMARK    2  A    between atoms: N_3  and  C_4
REMARK    3  A    between atoms: C_13  and  C_14
REMARK                            x       y       z     vdW  Elec       q    Type
REMARK                         _______ _______ _______ _____ _____    ______ ____
ROOT
ATOM      1  O   UNL     1       5.579   4.357  18.984  0.00  0.00    +0.000 OA
ATOM      2  C   UNL     1       4.988   4.668  17.955  0.00  0.00    +0.000 C 
ATOM      3  N   UNL     1       3.635   4.557  17.719  0.00  0.00    +0.000 N 
ATOM      4  H   UNL     1       3.296   4.722  16.779  0.00  0.00    +0.000 HD
ENDROOT
BRANCH   3   5
ATOM      5  C   UNL     1       2.668   4.124  18.657  0.00  0.00    +0.000 A 
ATOM      6  C   UNL     1       2.285   4.877  19.770  0.00  0.00    +0.000 A 
ATOM      7  C   UNL     1       1.336   4.387  20.670  0.00  0.00    +0.000 A 
ATOM      8  C   UNL     1       0.753   3.138  20.468  0.00  0.00    +0.000 A 
ATOM      9  C   UNL     1       1.115   2.381  19.356  0.00  0.00    +0.000 A 
ATOM     10  C   UNL     1       2.059   2.878  18.459  0.00  0.00    +0.000 A 
ATOM     11  F   UNL     1       2.403   2.133  17.396  0.00  0.00    +0.000 F 
ENDBRANCH   3   5
BRANCH   2  12
ATOM     12  C   UNL     1       5.774   5.176  16.797  0.00  0.00    +0.000 C 
ATOM     13  C   UNL     1       7.280   5.239  16.904  0.00  0.00    +0.000 C 
ATOM     14  C   UNL     1       6.636   4.199  16.018  0.00  0.00    +0.000 C 
BRANCH  14  15
ATOM     15  C   UNL     1       6.811   4.331  14.527  0.00  0.00    +0.000 A 
ATOM     16  C   UNL     1       6.079   3.511  13.650  0.00  0.00    +0.000 A 
ATOM     17  C   UNL     1       6.248   3.591  12.267  0.00  0.00    +0.000 A 
ATOM     18  C   UNL     1       7.152   4.505  11.731  0.00  0.00    +0.000 A 
ATOM     19  C   UNL     1       7.869   5.347  12.576  0.00  0.00    +0.000 A 
ATOM     20  C   UNL     1       7.693   5.264  13.959  0.00  0.00    +0.000 A 
ENDBRANCH  14  15
ENDBRANCH   2  12
TORSDOF 3
ENDMDL
MODEL 4
REMARK VINA RESULT:      -7.8      1.019      1.155
REMARK  Name = 
REMARK  3 active torsions:
REMARK  status: ('A' for Active; 'I' for Inactive)
REMARK    1  A    between atoms: C_2  and  C_11
REMARK    2  A    between atoms: N_3  and  C_4
REMARK    3  A    between atoms: C_13  and  C_14
REMARK                            x       y       z     vdW  Elec       q    Type
REMARK                         _______ _______ _______ _____ _____    ______ ____
ROOT
ATOM      1  O   UNL     1       4.763   6.123  18.813  0.00  0.00    +0.000 OA
ATOM      2  C   UNL     1       4.578   5.418  17.827  0.00  0.00    +0.000 C 
ATOM      3  N   UNL     1       3.792   4.287  17.761  0.00  0.00    +0.000 N 
ATOM      4  H   UNL     1       3.833   3.722  16.923  0.00  0.00    +0.000 HD
ENDROOT
BRANCH   3   5
ATOM      5  C   UNL     1       2.996   3.774  18.813  0.00  0.00    +0.000 A 
ATOM      6  C   UNL     1       3.528   3.209  19.975  0.00  0.00    +0.000 A 
ATOM      7  C   UNL     1       2.690   2.705  20.971  0.00  0.00    +0.000 A 
ATOM      8  C   UNL     1       1.306   2.762  20.822  0.00  0.00    +0.000 A 
ATOM      9  C   UNL     1       0.760   3.335  19.675  0.00  0.00    +0.000 A 
ATOM     10  C   UNL     1       1.603   3.841  18.687  0.00  0.00    +0.000 A 
ATOM     11  F   UNL     1       1.061   4.383  17.585  0.00  0.00    +0.000 F 
ENDBRANCH   3   5
BRANCH   2  12
ATOM     12  C   UNL     1       5.290   5.745  16.562  0.00  0.00    +0.000 C 
ATOM     13  C   UNL     1       6.740   6.167  16.625  0.00  0.00    +0.000 C 
ATOM     14  C   UNL     1       6.381   4.806  16.076  0.00  0.00    +0.000 C 
BRANCH  14  15
ATOM     15  C   UNL     1       6.595   4.553  14.606  0.00  0.00    +0.000 A 
ATOM     16  C   UNL     1       7.578   5.266  13.898  0.00  0.00    +0.000 A 
ATOM     17  C   UNL     1       7.772   5.073  12.529  0.00  0.00    +0.000 A 
ATOM     18  C   UNL     1       6.987   4.153  11.841  0.00  0.00    +0.000 A 
ATOM     19  C   UNL     1       6.025   3.415  12.524  0.00  0.00    +0.000 A 
ATOM     20  C   UNL     1       5.838   3.610  13.894  0.00  0.00    +0.000 A 
ENDBRANCH  14  15
ENDBRANCH   2  12
TORSDOF 3
ENDMDL
MODEL 5
REMARK VINA RESULT:      -7.7      1.049      1.086
REMARK  Name = 
REMARK  3 active torsions:
REMARK  status: ('A' for Active; 'I' for Inactive)
REMARK    1  A    between atoms: C_2  and  C_11
REMARK    2  A    between atoms: N_3  and  C_4
REMARK    3  A    between atoms: C_13  and  C_14
REMARK                            x       y       z     vdW  Elec       q    Type
REMARK                         _______ _______ _______ _____ _____    ______ ____
ROOT
ATOM      1  O   UNL     1       4.421   6.240  18.705  0.00  0.00    +0.000 OA
ATOM      2  C   UNL     1       4.268   5.483  17.753  0.00  0.00    +0.000 C 
ATOM      3  N   UNL     1       3.549   4.307  17.745  0.00  0.00    +0.000 N 
ATOM      4  H   UNL     1       3.616   3.709  16.931  0.00  0.00    +0.000 HD
ENDROOT
BRANCH   3   5
ATOM      5  C   UNL     1       2.796   3.795  18.828  0.00  0.00    +0.000 A 
ATOM      6  C   UNL     1       1.408   3.918  18.925  0.00  0.00    +0.000 A 
ATOM      7  C   UNL     1       0.722   3.405  20.028  0.00  0.00    +0.000 A 
ATOM      8  C   UNL     1       1.415   2.759  21.050  0.00  0.00    +0.000 A 
ATOM      9  C   UNL     1       2.799   2.617  20.961  0.00  0.00    +0.000 A 
ATOM     10  C   UNL     1       3.475   3.127  19.854  0.00  0.00    +0.000 A 
ATOM     11  F   UNL     1       4.810   2.988  19.787  0.00  0.00    +0.000 F 
ENDBRANCH   3   5
BRANCH   2  12
ATOM     12  C   UNL     1       4.947   5.796  16.465  0.00  0.00    +0.000 C 
ATOM     13  C   UNL     1       6.322   6.424  16.496  0.00  0.00    +0.000 C 
ATOM     14  C   UNL     1       6.167   4.983  16.069  0.00  0.00    +0.000 C 
BRANCH  14  15
ATOM     15  C   UNL     1       6.438   4.636  14.628  0.00  0.00    +0.000 A 
ATOM     16  C   UNL     1       7.482   5.265  13.928  0.00  0.00    +0.000 A 
ATOM     17  C   UNL     1       7.731   4.985  12.584  0.00  0.00    +0.000 A 
ATOM     18  C   UNL     1       6.940   4.057  11.912  0.00  0.00    +0.000 A 
ATOM     19  C   UNL     1       5.917   3.400  12.589  0.00  0.00    +0.000 A 
ATOM     20  C   UNL     1       5.675   3.682  13.935  0.00  0.00    +0.000 A 
ENDBRANCH  14  15
ENDBRANCH   2  12
TORSDOF 3
ENDMDL
MODEL 6
REMARK VINA RESULT:      -7.7      2.049      7.253
REMARK  Name = 
REMARK  3 active torsions:
REMARK  status: ('A' for Active; 'I' for Inactive)
REMARK    1  A    between atoms: C_2  and  C_11
REMARK    2  A    between atoms: N_3  and  C_4
REMARK    3  A    between atoms: C_13  and  C_14
REMARK                            x       y       z     vdW  Elec       q    Type
REMARK                         _______ _______ _______ _____ _____    ______ ____
ROOT
ATOM      1  O   UNL     1       5.014   6.826  15.602  0.00  0.00    +0.000 OA
ATOM      2  C   UNL     1       4.944   5.735  16.158  0.00  0.00    +0.000 C 
ATOM      3  N   UNL     1       5.275   4.513  15.614  0.00  0.00    +0.000 N 
ATOM      4  H   UNL     1       5.042   3.677  16.134  0.00  0.00    +0.000 HD
ENDROOT
BRANCH   3   5
ATOM      5  C   UNL     1       5.826   4.306  14.327  0.00  0.00    +0.000 A 
ATOM      6  C   UNL     1       5.166   3.613  13.309  0.00  0.00    +0.000 A 
ATOM      7  C   UNL     1       5.770   3.427  12.064  0.00  0.00    +0.000 A 
ATOM      8  C   UNL     1       7.043   3.937  11.817  0.00  0.00    +0.000 A 
ATOM      9  C   UNL     1       7.709   4.642  12.817  0.00  0.00    +0.000 A 
ATOM     10  C   UNL     1       7.098   4.827  14.056  0.00  0.00    +0.000 A 
ATOM     11  F   UNL     1       7.756   5.503  15.012  0.00  0.00    +0.000 F 
ENDBRANCH   3   5
BRANCH   2  12
ATOM     12  C   UNL     1       4.407   5.665  17.544  0.00  0.00    +0.000 C 
ATOM     13  C   UNL     1       3.606   6.830  18.080  0.00  0.00    +0.000 C 
ATOM     14  C   UNL     1       2.906   5.536  17.738  0.00  0.00    +0.000 C 
BRANCH  14  15
ATOM     15  C   UNL     1       2.333   4.718  18.866  0.00  0.00    +0.000 A 
ATOM     16  C   UNL     1       1.482   3.632  18.598  0.00  0.00    +0.000 A 
ATOM     17  C   UNL     1       0.913   2.881  19.627  0.00  0.00    +0.000 A 
ATOM     18  C   UNL     1       1.192   3.199  20.953  0.00  0.00    +0.000 A 
ATOM     19  C   UNL     1       2.052   4.254  21.246  0.00  0.00    +0.000 A 
ATOM     20  C   UNL     1       2.621   4.999  20.211  0.00  0.00    +0.000 A 
ENDBRANCH  14  15
ENDBRANCH   2  12
TORSDOF 3
ENDMDL
MODEL 7
REMARK VINA RESULT:      -7.7      1.157      1.618
REMARK  Name = 
REMARK  3 active torsions:
REMARK  status: ('A' for Active; 'I' for Inactive)
REMARK    1  A    between atoms: C_2  and  C_11
REMARK    2  A    between atoms: N_3  and  C_4
REMARK    3  A    between atoms: C_13  and  C_14
REMARK                            x       y       z     vdW  Elec       q    Type
REMARK                         _______ _______ _______ _____ _____    ______ ____
ROOT
ATOM      1  O   UNL     1       3.659   6.657  18.191  0.00  0.00    +0.000 OA
ATOM      2  C   UNL     1       4.037   5.695  17.532  0.00  0.00    +0.000 C 
ATOM      3  N   UNL     1       3.758   4.368  17.780  0.00  0.00    +0.000 N 
ATOM      4  H   UNL     1       4.244   3.665  17.238  0.00  0.00    +0.000 HD
ENDROOT
BRANCH   3   5
ATOM      5  C   UNL     1       2.918   3.882  18.810  0.00  0.00    +0.000 A 
ATOM      6  C   UNL     1       1.528   4.028  18.803  0.00  0.00    +0.000 A 
ATOM      7  C   UNL     1       0.754   3.541  19.858  0.00  0.00    +0.000 A 
ATOM      8  C   UNL     1       1.359   2.897  20.936  0.00  0.00    +0.000 A 
ATOM      9  C   UNL     1       2.743   2.732  20.952  0.00  0.00    +0.000 A 
ATOM     10  C   UNL     1       3.508   3.217  19.892  0.00  0.00    +0.000 A 
ATOM     11  F   UNL     1       4.842   3.057  19.926  0.00  0.00    +0.000 F 
ENDBRANCH   3   5
BRANCH   2  12
ATOM     12  C   UNL     1       4.932   5.926  16.365  0.00  0.00    +0.000 C 
ATOM     13  C   UNL     1       6.408   6.147  16.606  0.00  0.00    +0.000 C 
ATOM     14  C   UNL     1       5.937   4.849  15.994  0.00  0.00    +0.000 C 
BRANCH  14  15
ATOM     15  C   UNL     1       6.288   4.574  14.554  0.00  0.00    +0.000 A 
ATOM     16  C   UNL     1       5.515   3.681  13.791  0.00  0.00    +0.000 A 
ATOM     17  C   UNL     1       5.841   3.385  12.467  0.00  0.00    +0.000 A 
ATOM     18  C   UNL     1       6.947   3.986  11.874  0.00  0.00    +0.000 A 
ATOM     19  C   UNL     1       7.714   4.894  12.599  0.00  0.00    +0.000 A 
ATOM     20  C   UNL     1       7.381   5.188  13.923  0.00  0.00    +0.000 A 
ENDBRANCH  14  15
ENDBRANCH   2  12
TORSDOF 3
ENDMDL
MODEL 8
REMARK VINA RESULT:      -7.7      1.557      1.583
REMARK  Name = 
REMARK  3 active torsions:
REMARK  status: ('A' for Active; 'I' for Inactive)
REMARK    1  A    between atoms: C_2  and  C_11
REMARK    2  A    between atoms: N_3  and  C_4
REMARK    3  A    between atoms: C_13  and  C_14
REMARK                            x       y       z     vdW  Elec       q    Type
REMARK                         _______ _______ _______ _____ _____    ______ ____
ROOT
ATOM      1  O   UNL     1       2.926   3.307  16.660  0.00  0.00    +0.000 OA
ATOM      2  C   UNL     1       3.775   4.027  17.173  0.00  0.00    +0.000 C 
ATOM      3  N   UNL     1       3.867   4.368  18.506  0.00  0.00    +0.000 N 
ATOM      4  H   UNL     1       4.536   5.079  18.774  0.00  0.00    +0.000 HD
ENDROOT
BRANCH   3   5
ATOM      5  C   UNL     1       3.029   3.886  19.539  0.00  0.00    +0.000 A 
ATOM      6  C   UNL     1       1.742   4.376  19.777  0.00  0.00    +0.000 A 
ATOM      7  C   UNL     1       0.969   3.870  20.824  0.00  0.00    +0.000 A 
ATOM      8  C   UNL     1       1.470   2.864  21.647  0.00  0.00    +0.000 A 
ATOM      9  C   UNL     1       2.747   2.356  21.414  0.00  0.00    +0.000 A 
ATOM     10  C   UNL     1       3.511   2.862  20.364  0.00  0.00    +0.000 A 
ATOM     11  F   UNL     1       4.743   2.368  20.158  0.00  0.00    +0.000 F 
ENDBRANCH   3   5
BRANCH   2  12
ATOM     12  C   UNL     1       4.804   4.662  16.305  0.00  0.00    +0.000 C 
ATOM     13  C   UNL     1       6.230   4.746  16.800  0.00  0.00    +0.000 C 
ATOM     14  C   UNL     1       5.880   3.783  15.690  0.00  0.00    +0.000 C 
BRANCH  14  15
ATOM     15  C   UNL     1       6.421   4.063  14.311  0.00  0.00    +0.000 A 
ATOM     16  C   UNL     1       7.405   5.048  14.119  0.00  0.00    +0.000 A 
ATOM     17  C   UNL     1       7.896   5.347  12.847  0.00  0.00    +0.000 A 
ATOM     18  C   UNL     1       7.416   4.656  11.738  0.00  0.00    +0.000 A 
ATOM     19  C   UNL     1       6.461   3.657  11.904  0.00  0.00    +0.000 A 
ATOM     20  C   UNL     1       5.975   3.360  13.180  0.00  0.00    +0.000 A 
ENDBRANCH  14  15
ENDBRANCH   2  12
TORSDOF 3
ENDMDL
MODEL 9
REMARK VINA RESULT:      -7.7      2.031      7.197
REMARK  Name = 
REMARK  3 active torsions:
REMARK  status: ('A' for Active; 'I' for Inactive)
REMARK    1  A    between atoms: C_2  and  C_11
REMARK    2  A    between atoms: N_3  and  C_4
REMARK    3  A    between atoms: C_13  and  C_14
REMARK                            x       y       z     vdW  Elec       q    Type
REMARK                         _______ _______ _______ _____ _____    ______ ____
ROOT
ATOM      1  O   UNL     1       4.956   6.805  15.690  0.00  0.00    +0.000 OA
ATOM      2  C   UNL     1       4.907   5.705  16.230  0.00  0.00    +0.000 C 
ATOM      3  N   UNL     1       5.272   4.499  15.673  0.00  0.00    +0.000 N 
ATOM      4  H   UNL     1       5.055   3.650  16.179  0.00  0.00    +0.000 HD
ENDROOT
BRANCH   3   5
ATOM      5  C   UNL     1       5.840   4.324  14.388  0.00  0.00    +0.000 A 
ATOM      6  C   UNL     1       5.212   3.616  13.360  0.00  0.00    +0.000 A 
ATOM      7  C   UNL     1       5.831   3.464  12.117  0.00  0.00    +0.000 A 
ATOM      8  C   UNL     1       7.087   4.020  11.884  0.00  0.00    +0.000 A 
ATOM      9  C   UNL     1       7.721   4.739  12.896  0.00  0.00    +0.000 A 
ATOM     10  C   UNL     1       7.094   4.891  14.131  0.00  0.00    +0.000 A 
ATOM     11  F   UNL     1       7.721   5.582  15.098  0.00  0.00    +0.000 F 
ENDBRANCH   3   5
BRANCH   2  12
ATOM     12  C   UNL     1       4.359   5.603  17.610  0.00  0.00    +0.000 C 
ATOM     13  C   UNL     1       3.579   6.766  18.178  0.00  0.00    +0.000 C 
ATOM     14  C   UNL     1       2.855   5.499  17.791  0.00  0.00    +0.000 C 
BRANCH  14  15
ATOM     15  C   UNL     1       2.257   4.658  18.890  0.00  0.00    +0.000 A 
ATOM     16  C   UNL     1       2.552   4.934  20.237  0.00  0.00    +0.000 A 
ATOM     17  C   UNL     1       2.038   4.149  21.269  0.00  0.00    +0.000 A 
ATOM     18  C   UNL     1       1.207   3.072  20.974  0.00  0.00    +0.000 A 
ATOM     19  C   UNL     1       0.878   2.794  19.651  0.00  0.00    +0.000 A 
ATOM     20  C   UNL     1       1.393   3.585  18.621  0.00  0.00    +0.000 A 
ENDBRANCH  14  15
ENDBRANCH   2  12
TORSDOF 3
ENDMDL
