MODEL 1
REMARK VINA RESULT:      -7.1      0.000      0.000
REMARK  Name = 
REMARK  3 active torsions:
REMARK  status: ('A' for Active; 'I' for Inactive)
REMARK    1  A    between atoms: C_1  and  O_2
REMARK    2  A    between atoms: O_2  and  C_3
REMARK    3  A    between atoms: C_6  and  N_7
REMARK                            x       y       z     vdW  Elec       q    Type
REMARK                         _______ _______ _______ _____ _____    ______ ____
ROOT
ATOM      1  N   UNL     1       1.303   9.177  19.565  0.00  0.00    +0.000 N 
ATOM      2  C   UNL     1       1.422   8.183  20.512  0.00  0.00    +0.000 C 
ATOM      3  O   UNL     1       0.997   8.327  21.655  0.00  0.00    +0.000 OA
ATOM      4  N   UNL     1       2.058   7.029  20.080  0.00  0.00    +0.000 N 
ATOM      5  C   UNL     1       2.121   5.885  20.994  0.00  0.00    +0.000 C 
ATOM      6  C   UNL     1       1.205   4.733  20.565  0.00  0.00    +0.000 C 
ATOM      7  C   UNL     1       1.778   3.879  19.453  0.00  0.00    +0.000 A 
ATOM      8  C   UNL     1       1.873   2.488  19.657  0.00  0.00    +0.000 A 
ATOM      9  C   UNL     1       2.397   1.645  18.674  0.00  0.00    +0.000 A 
ATOM     10  C   UNL     1       2.835   2.184  17.471  0.00  0.00    +0.000 A 
ATOM     11  C   UNL     1       2.724   3.553  17.244  0.00  0.00    +0.000 A 
ATOM     12  C   UNL     1       2.182   4.417  18.214  0.00  0.00    +0.000 A 
ATOM     13  C   UNL     1       2.000   5.878  17.866  0.00  0.00    +0.000 C 
ATOM     14  C   UNL     1       2.732   6.852  18.791  0.00  0.00    +0.000 C 
ATOM     15  H   UNL     1       1.089   8.811  18.651  0.00  0.00    +0.000 HD
ENDROOT
BRANCH   1  19
ATOM     16  C   UNL     1      -1.027  11.278  18.324  0.00  0.00    +0.000 C 
ATOM     17  C   UNL     1      -0.010  12.379  18.582  0.00  0.00    +0.000 C 
ATOM     18  C   UNL     1       1.195  11.626  19.119  0.00  0.00    +0.000 C 
ATOM     19  C   UNL     1       0.627  10.427  19.900  0.00  0.00    +0.000 C 
ATOM     20  C   UNL     1      -0.870  10.388  19.555  0.00  0.00    +0.000 C 
BRANCH  16  22
ATOM     21  C   UNL     1      -3.069  11.243  17.112  0.00  0.00    +0.000 C 
ATOM     22  O   UNL     1      -2.364  11.760  18.234  0.00  0.00    +0.000 OA
ENDBRANCH  16  22
ENDBRANCH   1  19
TORSDOF 2
ENDMDL
MODEL 2
REMARK VINA RESULT:      -7.0      2.591      7.693
REMARK  Name = 
REMARK  3 active torsions:
REMARK  status: ('A' for Active; 'I' for Inactive)
REMARK    1  A    between atoms: C_1  and  O_2
REMARK    2  A    between atoms: O_2  and  C_3
REMARK    3  A    between atoms: C_6  and  N_7
REMARK                            x       y       z     vdW  Elec       q    Type
REMARK                         _______ _______ _______ _____ _____    ______ ____
ROOT
ATOM      1  N   UNL     1       2.263   7.086  18.984  0.00  0.00    +0.000 N 
ATOM      2  C   UNL     1       1.970   8.358  18.543  0.00  0.00    +0.000 C 
ATOM      3  O   UNL     1       2.084   8.673  17.361  0.00  0.00    +0.000 OA
ATOM      4  N   UNL     1       1.552   9.242  19.525  0.00  0.00    +0.000 N 
ATOM      5  C   UNL     1       1.112  10.580  19.118  0.00  0.00    +0.000 C 
ATOM      6  C   UNL     1      -0.403  10.772  19.249  0.00  0.00    +0.000 C 
ATOM      7  C   UNL     1      -0.863  11.049  20.665  0.00  0.00    +0.000 A 
ATOM      8  C   UNL     1      -1.640  12.201  20.903  0.00  0.00    +0.000 A 
ATOM      9  C   UNL     1      -2.091  12.518  22.188  0.00  0.00    +0.000 A 
ATOM     10  C   UNL     1      -1.770  11.686  23.251  0.00  0.00    +0.000 A 
ATOM     11  C   UNL     1      -1.026  10.530  23.028  0.00  0.00    +0.000 A 
ATOM     12  C   UNL     1      -0.577  10.184  21.740  0.00  0.00    +0.000 A 
ATOM     13  C   UNL     1       0.141   8.866  21.551  0.00  0.00    +0.000 C 
ATOM     14  C   UNL     1       1.551   8.984  20.967  0.00  0.00    +0.000 C 
ATOM     15  H   UNL     1       1.617   6.767  19.689  0.00  0.00    +0.000 HD
ENDROOT
BRANCH   1  19
ATOM     16  C   UNL     1       3.187   3.842  18.903  0.00  0.00    +0.000 C 
ATOM     17  C   UNL     1       4.393   4.322  18.113  0.00  0.00    +0.000 C 
ATOM     18  C   UNL     1       4.209   5.829  18.067  0.00  0.00    +0.000 C 
ATOM     19  C   UNL     1       2.687   6.063  18.032  0.00  0.00    +0.000 C 
ATOM     20  C   UNL     1       2.056   4.695  18.331  0.00  0.00    +0.000 C 
BRANCH  16  22
ATOM     21  C   UNL     1       1.513   2.185  18.603  0.00  0.00    +0.000 C 
ATOM     22  O   UNL     1       2.904   2.460  18.711  0.00  0.00    +0.000 OA
ENDBRANCH  16  22
ENDBRANCH   1  19
TORSDOF 2
ENDMDL
MODEL 3
REMARK VINA RESULT:      -6.9      2.460      7.796
REMARK  Name = 
REMARK  3 active torsions:
REMARK  status: ('A' for Active; 'I' for Inactive)
REMARK    1  A    between atoms: C_1  and  O_2
REMARK    2  A    between atoms: O_2  and  C_3
REMARK    3  A    between atoms: C_6  and  N_7
REMARK                            x       y       z     vdW  Elec       q    Type
REMARK                         _______ _______ _______ _____ _____    ______ ____
ROOT
ATOM      1  N   UNL     1       2.022   6.453  20.968  0.00  0.00    +0.000 N 
ATOM      2  C   UNL     1       1.932   7.506  20.084  0.00  0.00    +0.000 C 
ATOM      3  O   UNL     1       2.237   7.383  18.901  0.00  0.00    +0.000 OA
ATOM      4  N   UNL     1       1.484   8.699  20.631  0.00  0.00    +0.000 N 
ATOM      5  C   UNL     1       1.251   9.833  19.732  0.00  0.00    +0.000 C 
ATOM      6  C   UNL     1      -0.238  10.143  19.541  0.00  0.00    +0.000 C 
ATOM      7  C   UNL     1      -0.851  10.921  20.687  0.00  0.00    +0.000 A 
ATOM      8  C   UNL     1      -1.523  12.126  20.394  0.00  0.00    +0.000 A 
ATOM      9  C   UNL     1      -2.105  12.895  21.406  0.00  0.00    +0.000 A 
ATOM     10  C   UNL     1      -2.023  12.468  22.724  0.00  0.00    +0.000 A 
ATOM     11  C   UNL     1      -1.386  11.267  23.026  0.00  0.00    +0.000 A 
ATOM     12  C   UNL     1      -0.808  10.470  22.021  0.00  0.00    +0.000 A 
ATOM     13  C   UNL     1      -0.218   9.131  22.406  0.00  0.00    +0.000 C 
ATOM     14  C   UNL     1       1.262   8.959  22.055  0.00  0.00    +0.000 C 
ATOM     15  H   UNL     1       1.257   6.436  21.623  0.00  0.00    +0.000 HD
ENDROOT
BRANCH   1  19
ATOM     16  C   UNL     1       0.746   3.444  20.129  0.00  0.00    +0.000 C 
ATOM     17  C   UNL     1       1.791   2.864  21.068  0.00  0.00    +0.000 C 
ATOM     18  C   UNL     1       2.484   4.095  21.628  0.00  0.00    +0.000 C 
ATOM     19  C   UNL     1       2.457   5.140  20.498  0.00  0.00    +0.000 C 
ATOM     20  C   UNL     1       1.514   4.564  19.430  0.00  0.00    +0.000 C 
BRANCH  16  22
ATOM     21  C   UNL     1       1.307   1.943  18.378  0.00  0.00    +0.000 C 
ATOM     22  O   UNL     1       0.269   2.505  19.172  0.00  0.00    +0.000 OA
ENDBRANCH  16  22
ENDBRANCH   1  19
TORSDOF 2
ENDMDL
MODEL 4
REMARK VINA RESULT:      -6.9      5.339      8.257
REMARK  Name = 
REMARK  3 active torsions:
REMARK  status: ('A' for Active; 'I' for Inactive)
REMARK    1  A    between atoms: C_1  and  O_2
REMARK    2  A    between atoms: O_2  and  C_3
REMARK    3  A    between atoms: C_6  and  N_7
REMARK                            x       y       z     vdW  Elec       q    Type
REMARK                         _______ _______ _______ _____ _____    ______ ____
ROOT
ATOM      1  N   UNL     1       5.304   3.833  14.343  0.00  0.00    +0.000 N 
ATOM      2  C   UNL     1       5.519   4.933  15.144  0.00  0.00    +0.000 C 
ATOM      3  O   UNL     1       6.109   5.927  14.729  0.00  0.00    +0.000 OA
ATOM      4  N   UNL     1       5.031   4.827  16.437  0.00  0.00    +0.000 N 
ATOM      5  C   UNL     1       5.120   5.998  17.314  0.00  0.00    +0.000 C 
ATOM      6  C   UNL     1       3.756   6.649  17.573  0.00  0.00    +0.000 C 
ATOM      7  C   UNL     1       2.925   5.929  18.615  0.00  0.00    +0.000 A 
ATOM      8  C   UNL     1       2.439   6.669  19.712  0.00  0.00    +0.000 A 
ATOM      9  C   UNL     1       1.672   6.064  20.712  0.00  0.00    +0.000 A 
ATOM     10  C   UNL     1       1.381   4.709  20.626  0.00  0.00    +0.000 A 
ATOM     11  C   UNL     1       1.832   3.970  19.535  0.00  0.00    +0.000 A 
ATOM     12  C   UNL     1       2.590   4.564  18.510  0.00  0.00    +0.000 A 
ATOM     13  C   UNL     1       2.964   3.728  17.306  0.00  0.00    +0.000 C 
ATOM     14  C   UNL     1       4.469   3.619  17.045  0.00  0.00    +0.000 C 
ATOM     15  H   UNL     1       4.396   3.421  14.494  0.00  0.00    +0.000 HD
ENDROOT
BRANCH   1  19
ATOM     16  C   UNL     1       4.323   2.766  11.295  0.00  0.00    +0.000 C 
ATOM     17  C   UNL     1       5.715   2.165  11.182  0.00  0.00    +0.000 C 
ATOM     18  C   UNL     1       6.350   2.491  12.523  0.00  0.00    +0.000 C 
ATOM     19  C   UNL     1       5.750   3.843  12.953  0.00  0.00    +0.000 C 
ATOM     20  C   UNL     1       4.596   4.107  11.974  0.00  0.00    +0.000 C 
BRANCH  16  22
ATOM     21  C   UNL     1       3.054   4.238   9.931  0.00  0.00    +0.000 C 
ATOM     22  O   UNL     1       3.697   2.973  10.034  0.00  0.00    +0.000 OA
ENDBRANCH  16  22
ENDBRANCH   1  19
TORSDOF 2
ENDMDL
MODEL 5
REMARK VINA RESULT:      -6.8      3.658      7.650
REMARK  Name = 
REMARK  3 active torsions:
REMARK  status: ('A' for Active; 'I' for Inactive)
REMARK    1  A    between atoms: C_1  and  O_2
REMARK    2  A    between atoms: O_2  and  C_3
REMARK    3  A    between atoms: C_6  and  N_7
REMARK                            x       y       z     vdW  Elec       q    Type
REMARK                         _______ _______ _______ _____ _____    ______ ____
ROOT
ATOM      1  N   UNL     1       4.245   5.930  17.570  0.00  0.00    +0.000 N 
ATOM      2  C   UNL     1       3.549   5.800  18.751  0.00  0.00    +0.000 C 
ATOM      3  O   UNL     1       3.900   5.009  19.623  0.00  0.00    +0.000 OA
ATOM      4  N   UNL     1       2.433   6.614  18.873  0.00  0.00    +0.000 N 
ATOM      5  C   UNL     1       1.707   6.617  20.146  0.00  0.00    +0.000 C 
ATOM      6  C   UNL     1       1.906   7.914  20.939  0.00  0.00    +0.000 C 
ATOM      7  C   UNL     1       1.052   9.065  20.447  0.00  0.00    +0.000 A 
ATOM      8  C   UNL     1       0.222   9.727  21.375  0.00  0.00    +0.000 A 
ATOM      9  C   UNL     1      -0.594  10.793  20.985  0.00  0.00    +0.000 A 
ATOM     10  C   UNL     1      -0.590  11.211  19.661  0.00  0.00    +0.000 A 
ATOM     11  C   UNL     1       0.245  10.584  18.739  0.00  0.00    +0.000 A 
ATOM     12  C   UNL     1       1.087   9.521  19.114  0.00  0.00    +0.000 A 
ATOM     13  C   UNL     1       2.039   8.951  18.086  0.00  0.00    +0.000 C 
ATOM     14  C   UNL     1       1.866   7.454  17.816  0.00  0.00    +0.000 C 
ATOM     15  H   UNL     1       4.300   6.888  17.262  0.00  0.00    +0.000 HD
ENDROOT
BRANCH   1  19
ATOM     16  C   UNL     1       6.459   5.221  15.124  0.00  0.00    +0.000 C 
ATOM     17  C   UNL     1       6.214   3.764  15.480  0.00  0.00    +0.000 C 
ATOM     18  C   UNL     1       5.164   3.839  16.574  0.00  0.00    +0.000 C 
ATOM     19  C   UNL     1       5.453   5.141  17.343  0.00  0.00    +0.000 C 
ATOM     20  C   UNL     1       6.488   5.895  16.495  0.00  0.00    +0.000 C 
BRANCH  16  22
ATOM     21  C   UNL     1       7.654   5.042  13.080  0.00  0.00    +0.000 C 
ATOM     22  O   UNL     1       7.693   5.434  14.447  0.00  0.00    +0.000 OA
ENDBRANCH  16  22
ENDBRANCH   1  19
TORSDOF 2
ENDMDL
MODEL 6
REMARK VINA RESULT:      -6.7      2.184      7.603
REMARK  Name = 
REMARK  3 active torsions:
REMARK  status: ('A' for Active; 'I' for Inactive)
REMARK    1  A    between atoms: C_1  and  O_2
REMARK    2  A    between atoms: O_2  and  C_3
REMARK    3  A    between atoms: C_6  and  N_7
REMARK                            x       y       z     vdW  Elec       q    Type
REMARK                         _______ _______ _______ _____ _____    ______ ____
ROOT
ATOM      1  N   UNL     1       2.205   6.212  20.588  0.00  0.00    +0.000 N 
ATOM      2  C   UNL     1       2.321   7.104  19.545  0.00  0.00    +0.000 C 
ATOM      3  O   UNL     1       2.824   6.780  18.472  0.00  0.00    +0.000 OA
ATOM      4  N   UNL     1       1.839   8.378  19.801  0.00  0.00    +0.000 N 
ATOM      5  C   UNL     1       1.822   9.351  18.705  0.00  0.00    +0.000 C 
ATOM      6  C   UNL     1       0.406   9.649  18.199  0.00  0.00    +0.000 C 
ATOM      7  C   UNL     1      -0.363  10.618  19.074  0.00  0.00    +0.000 A 
ATOM      8  C   UNL     1      -0.916  11.767  18.474  0.00  0.00    +0.000 A 
ATOM      9  C   UNL     1      -1.631  12.704  19.226  0.00  0.00    +0.000 A 
ATOM     10  C   UNL     1      -1.803  12.502  20.589  0.00  0.00    +0.000 A 
ATOM     11  C   UNL     1      -1.285  11.358  21.191  0.00  0.00    +0.000 A 
ATOM     12  C   UNL     1      -0.577  10.394  20.449  0.00  0.00    +0.000 A 
ATOM     13  C   UNL     1      -0.127   9.129  21.145  0.00  0.00    +0.000 C 
ATOM     14  C   UNL     1       1.382   8.877  21.101  0.00  0.00    +0.000 C 
ATOM     15  H   UNL     1       1.337   6.317  21.088  0.00  0.00    +0.000 HD
ENDROOT
BRANCH   1  19
ATOM     16  C   UNL     1       1.115   3.255  19.381  0.00  0.00    +0.000 C 
ATOM     17  C   UNL     1       1.552   2.676  20.717  0.00  0.00    +0.000 C 
ATOM     18  C   UNL     1       2.052   3.890  21.481  0.00  0.00    +0.000 C 
ATOM     19  C   UNL     1       2.655   4.832  20.422  0.00  0.00    +0.000 C 
ATOM     20  C   UNL     1       2.236   4.244  19.066  0.00  0.00    +0.000 C 
BRANCH  16  22
ATOM     21  C   UNL     1       2.250   2.060  17.672  0.00  0.00    +0.000 C 
ATOM     22  O   UNL     1       1.019   2.278  18.351  0.00  0.00    +0.000 OA
ENDBRANCH  16  22
ENDBRANCH   1  19
TORSDOF 2
ENDMDL
MODEL 7
REMARK VINA RESULT:      -6.7      5.524      8.781
REMARK  Name = 
REMARK  3 active torsions:
REMARK  status: ('A' for Active; 'I' for Inactive)
REMARK    1  A    between atoms: C_1  and  O_2
REMARK    2  A    between atoms: O_2  and  C_3
REMARK    3  A    between atoms: C_6  and  N_7
REMARK                            x       y       z     vdW  Elec       q    Type
REMARK                         _______ _______ _______ _____ _____    ______ ____
ROOT
ATOM      1  N   UNL     1       5.183   4.028  14.278  0.00  0.00    +0.000 N 
ATOM      2  C   UNL     1       5.388   5.104  15.113  0.00  0.00    +0.000 C 
ATOM      3  O   UNL     1       5.953   6.123  14.725  0.00  0.00    +0.000 OA
ATOM      4  N   UNL     1       4.921   4.943  16.408  0.00  0.00    +0.000 N 
ATOM      5  C   UNL     1       4.998   6.085  17.324  0.00  0.00    +0.000 C 
ATOM      6  C   UNL     1       3.626   6.699  17.625  0.00  0.00    +0.000 C 
ATOM      7  C   UNL     1       2.824   5.926  18.652  0.00  0.00    +0.000 A 
ATOM      8  C   UNL     1       2.339   6.618  19.781  0.00  0.00    +0.000 A 
ATOM      9  C   UNL     1       1.599   5.963  20.768  0.00  0.00    +0.000 A 
ATOM     10  C   UNL     1       1.333   4.607  20.639  0.00  0.00    +0.000 A 
ATOM     11  C   UNL     1       1.782   3.915  19.517  0.00  0.00    +0.000 A 
ATOM     12  C   UNL     1       2.515   4.560  18.503  0.00  0.00    +0.000 A 
ATOM     13  C   UNL     1       2.888   3.774  17.266  0.00  0.00    +0.000 C 
ATOM     14  C   UNL     1       4.390   3.704  16.981  0.00  0.00    +0.000 C 
ATOM     15  H   UNL     1       4.286   3.594  14.426  0.00  0.00    +0.000 HD
ENDROOT
BRANCH   1  19
ATOM     16  C   UNL     1       6.511   2.067  11.874  0.00  0.00    +0.000 C 
ATOM     17  C   UNL     1       7.528   3.181  11.684  0.00  0.00    +0.000 C 
ATOM     18  C   UNL     1       7.140   4.197  12.745  0.00  0.00    +0.000 C 
ATOM     19  C   UNL     1       5.610   4.095  12.883  0.00  0.00    +0.000 C 
ATOM     20  C   UNL     1       5.211   2.839  12.092  0.00  0.00    +0.000 C 
BRANCH  16  22
ATOM     21  C   UNL     1       6.003  -0.110  11.073  0.00  0.00    +0.000 C 
ATOM     22  O   UNL     1       6.392   1.217  10.739  0.00  0.00    +0.000 OA
ENDBRANCH  16  22
ENDBRANCH   1  19
TORSDOF 2
ENDMDL
MODEL 8
REMARK VINA RESULT:      -6.6      5.344      8.405
REMARK  Name = 
REMARK  3 active torsions:
REMARK  status: ('A' for Active; 'I' for Inactive)
REMARK    1  A    between atoms: C_1  and  O_2
REMARK    2  A    between atoms: O_2  and  C_3
REMARK    3  A    between atoms: C_6  and  N_7
REMARK                            x       y       z     vdW  Elec       q    Type
REMARK                         _______ _______ _______ _____ _____    ______ ____
ROOT
ATOM      1  N   UNL     1       5.463   4.224  14.772  0.00  0.00    +0.000 N 
ATOM      2  C   UNL     1       5.175   5.281  15.606  0.00  0.00    +0.000 C 
ATOM      3  O   UNL     1       5.136   6.437  15.193  0.00  0.00    +0.000 OA
ATOM      4  N   UNL     1       4.944   4.942  16.931  0.00  0.00    +0.000 N 
ATOM      5  C   UNL     1       4.519   5.996  17.856  0.00  0.00    +0.000 C 
ATOM      6  C   UNL     1       3.049   5.864  18.270  0.00  0.00    +0.000 C 
ATOM      7  C   UNL     1       2.808   4.822  19.343  0.00  0.00    +0.000 A 
ATOM      8  C   UNL     1       2.131   5.212  20.516  0.00  0.00    +0.000 A 
ATOM      9  C   UNL     1       1.883   4.302  21.547  0.00  0.00    +0.000 A 
ATOM     10  C   UNL     1       2.309   2.987  21.417  0.00  0.00    +0.000 A 
ATOM     11  C   UNL     1       2.956   2.579  20.253  0.00  0.00    +0.000 A 
ATOM     12  C   UNL     1       3.200   3.476  19.196  0.00  0.00    +0.000 A 
ATOM     13  C   UNL     1       3.818   2.946  17.921  0.00  0.00    +0.000 C 
ATOM     14  C   UNL     1       5.135   3.616  17.522  0.00  0.00    +0.000 C 
ATOM     15  H   UNL     1       4.909   3.408  14.981  0.00  0.00    +0.000 HD
ENDROOT
BRANCH   1  19
ATOM     16  C   UNL     1       6.577   2.611  12.024  0.00  0.00    +0.000 C 
ATOM     17  C   UNL     1       7.491   3.809  11.829  0.00  0.00    +0.000 C 
ATOM     18  C   UNL     1       7.188   4.685  13.033  0.00  0.00    +0.000 C 
ATOM     19  C   UNL     1       5.698   4.459  13.350  0.00  0.00    +0.000 C 
ATOM     20  C   UNL     1       5.274   3.261  12.485  0.00  0.00    +0.000 C 
BRANCH  16  22
ATOM     21  C   UNL     1       6.090   0.494  11.065  0.00  0.00    +0.000 C 
ATOM     22  O   UNL     1       6.359   1.871  10.828  0.00  0.00    +0.000 OA
ENDBRANCH  16  22
ENDBRANCH   1  19
TORSDOF 2
ENDMDL
MODEL 9
REMARK VINA RESULT:      -6.5      1.170      1.495
REMARK  Name = 
REMARK  3 active torsions:
REMARK  status: ('A' for Active; 'I' for Inactive)
REMARK    1  A    between atoms: C_1  and  O_2
REMARK    2  A    between atoms: O_2  and  C_3
REMARK    3  A    between atoms: C_6  and  N_7
REMARK                            x       y       z     vdW  Elec       q    Type
REMARK                         _______ _______ _______ _____ _____    ______ ____
ROOT
ATOM      1  N   UNL     1       1.131   9.070  19.788  0.00  0.00    +0.000 N 
ATOM      2  C   UNL     1       1.119   7.993  20.646  0.00  0.00    +0.000 C 
ATOM      3  O   UNL     1       0.460   8.001  21.682  0.00  0.00    +0.000 OA
ATOM      4  N   UNL     1       1.906   6.920  20.257  0.00  0.00    +0.000 N 
ATOM      5  C   UNL     1       1.856   5.693  21.058  0.00  0.00    +0.000 C 
ATOM      6  C   UNL     1       1.127   4.549  20.345  0.00  0.00    +0.000 C 
ATOM      7  C   UNL     1       1.972   3.839  19.307  0.00  0.00    +0.000 A 
ATOM      8  C   UNL     1       2.114   2.440  19.402  0.00  0.00    +0.000 A 
ATOM      9  C   UNL     1       2.885   1.726  18.480  0.00  0.00    +0.000 A 
ATOM     10  C   UNL     1       3.523   2.404  17.450  0.00  0.00    +0.000 A 
ATOM     11  C   UNL     1       3.370   3.782  17.327  0.00  0.00    +0.000 A 
ATOM     12  C   UNL     1       2.584   4.517  18.234  0.00  0.00    +0.000 A 
ATOM     13  C   UNL     1       2.380   5.996  17.987  0.00  0.00    +0.000 C 
ATOM     14  C   UNL     1       2.840   6.905  19.129  0.00  0.00    +0.000 C 
ATOM     15  H   UNL     1       1.135   8.789  18.820  0.00  0.00    +0.000 HD
ENDROOT
BRANCH   1  19
ATOM     16  C   UNL     1       0.822  12.304  18.874  0.00  0.00    +0.000 C 
ATOM     17  C   UNL     1       0.854  12.611  20.363  0.00  0.00    +0.000 C 
ATOM     18  C   UNL     1       1.048  11.246  21.000  0.00  0.00    +0.000 C 
ATOM     19  C   UNL     1       0.318  10.248  20.082  0.00  0.00    +0.000 C 
ATOM     20  C   UNL     1      -0.035  11.041  18.815  0.00  0.00    +0.000 C 
BRANCH  16  22
ATOM     21  C   UNL     1      -0.323  14.384  18.896  0.00  0.00    +0.000 C 
ATOM     22  O   UNL     1       0.225  13.339  18.101  0.00  0.00    +0.000 OA
ENDBRANCH  16  22
ENDBRANCH   1  19
TORSDOF 2
ENDMDL
