MODEL 1
REMARK VINA RESULT:      -8.1      0.000      0.000
REMARK  Name = 
REMARK  10 active torsions:
REMARK  status: ('A' for Active; 'I' for Inactive)
REMARK    1  A    between atoms: C_5  and  C_6
REMARK    2  A    between atoms: C_6  and  N_7
REMARK    3  A    between atoms: N_7  and  C_8
REMARK    4  A    between atoms: N_7  and  C_11
REMARK    5  A    between atoms: C_8  and  C_9
REMARK    6  A    between atoms: C_9  and  O_10
REMARK    7  A    between atoms: C_11  and  C_12
REMARK    8  A    between atoms: C_12  and  O_13
REMARK    9  A    between atoms: C_14  and  O_15
REMARK   10  A    between atoms: C_20  and  C_21
REMARK                            x       y       z     vdW  Elec       q    Type
REMARK                         _______ _______ _______ _____ _____    ______ ____
ROOT
ATOM      1  O   UNL     1       2.779   8.579  18.193  0.00  0.00    +0.000 OA
ATOM      2  C   UNL     1       2.532   7.556  18.826  0.00  0.00    +0.000 A 
ATOM      3  O   UNL     1       3.150   6.358  18.458  0.00  0.00    +0.000 OA
ATOM      4  C   UNL     1       3.085   5.196  19.256  0.00  0.00    +0.000 A 
ATOM      5  C   UNL     1       3.924   4.120  18.930  0.00  0.00    +0.000 A 
ATOM      6  C   UNL     1       4.000   3.077  19.859  0.00  0.00    +0.000 A 
ATOM      7  C   UNL     1       3.111   2.997  20.928  0.00  0.00    +0.000 A 
ATOM      8  C   UNL     1       2.197   4.026  21.152  0.00  0.00    +0.000 A 
ATOM      9  C   UNL     1       2.233   5.170  20.356  0.00  0.00    +0.000 A 
ATOM     10  C   UNL     1       1.456   6.356  20.677  0.00  0.00    +0.000 A 
ATOM     11  C   UNL     1       1.606   7.498  19.985  0.00  0.00    +0.000 A 
ENDROOT
BRANCH  11  12
ATOM     12  C   UNL     1       0.917   8.664  20.457  0.00  0.00    +0.000 A 
ATOM     13  N   UNL     1       0.280   9.532  19.686  0.00  0.00    +0.000 NA
ATOM     14  C   UNL     1      -0.327  10.525  20.431  0.00  0.00    +0.000 A 
ATOM     15  C   UNL     1      -1.130  11.575  19.934  0.00  0.00    +0.000 A 
ATOM     16  C   UNL     1      -1.686  12.506  20.819  0.00  0.00    +0.000 A 
ATOM     17  C   UNL     1      -1.453  12.401  22.187  0.00  0.00    +0.000 A 
ATOM     18  C   UNL     1      -0.662  11.375  22.702  0.00  0.00    +0.000 A 
ATOM     19  C   UNL     1      -0.104  10.449  21.808  0.00  0.00    +0.000 A 
ATOM     20  S   UNL     1       0.916   9.107  22.132  0.00  0.00    +0.000 S 
ENDBRANCH  11  12
BRANCH   6  21
ATOM     21  O   UNL     1       4.919   2.071  19.746  0.00  0.00    +0.000 OA
ATOM     22  H   UNL     1       5.515   2.307  19.003  0.00  0.00    +0.000 HD
ENDBRANCH   6  21
BRANCH   5  23
ATOM     23  C   UNL     1       4.708   4.139  17.637  0.00  0.00    +0.000 C 
BRANCH  23  24
ATOM     24  N   UNL     1       6.179   4.376  17.790  0.00  0.00    +0.000 NA
BRANCH  24  25
ATOM     25  C   UNL     1       6.751   4.885  16.497  0.00  0.00    +0.000 C 
BRANCH  25  26
ATOM     26  C   UNL     1       5.731   5.265  15.405  0.00  0.00    +0.000 C 
BRANCH  26  27
ATOM     27  O   UNL     1       5.478   6.671  15.453  0.00  0.00    +0.000 OA
ATOM     28  H   UNL     1       6.236   7.119  15.038  0.00  0.00    +0.000 HD
ENDBRANCH  26  27
ENDBRANCH  25  26
ENDBRANCH  24  25
BRANCH  24  29
ATOM     29  C   UNL     1       6.394   5.418  18.841  0.00  0.00    +0.000 C 
BRANCH  29  30
ATOM     30  C   UNL     1       7.861   5.676  19.229  0.00  0.00    +0.000 C 
BRANCH  30  31
ATOM     31  O   UNL     1       8.072   5.449  20.617  0.00  0.00    +0.000 OA
ATOM     32  H   UNL     1       7.929   6.302  21.062  0.00  0.00    +0.000 HD
ENDBRANCH  30  31
ENDBRANCH  29  30
ENDBRANCH  24  29
ENDBRANCH  23  24
ENDBRANCH   5  23
TORSDOF 10
ENDMDL
MODEL 2
REMARK VINA RESULT:      -8.1      1.002      2.302
REMARK  Name = 
REMARK  10 active torsions:
REMARK  status: ('A' for Active; 'I' for Inactive)
REMARK    1  A    between atoms: C_5  and  C_6
REMARK    2  A    between atoms: C_6  and  N_7
REMARK    3  A    between atoms: N_7  and  C_8
REMARK    4  A    between atoms: N_7  and  C_11
REMARK    5  A    between atoms: C_8  and  C_9
REMARK    6  A    between atoms: C_9  and  O_10
REMARK    7  A    between atoms: C_11  and  C_12
REMARK    8  A    between atoms: C_12  and  O_13
REMARK    9  A    between atoms: C_14  and  O_15
REMARK   10  A    between atoms: C_20  and  C_21
REMARK                            x       y       z     vdW  Elec       q    Type
REMARK                         _______ _______ _______ _____ _____    ______ ____
ROOT
ATOM      1  O   UNL     1       2.858   8.391  18.240  0.00  0.00    +0.000 OA
ATOM      2  C   UNL     1       2.612   7.361  18.863  0.00  0.00    +0.000 A 
ATOM      3  O   UNL     1       3.240   6.170  18.489  0.00  0.00    +0.000 OA
ATOM      4  C   UNL     1       3.175   5.001  19.277  0.00  0.00    +0.000 A 
ATOM      5  C   UNL     1       4.022   3.932  18.949  0.00  0.00    +0.000 A 
ATOM      6  C   UNL     1       4.097   2.882  19.869  0.00  0.00    +0.000 A 
ATOM      7  C   UNL     1       3.199   2.787  20.929  0.00  0.00    +0.000 A 
ATOM      8  C   UNL     1       2.277   3.809  21.155  0.00  0.00    +0.000 A 
ATOM      9  C   UNL     1       2.314   4.960  20.369  0.00  0.00    +0.000 A 
ATOM     10  C   UNL     1       1.527   6.139  20.693  0.00  0.00    +0.000 A 
ATOM     11  C   UNL     1       1.675   7.287  20.012  0.00  0.00    +0.000 A 
ENDROOT
BRANCH  11  12
ATOM     12  C   UNL     1       0.976   8.446  20.489  0.00  0.00    +0.000 A 
ATOM     13  N   UNL     1       0.429   8.559  21.690  0.00  0.00    +0.000 NA
ATOM     14  C   UNL     1      -0.132   9.809  21.878  0.00  0.00    +0.000 A 
ATOM     15  C   UNL     1      -0.747  10.283  23.056  0.00  0.00    +0.000 A 
ATOM     16  C   UNL     1      -1.265  11.583  23.097  0.00  0.00    +0.000 A 
ATOM     17  C   UNL     1      -1.173  12.411  21.982  0.00  0.00    +0.000 A 
ATOM     18  C   UNL     1      -0.571  11.965  20.806  0.00  0.00    +0.000 A 
ATOM     19  C   UNL     1      -0.061  10.659  20.772  0.00  0.00    +0.000 A 
ATOM     20  S   UNL     1       0.706   9.828  19.480  0.00  0.00    +0.000 S 
ENDBRANCH  11  12
BRANCH   6  21
ATOM     21  O   UNL     1       5.023   1.882  19.756  0.00  0.00    +0.000 OA
ATOM     22  H   UNL     1       4.627   1.185  19.190  0.00  0.00    +0.000 HD
ENDBRANCH   6  21
BRANCH   5  23
ATOM     23  C   UNL     1       4.818   3.967  17.663  0.00  0.00    +0.000 C 
BRANCH  23  24
ATOM     24  N   UNL     1       5.747   5.134  17.522  0.00  0.00    +0.000 NA
BRANCH  24  25
ATOM     25  C   UNL     1       7.087   4.794  18.108  0.00  0.00    +0.000 C 
BRANCH  25  26
ATOM     26  C   UNL     1       7.749   5.885  18.974  0.00  0.00    +0.000 C 
BRANCH  26  27
ATOM     27  O   UNL     1       7.863   5.425  20.322  0.00  0.00    +0.000 OA
ATOM     28  H   UNL     1       8.736   5.701  20.653  0.00  0.00    +0.000 HD
ENDBRANCH  26  27
ENDBRANCH  25  26
ENDBRANCH  24  25
BRANCH  24  29
ATOM     29  C   UNL     1       5.931   5.432  16.068  0.00  0.00    +0.000 C 
BRANCH  29  30
ATOM     30  C   UNL     1       7.061   4.651  15.370  0.00  0.00    +0.000 C 
BRANCH  30  31
ATOM     31  O   UNL     1       7.731   5.464  14.415  0.00  0.00    +0.000 OA
ATOM     32  H   UNL     1       7.528   5.088  13.540  0.00  0.00    +0.000 HD
ENDBRANCH  30  31
ENDBRANCH  29  30
ENDBRANCH  24  29
ENDBRANCH  23  24
ENDBRANCH   5  23
TORSDOF 10
ENDMDL
MODEL 3
REMARK VINA RESULT:      -8.1      0.810      1.182
REMARK  Name = 
REMARK  10 active torsions:
REMARK  status: ('A' for Active; 'I' for Inactive)
REMARK    1  A    between atoms: C_5  and  C_6
REMARK    2  A    between atoms: C_6  and  N_7
REMARK    3  A    between atoms: N_7  and  C_8
REMARK    4  A    between atoms: N_7  and  C_11
REMARK    5  A    between atoms: C_8  and  C_9
REMARK    6  A    between atoms: C_9  and  O_10
REMARK    7  A    between atoms: C_11  and  C_12
REMARK    8  A    between atoms: C_12  and  O_13
REMARK    9  A    between atoms: C_14  and  O_15
REMARK   10  A    between atoms: C_20  and  C_21
REMARK                            x       y       z     vdW  Elec       q    Type
REMARK                         _______ _______ _______ _____ _____    ______ ____
ROOT
ATOM      1  O   UNL     1       2.909   8.314  18.153  0.00  0.00    +0.000 OA
ATOM      2  C   UNL     1       2.662   7.293  18.790  0.00  0.00    +0.000 A 
ATOM      3  O   UNL     1       3.281   6.094  18.427  0.00  0.00    +0.000 OA
ATOM      4  C   UNL     1       3.216   4.936  19.229  0.00  0.00    +0.000 A 
ATOM      5  C   UNL     1       4.056   3.859  18.909  0.00  0.00    +0.000 A 
ATOM      6  C   UNL     1       4.132   2.819  19.842  0.00  0.00    +0.000 A 
ATOM      7  C   UNL     1       3.242   2.743  20.910  0.00  0.00    +0.000 A 
ATOM      8  C   UNL     1       2.326   3.772  21.129  0.00  0.00    +0.000 A 
ATOM      9  C   UNL     1       2.363   4.913  20.328  0.00  0.00    +0.000 A 
ATOM     10  C   UNL     1       1.584   6.099  20.644  0.00  0.00    +0.000 A 
ATOM     11  C   UNL     1       1.733   7.239  19.947  0.00  0.00    +0.000 A 
ENDROOT
BRANCH  11  12
ATOM     12  C   UNL     1       1.044   8.406  20.414  0.00  0.00    +0.000 A 
ATOM     13  N   UNL     1       0.502   8.537  21.616  0.00  0.00    +0.000 NA
ATOM     14  C   UNL     1      -0.050   9.791  21.793  0.00  0.00    +0.000 A 
ATOM     15  C   UNL     1      -0.657  10.283  22.968  0.00  0.00    +0.000 A 
ATOM     16  C   UNL     1      -1.167  11.586  22.998  0.00  0.00    +0.000 A 
ATOM     17  C   UNL     1      -1.075  12.401  21.873  0.00  0.00    +0.000 A 
ATOM     18  C   UNL     1      -0.481  11.938  20.699  0.00  0.00    +0.000 A 
ATOM     19  C   UNL     1       0.021  10.629  20.677  0.00  0.00    +0.000 A 
ATOM     20  S   UNL     1       0.777   9.779  19.391  0.00  0.00    +0.000 S 
ENDBRANCH  11  12
BRANCH   6  21
ATOM     21  O   UNL     1       5.052   1.814  19.735  0.00  0.00    +0.000 OA
ATOM     22  H   UNL     1       5.932   2.237  19.638  0.00  0.00    +0.000 HD
ENDBRANCH   6  21
BRANCH   5  23
ATOM     23  C   UNL     1       4.843   3.874  17.617  0.00  0.00    +0.000 C 
BRANCH  23  24
ATOM     24  N   UNL     1       6.258   4.350  17.740  0.00  0.00    +0.000 NA
BRANCH  24  25
ATOM     25  C   UNL     1       6.619   5.189  16.548  0.00  0.00    +0.000 C 
BRANCH  25  26
ATOM     26  C   UNL     1       5.451   5.614  15.636  0.00  0.00    +0.000 C 
BRANCH  26  27
ATOM     27  O   UNL     1       4.921   6.862  16.085  0.00  0.00    +0.000 OA
ATOM     28  H   UNL     1       5.517   7.564  15.771  0.00  0.00    +0.000 HD
ENDBRANCH  26  27
ENDBRANCH  25  26
ENDBRANCH  24  25
BRANCH  24  29
ATOM     29  C   UNL     1       6.376   5.199  18.966  0.00  0.00    +0.000 C 
BRANCH  29  30
ATOM     30  C   UNL     1       7.788   5.738  19.265  0.00  0.00    +0.000 C 
BRANCH  30  31
ATOM     31  O   UNL     1       8.170   5.457  20.606  0.00  0.00    +0.000 OA
ATOM     32  H   UNL     1       8.966   5.988  20.784  0.00  0.00    +0.000 HD
ENDBRANCH  30  31
ENDBRANCH  29  30
ENDBRANCH  24  29
ENDBRANCH  23  24
ENDBRANCH   5  23
TORSDOF 10
ENDMDL
MODEL 4
REMARK VINA RESULT:      -7.9      1.485      1.818
REMARK  Name = 
REMARK  10 active torsions:
REMARK  status: ('A' for Active; 'I' for Inactive)
REMARK    1  A    between atoms: C_5  and  C_6
REMARK    2  A    between atoms: C_6  and  N_7
REMARK    3  A    between atoms: N_7  and  C_8
REMARK    4  A    between atoms: N_7  and  C_11
REMARK    5  A    between atoms: C_8  and  C_9
REMARK    6  A    between atoms: C_9  and  O_10
REMARK    7  A    between atoms: C_11  and  C_12
REMARK    8  A    between atoms: C_12  and  O_13
REMARK    9  A    between atoms: C_14  and  O_15
REMARK   10  A    between atoms: C_20  and  C_21
REMARK                            x       y       z     vdW  Elec       q    Type
REMARK                         _______ _______ _______ _____ _____    ______ ____
ROOT
ATOM      1  O   UNL     1       2.456   9.649  17.645  0.00  0.00    +0.000 OA
ATOM      2  C   UNL     1       2.393   8.566  18.221  0.00  0.00    +0.000 A 
ATOM      3  O   UNL     1       3.165   7.498  17.755  0.00  0.00    +0.000 OA
ATOM      4  C   UNL     1       3.310   6.296  18.480  0.00  0.00    +0.000 A 
ATOM      5  C   UNL     1       4.284   5.380  18.056  0.00  0.00    +0.000 A 
ATOM      6  C   UNL     1       4.557   4.309  18.914  0.00  0.00    +0.000 A 
ATOM      7  C   UNL     1       3.739   4.035  20.007  0.00  0.00    +0.000 A 
ATOM      8  C   UNL     1       2.693   4.899  20.330  0.00  0.00    +0.000 A 
ATOM      9  C   UNL     1       2.522   6.079  19.607  0.00  0.00    +0.000 A 
ATOM     10  C   UNL     1       1.593   7.113  20.030  0.00  0.00    +0.000 A 
ATOM     11  C   UNL     1       1.539   8.302  19.407  0.00  0.00    +0.000 A 
ENDROOT
BRANCH  11  12
ATOM     12  C   UNL     1       0.707   9.322  19.977  0.00  0.00    +0.000 A 
ATOM     13  N   UNL     1       0.510   9.502  21.274  0.00  0.00    +0.000 NA
ATOM     14  C   UNL     1      -0.301  10.593  21.520  0.00  0.00    +0.000 A 
ATOM     15  C   UNL     1      -0.667  11.098  22.786  0.00  0.00    +0.000 A 
ATOM     16  C   UNL     1      -1.495  12.223  22.876  0.00  0.00    +0.000 A 
ATOM     17  C   UNL     1      -1.956  12.849  21.721  0.00  0.00    +0.000 A 
ATOM     18  C   UNL     1      -1.609  12.369  20.459  0.00  0.00    +0.000 A 
ATOM     19  C   UNL     1      -0.785  11.237  20.379  0.00  0.00    +0.000 A 
ATOM     20  S   UNL     1      -0.212  10.408  18.989  0.00  0.00    +0.000 S 
ENDBRANCH  11  12
BRANCH   6  21
ATOM     21  O   UNL     1       5.609   3.462  18.704  0.00  0.00    +0.000 OA
ATOM     22  H   UNL     1       6.114   3.416  19.544  0.00  0.00    +0.000 HD
ENDBRANCH   6  21
BRANCH   5  23
ATOM     23  C   UNL     1       4.997   5.591  16.739  0.00  0.00    +0.000 C 
BRANCH  23  24
ATOM     24  N   UNL     1       6.452   5.237  16.741  0.00  0.00    +0.000 NA
BRANCH  24  25
ATOM     25  C   UNL     1       6.884   4.849  15.356  0.00  0.00    +0.000 C 
BRANCH  25  26
ATOM     26  C   UNL     1       5.814   4.177  14.472  0.00  0.00    +0.000 C 
BRANCH  26  27
ATOM     27  O   UNL     1       6.450   3.398  13.457  0.00  0.00    +0.000 OA
ATOM     28  H   UNL     1       6.972   4.005  12.905  0.00  0.00    +0.000 HD
ENDBRANCH  26  27
ENDBRANCH  25  26
ENDBRANCH  24  25
BRANCH  24  29
ATOM     29  C   UNL     1       7.241   6.437  17.160  0.00  0.00    +0.000 C 
BRANCH  29  30
ATOM     30  C   UNL     1       7.795   6.398  18.596  0.00  0.00    +0.000 C 
BRANCH  30  31
ATOM     31  O   UNL     1       8.012   5.059  19.026  0.00  0.00    +0.000 OA
ATOM     32  H   UNL     1       8.226   5.103  19.974  0.00  0.00    +0.000 HD
ENDBRANCH  30  31
ENDBRANCH  29  30
ENDBRANCH  24  29
ENDBRANCH  23  24
ENDBRANCH   5  23
TORSDOF 10
ENDMDL
MODEL 5
REMARK VINA RESULT:      -7.8      1.246      1.632
REMARK  Name = 
REMARK  10 active torsions:
REMARK  status: ('A' for Active; 'I' for Inactive)
REMARK    1  A    between atoms: C_5  and  C_6
REMARK    2  A    between atoms: C_6  and  N_7
REMARK    3  A    between atoms: N_7  and  C_8
REMARK    4  A    between atoms: N_7  and  C_11
REMARK    5  A    between atoms: C_8  and  C_9
REMARK    6  A    between atoms: C_9  and  O_10
REMARK    7  A    between atoms: C_11  and  C_12
REMARK    8  A    between atoms: C_12  and  O_13
REMARK    9  A    between atoms: C_14  and  O_15
REMARK   10  A    between atoms: C_20  and  C_21
REMARK                            x       y       z     vdW  Elec       q    Type
REMARK                         _______ _______ _______ _____ _____    ______ ____
ROOT
ATOM      1  O   UNL     1       2.888   8.454  18.134  0.00  0.00    +0.000 OA
ATOM      2  C   UNL     1       2.651   7.421  18.754  0.00  0.00    +0.000 A 
ATOM      3  O   UNL     1       3.278   6.233  18.369  0.00  0.00    +0.000 OA
ATOM      4  C   UNL     1       3.225   5.060  19.152  0.00  0.00    +0.000 A 
ATOM      5  C   UNL     1       4.071   3.995  18.809  0.00  0.00    +0.000 A 
ATOM      6  C   UNL     1       4.159   2.941  19.724  0.00  0.00    +0.000 A 
ATOM      7  C   UNL     1       3.275   2.840  20.794  0.00  0.00    +0.000 A 
ATOM      8  C   UNL     1       2.353   3.858  21.036  0.00  0.00    +0.000 A 
ATOM      9  C   UNL     1       2.377   5.013  20.254  0.00  0.00    +0.000 A 
ATOM     10  C   UNL     1       1.591   6.188  20.593  0.00  0.00    +0.000 A 
ATOM     11  C   UNL     1       1.729   7.340  19.915  0.00  0.00    +0.000 A 
ENDROOT
BRANCH  11  12
ATOM     12  C   UNL     1       1.033   8.494  20.405  0.00  0.00    +0.000 A 
ATOM     13  N   UNL     1       0.491   8.598  21.610  0.00  0.00    +0.000 NA
ATOM     14  C   UNL     1      -0.068   9.846  21.811  0.00  0.00    +0.000 A 
ATOM     15  C   UNL     1      -0.677  10.311  22.996  0.00  0.00    +0.000 A 
ATOM     16  C   UNL     1      -1.194  11.610  23.051  0.00  0.00    +0.000 A 
ATOM     17  C   UNL     1      -1.106  12.448  21.943  0.00  0.00    +0.000 A 
ATOM     18  C   UNL     1      -0.511  12.012  20.760  0.00  0.00    +0.000 A 
ATOM     19  C   UNL     1      -0.001  10.706  20.712  0.00  0.00    +0.000 A 
ATOM     20  S   UNL     1       0.759   9.885  19.410  0.00  0.00    +0.000 S 
ENDBRANCH  11  12
BRANCH   6  21
ATOM     21  O   UNL     1       5.086   1.944  19.595  0.00  0.00    +0.000 OA
ATOM     22  H   UNL     1       5.711   2.032  20.346  0.00  0.00    +0.000 HD
ENDBRANCH   6  21
BRANCH   5  23
ATOM     23  C   UNL     1       4.851   4.038  17.514  0.00  0.00    +0.000 C 
BRANCH  23  24
ATOM     24  N   UNL     1       6.331   4.209  17.669  0.00  0.00    +0.000 NA
BRANCH  24  25
ATOM     25  C   UNL     1       6.965   4.415  16.323  0.00  0.00    +0.000 C 
BRANCH  25  26
ATOM     26  C   UNL     1       6.005   4.439  15.115  0.00  0.00    +0.000 C 
BRANCH  26  27
ATOM     27  O   UNL     1       6.303   3.346  14.244  0.00  0.00    +0.000 OA
ATOM     28  H   UNL     1       5.979   2.534  14.670  0.00  0.00    +0.000 HD
ENDBRANCH  26  27
ENDBRANCH  25  26
ENDBRANCH  24  25
BRANCH  24  29
ATOM     29  C   UNL     1       6.593   5.423  18.502  0.00  0.00    +0.000 C 
BRANCH  29  30
ATOM     30  C   UNL     1       6.970   6.695  17.720  0.00  0.00    +0.000 C 
BRANCH  30  31
ATOM     31  O   UNL     1       5.809   7.412  17.316  0.00  0.00    +0.000 OA
ATOM     32  H   UNL     1       5.938   7.642  16.379  0.00  0.00    +0.000 HD
ENDBRANCH  30  31
ENDBRANCH  29  30
ENDBRANCH  24  29
ENDBRANCH  23  24
ENDBRANCH   5  23
TORSDOF 10
ENDMDL
MODEL 6
REMARK VINA RESULT:      -7.8      0.392      2.025
REMARK  Name = 
REMARK  10 active torsions:
REMARK  status: ('A' for Active; 'I' for Inactive)
REMARK    1  A    between atoms: C_5  and  C_6
REMARK    2  A    between atoms: C_6  and  N_7
REMARK    3  A    between atoms: N_7  and  C_8
REMARK    4  A    between atoms: N_7  and  C_11
REMARK    5  A    between atoms: C_8  and  C_9
REMARK    6  A    between atoms: C_9  and  O_10
REMARK    7  A    between atoms: C_11  and  C_12
REMARK    8  A    between atoms: C_12  and  O_13
REMARK    9  A    between atoms: C_14  and  O_15
REMARK   10  A    between atoms: C_20  and  C_21
REMARK                            x       y       z     vdW  Elec       q    Type
REMARK                         _______ _______ _______ _____ _____    ______ ____
ROOT
ATOM      1  O   UNL     1       2.817   8.544  18.223  0.00  0.00    +0.000 OA
ATOM      2  C   UNL     1       2.555   7.525  18.857  0.00  0.00    +0.000 A 
ATOM      3  O   UNL     1       3.172   6.322  18.502  0.00  0.00    +0.000 OA
ATOM      4  C   UNL     1       3.090   5.164  19.303  0.00  0.00    +0.000 A 
ATOM      5  C   UNL     1       3.927   4.081  18.994  0.00  0.00    +0.000 A 
ATOM      6  C   UNL     1       3.985   3.042  19.927  0.00  0.00    +0.000 A 
ATOM      7  C   UNL     1       3.081   2.971  20.984  0.00  0.00    +0.000 A 
ATOM      8  C   UNL     1       2.169   4.006  21.192  0.00  0.00    +0.000 A 
ATOM      9  C   UNL     1       2.222   5.147  20.392  0.00  0.00    +0.000 A 
ATOM     10  C   UNL     1       1.447   6.338  20.697  0.00  0.00    +0.000 A 
ATOM     11  C   UNL     1       1.612   7.476  20.003  0.00  0.00    +0.000 A 
ENDROOT
BRANCH  11  12
ATOM     12  C   UNL     1       0.924   8.648  20.461  0.00  0.00    +0.000 A 
ATOM     13  N   UNL     1       0.388   9.568  19.674  0.00  0.00    +0.000 NA
ATOM     14  C   UNL     1      -0.250  10.554  20.403  0.00  0.00    +0.000 A 
ATOM     15  C   UNL     1      -0.969  11.651  19.882  0.00  0.00    +0.000 A 
ATOM     16  C   UNL     1      -1.571  12.567  20.752  0.00  0.00    +0.000 A 
ATOM     17  C   UNL     1      -1.466  12.400  22.130  0.00  0.00    +0.000 A 
ATOM     18  C   UNL     1      -0.759  11.326  22.669  0.00  0.00    +0.000 A 
ATOM     19  C   UNL     1      -0.155  10.416  21.790  0.00  0.00    +0.000 A 
ATOM     20  S   UNL     1       0.787   9.025  22.146  0.00  0.00    +0.000 S 
ENDBRANCH  11  12
BRANCH   6  21
ATOM     21  O   UNL     1       4.900   2.031  19.831  0.00  0.00    +0.000 OA
ATOM     22  H   UNL     1       4.430   1.195  20.041  0.00  0.00    +0.000 HD
ENDBRANCH   6  21
BRANCH   5  23
ATOM     23  C   UNL     1       4.729   4.092  17.711  0.00  0.00    +0.000 C 
BRANCH  23  24
ATOM     24  N   UNL     1       5.901   5.024  17.703  0.00  0.00    +0.000 NA
BRANCH  24  25
ATOM     25  C   UNL     1       6.403   5.225  19.104  0.00  0.00    +0.000 C 
BRANCH  25  26
ATOM     26  C   UNL     1       7.893   5.600  19.246  0.00  0.00    +0.000 C 
BRANCH  26  27
ATOM     27  O   UNL     1       8.307   5.413  20.601  0.00  0.00    +0.000 OA
ATOM     28  H   UNL     1       7.711   4.757  21.002  0.00  0.00    +0.000 HD
ENDBRANCH  26  27
ENDBRANCH  25  26
ENDBRANCH  24  25
BRANCH  24  29
ATOM     29  C   UNL     1       7.000   4.412  16.894  0.00  0.00    +0.000 C 
BRANCH  29  30
ATOM     30  C   UNL     1       6.937   4.682  15.379  0.00  0.00    +0.000 C 
BRANCH  30  31
ATOM     31  O   UNL     1       6.314   5.932  15.106  0.00  0.00    +0.000 OA
ATOM     32  H   UNL     1       6.984   6.486  14.669  0.00  0.00    +0.000 HD
ENDBRANCH  30  31
ENDBRANCH  29  30
ENDBRANCH  24  29
ENDBRANCH  23  24
ENDBRANCH   5  23
TORSDOF 10
ENDMDL
MODEL 7
REMARK VINA RESULT:      -7.8      1.151      1.172
REMARK  Name = 
REMARK  10 active torsions:
REMARK  status: ('A' for Active; 'I' for Inactive)
REMARK    1  A    between atoms: C_5  and  C_6
REMARK    2  A    between atoms: C_6  and  N_7
REMARK    3  A    between atoms: N_7  and  C_8
REMARK    4  A    between atoms: N_7  and  C_11
REMARK    5  A    between atoms: C_8  and  C_9
REMARK    6  A    between atoms: C_9  and  O_10
REMARK    7  A    between atoms: C_11  and  C_12
REMARK    8  A    between atoms: C_12  and  O_13
REMARK    9  A    between atoms: C_14  and  O_15
REMARK   10  A    between atoms: C_20  and  C_21
REMARK                            x       y       z     vdW  Elec       q    Type
REMARK                         _______ _______ _______ _____ _____    ______ ____
ROOT
ATOM      1  O   UNL     1       2.509   9.281  17.755  0.00  0.00    +0.000 OA
ATOM      2  C   UNL     1       2.398   8.231  18.382  0.00  0.00    +0.000 A 
ATOM      3  O   UNL     1       3.084   7.096  17.941  0.00  0.00    +0.000 OA
ATOM      4  C   UNL     1       3.179   5.920  18.715  0.00  0.00    +0.000 A 
ATOM      5  C   UNL     1       4.077   4.925  18.303  0.00  0.00    +0.000 A 
ATOM      6  C   UNL     1       4.312   3.877  19.199  0.00  0.00    +0.000 A 
ATOM      7  C   UNL     1       3.518   3.705  20.330  0.00  0.00    +0.000 A 
ATOM      8  C   UNL     1       2.541   4.648  20.647  0.00  0.00    +0.000 A 
ATOM      9  C   UNL     1       2.420   5.804  19.876  0.00  0.00    +0.000 A 
ATOM     10  C   UNL     1       1.573   6.914  20.281  0.00  0.00    +0.000 A 
ATOM     11  C   UNL     1       1.572   8.075  19.606  0.00  0.00    +0.000 A 
ENDROOT
BRANCH  11  12
ATOM     12  C   UNL     1       0.827   9.170  20.155  0.00  0.00    +0.000 A 
ATOM     13  N   UNL     1       0.064   9.996  19.454  0.00  0.00    +0.000 NA
ATOM     14  C   UNL     1      -0.565  10.921  20.264  0.00  0.00    +0.000 A 
ATOM     15  C   UNL     1      -1.486  11.908  19.853  0.00  0.00    +0.000 A 
ATOM     16  C   UNL     1      -2.050  12.773  20.798  0.00  0.00    +0.000 A 
ATOM     17  C   UNL     1      -1.709  12.662  22.143  0.00  0.00    +0.000 A 
ATOM     18  C   UNL     1      -0.800  11.697  22.574  0.00  0.00    +0.000 A 
ATOM     19  C   UNL     1      -0.236  10.838  21.619  0.00  0.00    +0.000 A 
ATOM     20  S   UNL     1       0.913   9.581  21.836  0.00  0.00    +0.000 S 
ENDBRANCH  11  12
BRANCH   6  21
ATOM     21  O   UNL     1       5.301   2.955  18.995  0.00  0.00    +0.000 OA
ATOM     22  H   UNL     1       6.090   3.445  18.678  0.00  0.00    +0.000 HD
ENDBRANCH   6  21
BRANCH   5  23
ATOM     23  C   UNL     1       4.755   5.032  16.955  0.00  0.00    +0.000 C 
BRANCH  23  24
ATOM     24  N   UNL     1       6.252   4.990  16.991  0.00  0.00    +0.000 NA
BRANCH  24  25
ATOM     25  C   UNL     1       6.794   4.923  15.593  0.00  0.00    +0.000 C 
BRANCH  25  26
ATOM     26  C   UNL     1       5.802   4.481  14.498  0.00  0.00    +0.000 C 
BRANCH  26  27
ATOM     27  O   UNL     1       6.303   3.316  13.839  0.00  0.00    +0.000 OA
ATOM     28  H   UNL     1       6.407   3.534  12.896  0.00  0.00    +0.000 HD
ENDBRANCH  26  27
ENDBRANCH  25  26
ENDBRANCH  24  25
BRANCH  24  29
ATOM     29  C   UNL     1       6.754   6.246  17.630  0.00  0.00    +0.000 C 
BRANCH  29  30
ATOM     30  C   UNL     1       7.708   6.047  18.822  0.00  0.00    +0.000 C 
BRANCH  30  31
ATOM     31  O   UNL     1       8.524   7.195  19.023  0.00  0.00    +0.000 OA
ATOM     32  H   UNL     1       9.386   6.996  18.618  0.00  0.00    +0.000 HD
ENDBRANCH  30  31
ENDBRANCH  29  30
ENDBRANCH  24  29
ENDBRANCH  23  24
ENDBRANCH   5  23
TORSDOF 10
ENDMDL
MODEL 8
REMARK VINA RESULT:      -7.7      1.071      1.109
REMARK  Name = 
REMARK  10 active torsions:
REMARK  status: ('A' for Active; 'I' for Inactive)
REMARK    1  A    between atoms: C_5  and  C_6
REMARK    2  A    between atoms: C_6  and  N_7
REMARK    3  A    between atoms: N_7  and  C_8
REMARK    4  A    between atoms: N_7  and  C_11
REMARK    5  A    between atoms: C_8  and  C_9
REMARK    6  A    between atoms: C_9  and  O_10
REMARK    7  A    between atoms: C_11  and  C_12
REMARK    8  A    between atoms: C_12  and  O_13
REMARK    9  A    between atoms: C_14  and  O_15
REMARK   10  A    between atoms: C_20  and  C_21
REMARK                            x       y       z     vdW  Elec       q    Type
REMARK                         _______ _______ _______ _____ _____    ______ ____
ROOT
ATOM      1  O   UNL     1       2.334   9.150  18.343  0.00  0.00    +0.000 OA
ATOM      2  C   UNL     1       2.179   8.088  18.940  0.00  0.00    +0.000 A 
ATOM      3  O   UNL     1       2.730   6.919  18.410  0.00  0.00    +0.000 OA
ATOM      4  C   UNL     1       2.780   5.709  19.134  0.00  0.00    +0.000 A 
ATOM      5  C   UNL     1       3.556   4.659  18.621  0.00  0.00    +0.000 A 
ATOM      6  C   UNL     1       3.765   3.560  19.460  0.00  0.00    +0.000 A 
ATOM      7  C   UNL     1       3.044   3.409  20.642  0.00  0.00    +0.000 A 
ATOM      8  C   UNL     1       2.177   4.417  21.064  0.00  0.00    +0.000 A 
ATOM      9  C   UNL     1       2.100   5.609  20.344  0.00  0.00    +0.000 A 
ATOM     10  C   UNL     1       1.384   6.769  20.851  0.00  0.00    +0.000 A 
ATOM     11  C   UNL     1       1.434   7.952  20.217  0.00  0.00    +0.000 A 
ENDROOT
BRANCH  11  12
ATOM     12  C   UNL     1       0.828   9.083  20.859  0.00  0.00    +0.000 A 
ATOM     13  N   UNL     1       1.105  10.349  20.583  0.00  0.00    +0.000 NA
ATOM     14  C   UNL     1       0.328  11.214  21.330  0.00  0.00    +0.000 A 
ATOM     15  C   UNL     1       0.326  12.623  21.247  0.00  0.00    +0.000 A 
ATOM     16  C   UNL     1      -0.528  13.369  22.067  0.00  0.00    +0.000 A 
ATOM     17  C   UNL     1      -1.379  12.727  22.962  0.00  0.00    +0.000 A 
ATOM     18  C   UNL     1      -1.395  11.336  23.064  0.00  0.00    +0.000 A 
ATOM     19  C   UNL     1      -0.531  10.598  22.242  0.00  0.00    +0.000 A 
ATOM     20  S   UNL     1      -0.308   8.898  22.153  0.00  0.00    +0.000 S 
ENDBRANCH  11  12
BRANCH   6  21
ATOM     21  O   UNL     1       4.653   2.568  19.149  0.00  0.00    +0.000 OA
ATOM     22  H   UNL     1       4.538   2.367  18.196  0.00  0.00    +0.000 HD
ENDBRANCH   6  21
BRANCH   5  23
ATOM     23  C   UNL     1       4.140   4.764  17.229  0.00  0.00    +0.000 C 
BRANCH  23  24
ATOM     24  N   UNL     1       5.632   4.885  17.174  0.00  0.00    +0.000 NA
BRANCH  24  25
ATOM     25  C   UNL     1       6.046   5.517  15.876  0.00  0.00    +0.000 C 
BRANCH  25  26
ATOM     26  C   UNL     1       6.955   4.668  14.964  0.00  0.00    +0.000 C 
BRANCH  26  27
ATOM     27  O   UNL     1       7.905   5.514  14.313  0.00  0.00    +0.000 OA
ATOM     28  H   UNL     1       7.833   6.398  14.714  0.00  0.00    +0.000 HD
ENDBRANCH  26  27
ENDBRANCH  25  26
ENDBRANCH  24  25
BRANCH  24  29
ATOM     29  C   UNL     1       6.087   5.767  18.293  0.00  0.00    +0.000 C 
BRANCH  29  30
ATOM     30  C   UNL     1       7.548   5.573  18.739  0.00  0.00    +0.000 C 
BRANCH  30  31
ATOM     31  O   UNL     1       7.644   5.481  20.155  0.00  0.00    +0.000 OA
ATOM     32  H   UNL     1       8.530   5.804  20.394  0.00  0.00    +0.000 HD
ENDBRANCH  30  31
ENDBRANCH  29  30
ENDBRANCH  24  29
ENDBRANCH  23  24
ENDBRANCH   5  23
TORSDOF 10
ENDMDL
MODEL 9
REMARK VINA RESULT:      -7.6      1.360      2.023
REMARK  Name = 
REMARK  10 active torsions:
REMARK  status: ('A' for Active; 'I' for Inactive)
REMARK    1  A    between atoms: C_5  and  C_6
REMARK    2  A    between atoms: C_6  and  N_7
REMARK    3  A    between atoms: N_7  and  C_8
REMARK    4  A    between atoms: N_7  and  C_11
REMARK    5  A    between atoms: C_8  and  C_9
REMARK    6  A    between atoms: C_9  and  O_10
REMARK    7  A    between atoms: C_11  and  C_12
REMARK    8  A    between atoms: C_12  and  O_13
REMARK    9  A    between atoms: C_14  and  O_15
REMARK   10  A    between atoms: C_20  and  C_21
REMARK                            x       y       z     vdW  Elec       q    Type
REMARK                         _______ _______ _______ _____ _____    ______ ____
ROOT
ATOM      1  O   UNL     1       2.329   8.999  18.091  0.00  0.00    +0.000 OA
ATOM      2  C   UNL     1       2.210   7.956  18.729  0.00  0.00    +0.000 A 
ATOM      3  O   UNL     1       2.736   6.771  18.206  0.00  0.00    +0.000 OA
ATOM      4  C   UNL     1       2.829   5.585  18.964  0.00  0.00    +0.000 A 
ATOM      5  C   UNL     1       3.579   4.521  18.443  0.00  0.00    +0.000 A 
ATOM      6  C   UNL     1       3.837   3.450  19.304  0.00  0.00    +0.000 A 
ATOM      7  C   UNL     1       3.183   3.335  20.527  0.00  0.00    +0.000 A 
ATOM      8  C   UNL     1       2.338   4.355  20.965  0.00  0.00    +0.000 A 
ATOM      9  C   UNL     1       2.217   5.523  20.213  0.00  0.00    +0.000 A 
ATOM     10  C   UNL     1       1.526   6.697  20.722  0.00  0.00    +0.000 A 
ATOM     11  C   UNL     1       1.537   7.860  20.049  0.00  0.00    +0.000 A 
ENDROOT
BRANCH  11  12
ATOM     12  C   UNL     1       0.964   9.010  20.687  0.00  0.00    +0.000 A 
ATOM     13  N   UNL     1       1.261  10.267  20.392  0.00  0.00    +0.000 NA
ATOM     14  C   UNL     1       0.513  11.156  21.140  0.00  0.00    +0.000 A 
ATOM     15  C   UNL     1       0.538  12.563  21.042  0.00  0.00    +0.000 A 
ATOM     16  C   UNL     1      -0.289  13.335  21.867  0.00  0.00    +0.000 A 
ATOM     17  C   UNL     1      -1.137  12.720  22.783  0.00  0.00    +0.000 A 
ATOM     18  C   UNL     1      -1.179  11.331  22.901  0.00  0.00    +0.000 A 
ATOM     19  C   UNL     1      -0.343  10.566  22.074  0.00  0.00    +0.000 A 
ATOM     20  S   UNL     1      -0.154   8.861  22.001  0.00  0.00    +0.000 S 
ENDBRANCH  11  12
BRANCH   6  21
ATOM     21  O   UNL     1       4.710   2.450  18.976  0.00  0.00    +0.000 OA
ATOM     22  H   UNL     1       4.415   2.080  18.116  0.00  0.00    +0.000 HD
ENDBRANCH   6  21
BRANCH   5  23
ATOM     23  C   UNL     1       4.085   4.583  17.018  0.00  0.00    +0.000 C 
BRANCH  23  24
ATOM     24  N   UNL     1       5.105   5.647  16.752  0.00  0.00    +0.000 NA
BRANCH  24  25
ATOM     25  C   UNL     1       6.372   5.338  17.496  0.00  0.00    +0.000 C 
BRANCH  25  26
ATOM     26  C   UNL     1       7.182   6.552  17.995  0.00  0.00    +0.000 C 
BRANCH  26  27
ATOM     27  O   UNL     1       7.842   7.175  16.891  0.00  0.00    +0.000 OA
ATOM     28  H   UNL     1       7.589   6.689  16.086  0.00  0.00    +0.000 HD
ENDBRANCH  26  27
ENDBRANCH  25  26
ENDBRANCH  24  25
BRANCH  24  29
ATOM     29  C   UNL     1       5.412   5.666  15.289  0.00  0.00    +0.000 C 
BRANCH  29  30
ATOM     30  C   UNL     1       6.491   4.670  14.825  0.00  0.00    +0.000 C 
BRANCH  30  31
ATOM     31  O   UNL     1       7.645   5.350  14.346  0.00  0.00    +0.000 OA
ATOM     32  H   UNL     1       7.763   5.079  13.420  0.00  0.00    +0.000 HD
ENDBRANCH  30  31
ENDBRANCH  29  30
ENDBRANCH  24  29
ENDBRANCH  23  24
ENDBRANCH   5  23
TORSDOF 10
ENDMDL
