MODEL 1
REMARK VINA RESULT:      -8.5      0.000      0.000
REMARK  Name = 
REMARK  3 active torsions:
REMARK  status: ('A' for Active; 'I' for Inactive)
REMARK    1  A    between atoms: C_2  and  C_3
REMARK    2  A    between atoms: C_18  and  O_19
REMARK    3  A    between atoms: O_19  and  C_20
REMARK                            x       y       z     vdW  Elec       q    Type
REMARK                         _______ _______ _______ _____ _____    ______ ____
ROOT
ATOM      1  O   UNL     1       3.301   6.855  17.240  0.00  0.00    +0.000 OA
ATOM      2  C   UNL     1       3.693   5.742  17.586  0.00  0.00    +0.000 C 
ATOM      3  N   UNL     1       2.929   4.925  18.448  0.00  0.00    +0.000 N 
ATOM      4  C   UNL     1       3.341   3.600  18.910  0.00  0.00    +0.000 C 
ATOM      5  C   UNL     1       2.965   3.352  20.356  0.00  0.00    +0.000 C 
ATOM      6  C   UNL     1       1.504   3.656  20.568  0.00  0.00    +0.000 C 
ATOM      7  F   UNL     1       1.193   3.369  21.858  0.00  0.00    +0.000 F 
ATOM      8  F   UNL     1       0.763   2.787  19.821  0.00  0.00    +0.000 F 
ATOM      9  C   UNL     1       1.134   5.092  20.186  0.00  0.00    +0.000 C 
ATOM     10  C   UNL     1       1.528   5.295  18.713  0.00  0.00    +0.000 C 
ENDROOT
BRANCH   2  11
ATOM     11  C   UNL     1       4.999   5.238  17.068  0.00  0.00    +0.000 A 
ATOM     12  N   UNL     1       5.041   4.772  15.774  0.00  0.00    +0.000 NA
ATOM     13  C   UNL     1       6.175   4.214  15.301  0.00  0.00    +0.000 A 
ATOM     14  C   UNL     1       7.361   4.115  16.006  0.00  0.00    +0.000 A 
ATOM     15  C   UNL     1       7.323   4.663  17.285  0.00  0.00    +0.000 A 
ATOM     16  N   UNL     1       8.286   4.786  18.256  0.00  0.00    +0.000 N 
ATOM     17  C   UNL     1       7.714   5.374  19.344  0.00  0.00    +0.000 A 
ATOM     18  N   UNL     1       6.442   5.626  19.143  0.00  0.00    +0.000 NA
ATOM     19  C   UNL     1       6.170   5.221  17.848  0.00  0.00    +0.000 A 
ATOM     20  H   UNL     1       9.251   4.497  18.177  0.00  0.00    +0.000 HD
ENDBRANCH   2  11
BRANCH   9  21
ATOM     21  O   UNL     1       1.873   6.086  20.923  0.00  0.00    +0.000 OA
BRANCH  21  22
ATOM     22  C   UNL     1       1.339   7.352  20.898  0.00  0.00    +0.000 A 
ATOM     23  C   UNL     1       1.696   8.140  19.819  0.00  0.00    +0.000 A 
ATOM     24  C   UNL     1       1.252   9.454  19.795  0.00  0.00    +0.000 A 
ATOM     25  C   UNL     1       0.480   9.943  20.856  0.00  0.00    +0.000 A 
ATOM     26  C   UNL     1       0.042  11.278  20.899  0.00  0.00    +0.000 A 
ATOM     27  C   UNL     1      -0.711  11.739  21.979  0.00  0.00    +0.000 A 
ATOM     28  C   UNL     1      -1.032  10.866  23.012  0.00  0.00    +0.000 A 
ATOM     29  C   UNL     1      -0.595   9.536  22.964  0.00  0.00    +0.000 A 
ATOM     30  C   UNL     1       0.161   9.055  21.906  0.00  0.00    +0.000 A 
ATOM     31  N   UNL     1       0.570   7.773  21.917  0.00  0.00    +0.000 NA
ENDBRANCH  21  22
ENDBRANCH   9  21
TORSDOF 3
ENDMDL
MODEL 2
REMARK VINA RESULT:      -8.5      0.828      1.610
REMARK  Name = 
REMARK  3 active torsions:
REMARK  status: ('A' for Active; 'I' for Inactive)
REMARK    1  A    between atoms: C_2  and  C_3
REMARK    2  A    between atoms: C_18  and  O_19
REMARK    3  A    between atoms: O_19  and  C_20
REMARK                            x       y       z     vdW  Elec       q    Type
REMARK                         _______ _______ _______ _____ _____    ______ ____
ROOT
ATOM      1  O   UNL     1       3.324   6.930  17.378  0.00  0.00    +0.000 OA
ATOM      2  C   UNL     1       3.730   5.823  17.728  0.00  0.00    +0.000 C 
ATOM      3  N   UNL     1       2.954   4.978  18.551  0.00  0.00    +0.000 N 
ATOM      4  C   UNL     1       3.381   3.659  19.017  0.00  0.00    +0.000 C 
ATOM      5  C   UNL     1       2.955   3.386  20.444  0.00  0.00    +0.000 C 
ATOM      6  C   UNL     1       1.479   3.652  20.600  0.00  0.00    +0.000 C 
ATOM      7  F   UNL     1       1.125   3.343  21.874  0.00  0.00    +0.000 F 
ATOM      8  F   UNL     1       0.791   2.772  19.816  0.00  0.00    +0.000 F 
ATOM      9  C   UNL     1       1.088   5.082  20.218  0.00  0.00    +0.000 C 
ATOM     10  C   UNL     1       1.534   5.311  18.764  0.00  0.00    +0.000 C 
ENDROOT
BRANCH   2  11
ATOM     11  C   UNL     1       5.068   5.358  17.257  0.00  0.00    +0.000 A 
ATOM     12  N   UNL     1       5.188   4.971  15.943  0.00  0.00    +0.000 NA
ATOM     13  C   UNL     1       6.352   4.448  15.504  0.00  0.00    +0.000 A 
ATOM     14  C   UNL     1       7.497   4.313  16.269  0.00  0.00    +0.000 A 
ATOM     15  C   UNL     1       7.380   4.782  17.574  0.00  0.00    +0.000 A 
ATOM     16  N   UNL     1       8.285   4.851  18.605  0.00  0.00    +0.000 N 
ATOM     17  C   UNL     1       7.646   5.370  19.691  0.00  0.00    +0.000 A 
ATOM     18  N   UNL     1       6.386   5.627  19.432  0.00  0.00    +0.000 NA
ATOM     19  C   UNL     1       6.193   5.300  18.101  0.00  0.00    +0.000 A 
ATOM     20  H   UNL     1       9.255   4.573  18.565  0.00  0.00    +0.000 HD
ENDBRANCH   2  11
BRANCH   9  21
ATOM     21  O   UNL     1       1.772   6.086  20.994  0.00  0.00    +0.000 OA
BRANCH  21  22
ATOM     22  C   UNL     1       1.256   7.355  20.896  0.00  0.00    +0.000 A 
ATOM     23  C   UNL     1       0.249   7.672  21.789  0.00  0.00    +0.000 A 
ATOM     24  C   UNL     1      -0.364   8.911  21.671  0.00  0.00    +0.000 A 
ATOM     25  C   UNL     1       0.039   9.787  20.656  0.00  0.00    +0.000 A 
ATOM     26  C   UNL     1      -0.579  11.036  20.469  0.00  0.00    +0.000 A 
ATOM     27  C   UNL     1      -0.167  11.879  19.437  0.00  0.00    +0.000 A 
ATOM     28  C   UNL     1       0.865  11.478  18.596  0.00  0.00    +0.000 A 
ATOM     29  C   UNL     1       1.479  10.234  18.788  0.00  0.00    +0.000 A 
ATOM     30  C   UNL     1       1.083   9.374  19.801  0.00  0.00    +0.000 A 
ATOM     31  N   UNL     1       1.694   8.183  19.931  0.00  0.00    +0.000 NA
ENDBRANCH  21  22
ENDBRANCH   9  21
TORSDOF 3
ENDMDL
MODEL 3
REMARK VINA RESULT:      -8.1      4.907      8.934
REMARK  Name = 
REMARK  3 active torsions:
REMARK  status: ('A' for Active; 'I' for Inactive)
REMARK    1  A    between atoms: C_2  and  C_3
REMARK    2  A    between atoms: C_18  and  O_19
REMARK    3  A    between atoms: O_19  and  C_20
REMARK                            x       y       z     vdW  Elec       q    Type
REMARK                         _______ _______ _______ _____ _____    ______ ____
ROOT
ATOM      1  O   UNL     1       2.180  13.028  21.220  0.00  0.00    +0.000 OA
ATOM      2  C   UNL     1       1.353  13.430  20.403  0.00  0.00    +0.000 C 
ATOM      3  N   UNL     1       0.397  12.562  19.834  0.00  0.00    +0.000 N 
ATOM      4  C   UNL     1      -0.604  12.969  18.847  0.00  0.00    +0.000 C 
ATOM      5  C   UNL     1      -0.827  11.913  17.784  0.00  0.00    +0.000 C 
ATOM      6  C   UNL     1      -1.101  10.579  18.433  0.00  0.00    +0.000 C 
ATOM      7  F   UNL     1      -1.352   9.674  17.453  0.00  0.00    +0.000 F 
ATOM      8  F   UNL     1      -2.264  10.669  19.141  0.00  0.00    +0.000 F 
ATOM      9  C   UNL     1       0.026  10.129  19.368  0.00  0.00    +0.000 C 
ATOM     10  C   UNL     1       0.212  11.227  20.429  0.00  0.00    +0.000 C 
ENDROOT
BRANCH   2  11
ATOM     11  C   UNL     1       1.353  14.873  20.019  0.00  0.00    +0.000 A 
ATOM     12  N   UNL     1       0.555  15.730  20.741  0.00  0.00    +0.000 NA
ATOM     13  C   UNL     1       0.447  17.020  20.362  0.00  0.00    +0.000 A 
ATOM     14  C   UNL     1       1.134  17.596  19.309  0.00  0.00    +0.000 A 
ATOM     15  C   UNL     1       1.996  16.733  18.639  0.00  0.00    +0.000 A 
ATOM     16  N   UNL     1       2.856  16.933  17.587  0.00  0.00    +0.000 N 
ATOM     17  C   UNL     1       3.447  15.741  17.293  0.00  0.00    +0.000 A 
ATOM     18  N   UNL     1       3.015  14.783  18.079  0.00  0.00    +0.000 NA
ATOM     19  C   UNL     1       2.126  15.377  18.957  0.00  0.00    +0.000 A 
ATOM     20  H   UNL     1       3.025  17.811  17.116  0.00  0.00    +0.000 HD
ENDBRANCH   2  11
BRANCH   9  21
ATOM     21  O   UNL     1       1.301  10.012  18.706  0.00  0.00    +0.000 OA
BRANCH  21  22
ATOM     22  C   UNL     1       1.889   8.772  18.783  0.00  0.00    +0.000 A 
ATOM     23  C   UNL     1       2.714   8.425  17.728  0.00  0.00    +0.000 A 
ATOM     24  C   UNL     1       3.260   7.150  17.718  0.00  0.00    +0.000 A 
ATOM     25  C   UNL     1       2.952   6.258  18.752  0.00  0.00    +0.000 A 
ATOM     26  C   UNL     1       3.446   4.942  18.766  0.00  0.00    +0.000 A 
ATOM     27  C   UNL     1       3.107   4.072  19.801  0.00  0.00    +0.000 A 
ATOM     28  C   UNL     1       2.280   4.517  20.827  0.00  0.00    +0.000 A 
ATOM     29  C   UNL     1       1.793   5.830  20.811  0.00  0.00    +0.000 A 
ATOM     30  C   UNL     1       2.108   6.712  19.788  0.00  0.00    +0.000 A 
ATOM     31  N   UNL     1       1.599   7.957  19.812  0.00  0.00    +0.000 NA
ENDBRANCH  21  22
ENDBRANCH   9  21
TORSDOF 3
ENDMDL
MODEL 4
REMARK VINA RESULT:      -8.1      1.049      2.435
REMARK  Name = 
REMARK  3 active torsions:
REMARK  status: ('A' for Active; 'I' for Inactive)
REMARK    1  A    between atoms: C_2  and  C_3
REMARK    2  A    between atoms: C_18  and  O_19
REMARK    3  A    between atoms: O_19  and  C_20
REMARK                            x       y       z     vdW  Elec       q    Type
REMARK                         _______ _______ _______ _____ _____    ______ ____
ROOT
ATOM      1  O   UNL     1       3.491   6.786  17.544  0.00  0.00    +0.000 OA
ATOM      2  C   UNL     1       3.884   5.686  17.928  0.00  0.00    +0.000 C 
ATOM      3  N   UNL     1       3.068   4.845  18.716  0.00  0.00    +0.000 N 
ATOM      4  C   UNL     1       3.477   3.533  19.219  0.00  0.00    +0.000 C 
ATOM      5  C   UNL     1       2.973   3.273  20.623  0.00  0.00    +0.000 C 
ATOM      6  C   UNL     1       1.489   3.531  20.694  0.00  0.00    +0.000 C 
ATOM      7  F   UNL     1       1.066   3.233  21.950  0.00  0.00    +0.000 F 
ATOM      8  F   UNL     1       0.852   2.638  19.882  0.00  0.00    +0.000 F 
ATOM      9  C   UNL     1       1.111   4.954  20.274  0.00  0.00    +0.000 C 
ATOM     10  C   UNL     1       1.637   5.170  18.845  0.00  0.00    +0.000 C 
ENDROOT
BRANCH   2  11
ATOM     11  C   UNL     1       5.249   5.225  17.538  0.00  0.00    +0.000 A 
ATOM     12  N   UNL     1       6.230   5.229  18.504  0.00  0.00    +0.000 NA
ATOM     13  C   UNL     1       7.499   4.919  18.168  0.00  0.00    +0.000 A 
ATOM     14  C   UNL     1       7.911   4.527  16.907  0.00  0.00    +0.000 A 
ATOM     15  C   UNL     1       6.892   4.453  15.962  0.00  0.00    +0.000 A 
ATOM     16  N   UNL     1       6.896   4.080  14.640  0.00  0.00    +0.000 N 
ATOM     17  C   UNL     1       5.628   4.218  14.160  0.00  0.00    +0.000 A 
ATOM     18  N   UNL     1       4.810   4.668  15.081  0.00  0.00    +0.000 NA
ATOM     19  C   UNL     1       5.564   4.797  16.235  0.00  0.00    +0.000 A 
ATOM     20  H   UNL     1       7.696   3.754  14.116  0.00  0.00    +0.000 HD
ENDBRANCH   2  11
BRANCH   9  21
ATOM     21  O   UNL     1       1.745   5.971  21.076  0.00  0.00    +0.000 OA
BRANCH  21  22
ATOM     22  C   UNL     1       1.264   7.245  20.894  0.00  0.00    +0.000 A 
ATOM     23  C   UNL     1       0.216   7.621  21.714  0.00  0.00    +0.000 A 
ATOM     24  C   UNL     1      -0.361   8.866  21.508  0.00  0.00    +0.000 A 
ATOM     25  C   UNL     1       0.118   9.688  20.481  0.00  0.00    +0.000 A 
ATOM     26  C   UNL     1      -0.459  10.940  20.205  0.00  0.00    +0.000 A 
ATOM     27  C   UNL     1       0.029  11.728  19.163  0.00  0.00    +0.000 A 
ATOM     28  C   UNL     1       1.098  11.269  18.401  0.00  0.00    +0.000 A 
ATOM     29  C   UNL     1       1.672  10.022  18.681  0.00  0.00    +0.000 A 
ATOM     30  C   UNL     1       1.199   9.216  19.706  0.00  0.00    +0.000 A 
ATOM     31  N   UNL     1       1.775   8.020  19.922  0.00  0.00    +0.000 NA
ENDBRANCH  21  22
ENDBRANCH   9  21
TORSDOF 3
ENDMDL
MODEL 5
REMARK VINA RESULT:      -8.1      4.976     10.556
REMARK  Name = 
REMARK  3 active torsions:
REMARK  status: ('A' for Active; 'I' for Inactive)
REMARK    1  A    between atoms: C_2  and  C_3
REMARK    2  A    between atoms: C_18  and  O_19
REMARK    3  A    between atoms: O_19  and  C_20
REMARK                            x       y       z     vdW  Elec       q    Type
REMARK                         _______ _______ _______ _____ _____    ______ ____
ROOT
ATOM      1  O   UNL     1      -3.544  12.208  19.537  0.00  0.00    +0.000 OA
ATOM      2  C   UNL     1      -2.946  13.063  20.188  0.00  0.00    +0.000 C 
ATOM      3  N   UNL     1      -1.576  13.330  19.973  0.00  0.00    +0.000 N 
ATOM      4  C   UNL     1      -0.801  14.320  20.721  0.00  0.00    +0.000 C 
ATOM      5  C   UNL     1       0.606  13.844  21.018  0.00  0.00    +0.000 C 
ATOM      6  C   UNL     1       1.267  13.366  19.750  0.00  0.00    +0.000 C 
ATOM      7  F   UNL     1       2.541  13.002  20.046  0.00  0.00    +0.000 F 
ATOM      8  F   UNL     1       1.388  14.423  18.895  0.00  0.00    +0.000 F 
ATOM      9  C   UNL     1       0.486  12.244  19.058  0.00  0.00    +0.000 C 
ATOM     10  C   UNL     1      -0.929  12.773  18.772  0.00  0.00    +0.000 C 
ENDROOT
BRANCH   2  11
ATOM     11  C   UNL     1      -3.692  13.846  21.217  0.00  0.00    +0.000 A 
ATOM     12  N   UNL     1      -4.182  15.080  20.856  0.00  0.00    +0.000 NA
ATOM     13  C   UNL     1      -4.771  15.862  21.783  0.00  0.00    +0.000 A 
ATOM     14  C   UNL     1      -4.986  15.502  23.102  0.00  0.00    +0.000 A 
ATOM     15  C   UNL     1      -4.554  14.220  23.430  0.00  0.00    +0.000 A 
ATOM     16  N   UNL     1      -4.619  13.504  24.600  0.00  0.00    +0.000 N 
ATOM     17  C   UNL     1      -4.016  12.301  24.392  0.00  0.00    +0.000 A 
ATOM     18  N   UNL     1      -3.554  12.199  23.168  0.00  0.00    +0.000 NA
ATOM     19  C   UNL     1      -3.903  13.374  22.526  0.00  0.00    +0.000 A 
ATOM     20  H   UNL     1      -5.045  13.813  25.463  0.00  0.00    +0.000 HD
ENDBRANCH   2  11
BRANCH   9  21
ATOM     21  O   UNL     1       0.303  11.082  19.891  0.00  0.00    +0.000 OA
BRANCH  21  22
ATOM     22  C   UNL     1       1.013   9.970  19.509  0.00  0.00    +0.000 A 
ATOM     23  C   UNL     1       1.560  10.005  18.240  0.00  0.00    +0.000 A 
ATOM     24  C   UNL     1       2.211   8.870  17.777  0.00  0.00    +0.000 A 
ATOM     25  C   UNL     1       2.282   7.734  18.591  0.00  0.00    +0.000 A 
ATOM     26  C   UNL     1       2.893   6.546  18.153  0.00  0.00    +0.000 A 
ATOM     27  C   UNL     1       2.932   5.425  18.981  0.00  0.00    +0.000 A 
ATOM     28  C   UNL     1       2.366   5.490  20.249  0.00  0.00    +0.000 A 
ATOM     29  C   UNL     1       1.759   6.677  20.683  0.00  0.00    +0.000 A 
ATOM     30  C   UNL     1       1.701   7.803  19.876  0.00  0.00    +0.000 A 
ATOM     31  N   UNL     1       1.092   8.911  20.334  0.00  0.00    +0.000 NA
ENDBRANCH  21  22
ENDBRANCH   9  21
TORSDOF 3
ENDMDL
MODEL 6
REMARK VINA RESULT:      -8.0      1.294      1.900
REMARK  Name = 
REMARK  3 active torsions:
REMARK  status: ('A' for Active; 'I' for Inactive)
REMARK    1  A    between atoms: C_2  and  C_3
REMARK    2  A    between atoms: C_18  and  O_19
REMARK    3  A    between atoms: O_19  and  C_20
REMARK                            x       y       z     vdW  Elec       q    Type
REMARK                         _______ _______ _______ _____ _____    ______ ____
ROOT
ATOM      1  O   UNL     1       2.817   6.782  17.220  0.00  0.00    +0.000 OA
ATOM      2  C   UNL     1       3.382   5.742  17.553  0.00  0.00    +0.000 C 
ATOM      3  N   UNL     1       2.843   4.893  18.544  0.00  0.00    +0.000 N 
ATOM      4  C   UNL     1       3.469   3.651  18.997  0.00  0.00    +0.000 C 
ATOM      5  C   UNL     1       3.321   3.443  20.490  0.00  0.00    +0.000 C 
ATOM      6  C   UNL     1       1.874   3.592  20.890  0.00  0.00    +0.000 C 
ATOM      7  F   UNL     1       1.774   3.343  22.221  0.00  0.00    +0.000 F 
ATOM      8  F   UNL     1       1.151   2.603  20.287  0.00  0.00    +0.000 F 
ATOM      9  C   UNL     1       1.287   4.953  20.505  0.00  0.00    +0.000 C 
ATOM     10  C   UNL     1       1.455   5.116  18.985  0.00  0.00    +0.000 C 
ENDROOT
BRANCH   2  11
ATOM     11  C   UNL     1       4.659   5.362  16.879  0.00  0.00    +0.000 A 
ATOM     12  N   UNL     1       4.678   4.197  16.147  0.00  0.00    +0.000 NA
ATOM     13  C   UNL     1       5.838   3.765  15.609  0.00  0.00    +0.000 A 
ATOM     14  C   UNL     1       7.043   4.440  15.681  0.00  0.00    +0.000 A 
ATOM     15  C   UNL     1       6.988   5.655  16.358  0.00  0.00    +0.000 A 
ATOM     16  N   UNL     1       7.944   6.609  16.606  0.00  0.00    +0.000 N 
ATOM     17  C   UNL     1       7.371   7.598  17.346  0.00  0.00    +0.000 A 
ATOM     18  N   UNL     1       6.110   7.339  17.603  0.00  0.00    +0.000 NA
ATOM     19  C   UNL     1       5.828   6.141  16.971  0.00  0.00    +0.000 A 
ATOM     20  H   UNL     1       8.904   6.584  16.290  0.00  0.00    +0.000 HD
ENDBRANCH   2  11
BRANCH   9  21
ATOM     21  O   UNL     1       1.993   6.063  21.093  0.00  0.00    +0.000 OA
BRANCH  21  22
ATOM     22  C   UNL     1       1.402   7.292  20.919  0.00  0.00    +0.000 A 
ATOM     23  C   UNL     1       0.344   7.581  21.763  0.00  0.00    +0.000 A 
ATOM     24  C   UNL     1      -0.340   8.771  21.568  0.00  0.00    +0.000 A 
ATOM     25  C   UNL     1       0.043   9.627  20.528  0.00  0.00    +0.000 A 
ATOM     26  C   UNL     1      -0.644  10.824  20.263  0.00  0.00    +0.000 A 
ATOM     27  C   UNL     1      -0.249  11.646  19.209  0.00  0.00    +0.000 A 
ATOM     28  C   UNL     1       0.838  11.277  18.422  0.00  0.00    +0.000 A 
ATOM     29  C   UNL     1       1.521  10.085  18.692  0.00  0.00    +0.000 A 
ATOM     30  C   UNL     1       1.143   9.246  19.729  0.00  0.00    +0.000 A 
ATOM     31  N   UNL     1       1.823   8.103  19.934  0.00  0.00    +0.000 NA
ENDBRANCH  21  22
ENDBRANCH   9  21
TORSDOF 3
ENDMDL
MODEL 7
REMARK VINA RESULT:      -8.0      0.646      1.801
REMARK  Name = 
REMARK  3 active torsions:
REMARK  status: ('A' for Active; 'I' for Inactive)
REMARK    1  A    between atoms: C_2  and  C_3
REMARK    2  A    between atoms: C_18  and  O_19
REMARK    3  A    between atoms: O_19  and  C_20
REMARK                            x       y       z     vdW  Elec       q    Type
REMARK                         _______ _______ _______ _____ _____    ______ ____
ROOT
ATOM      1  O   UNL     1       3.562   6.806  17.464  0.00  0.00    +0.000 OA
ATOM      2  C   UNL     1       3.925   5.695  17.847  0.00  0.00    +0.000 C 
ATOM      3  N   UNL     1       3.092   4.879  18.643  0.00  0.00    +0.000 N 
ATOM      4  C   UNL     1       3.467   3.557  19.144  0.00  0.00    +0.000 C 
ATOM      5  C   UNL     1       2.968   3.313  20.553  0.00  0.00    +0.000 C 
ATOM      6  C   UNL     1       1.493   3.615  20.637  0.00  0.00    +0.000 C 
ATOM      7  F   UNL     1       1.072   3.331  21.896  0.00  0.00    +0.000 F 
ATOM      8  F   UNL     1       0.822   2.740  19.832  0.00  0.00    +0.000 F 
ATOM      9  C   UNL     1       1.153   5.048  20.218  0.00  0.00    +0.000 C 
ATOM     10  C   UNL     1       1.672   5.247  18.784  0.00  0.00    +0.000 C 
ENDROOT
BRANCH   2  11
ATOM     11  C   UNL     1       5.273   5.194  17.445  0.00  0.00    +0.000 A 
ATOM     12  N   UNL     1       6.270   5.200  18.394  0.00  0.00    +0.000 NA
ATOM     13  C   UNL     1       7.526   4.852  18.045  0.00  0.00    +0.000 A 
ATOM     14  C   UNL     1       7.907   4.421  16.787  0.00  0.00    +0.000 A 
ATOM     15  C   UNL     1       6.871   4.348  15.861  0.00  0.00    +0.000 A 
ATOM     16  N   UNL     1       6.843   3.942  14.549  0.00  0.00    +0.000 N 
ATOM     17  C   UNL     1       5.571   4.098  14.087  0.00  0.00    +0.000 A 
ATOM     18  N   UNL     1       4.779   4.589  15.011  0.00  0.00    +0.000 NA
ATOM     19  C   UNL     1       5.555   4.728  16.148  0.00  0.00    +0.000 A 
ATOM     20  H   UNL     1       7.627   3.586  14.020  0.00  0.00    +0.000 HD
ENDBRANCH   2  11
BRANCH   9  21
ATOM     21  O   UNL     1       1.824   6.047  21.013  0.00  0.00    +0.000 OA
BRANCH  21  22
ATOM     22  C   UNL     1       1.287   7.309  20.942  0.00  0.00    +0.000 A 
ATOM     23  C   UNL     1       1.618   8.048  19.821  0.00  0.00    +0.000 A 
ATOM     24  C   UNL     1       1.171   9.359  19.746  0.00  0.00    +0.000 A 
ATOM     25  C   UNL     1       0.422   9.895  20.801  0.00  0.00    +0.000 A 
ATOM     26  C   UNL     1      -0.018  11.230  20.792  0.00  0.00    +0.000 A 
ATOM     27  C   UNL     1      -0.748  11.739  21.866  0.00  0.00    +0.000 A 
ATOM     28  C   UNL     1      -1.044  10.914  22.946  0.00  0.00    +0.000 A 
ATOM     29  C   UNL     1      -0.606   9.583  22.948  0.00  0.00    +0.000 A 
ATOM     30  C   UNL     1       0.128   9.056  21.897  0.00  0.00    +0.000 A 
ATOM     31  N   UNL     1       0.539   7.776  21.957  0.00  0.00    +0.000 NA
ENDBRANCH  21  22
ENDBRANCH   9  21
TORSDOF 3
ENDMDL
MODEL 8
REMARK VINA RESULT:      -7.9      5.106      9.209
REMARK  Name = 
REMARK  3 active torsions:
REMARK  status: ('A' for Active; 'I' for Inactive)
REMARK    1  A    between atoms: C_2  and  C_3
REMARK    2  A    between atoms: C_18  and  O_19
REMARK    3  A    between atoms: O_19  and  C_20
REMARK                            x       y       z     vdW  Elec       q    Type
REMARK                         _______ _______ _______ _____ _____    ______ ____
ROOT
ATOM      1  O   UNL     1       1.955  13.489  21.469  0.00  0.00    +0.000 OA
ATOM      2  C   UNL     1       1.198  13.852  20.570  0.00  0.00    +0.000 C 
ATOM      3  N   UNL     1       0.217  12.988  20.038  0.00  0.00    +0.000 N 
ATOM      4  C   UNL     1      -0.704  13.349  18.959  0.00  0.00    +0.000 C 
ATOM      5  C   UNL     1      -0.942  12.203  17.998  0.00  0.00    +0.000 C 
ATOM      6  C   UNL     1      -1.335  10.963  18.762  0.00  0.00    +0.000 C 
ATOM      7  F   UNL     1      -1.594   9.977  17.866  0.00  0.00    +0.000 F 
ATOM      8  F   UNL     1      -2.524  11.195  19.390  0.00  0.00    +0.000 F 
ATOM      9  C   UNL     1      -0.288  10.547  19.800  0.00  0.00    +0.000 C 
ATOM     10  C   UNL     1      -0.084  11.736  20.754  0.00  0.00    +0.000 C 
ENDROOT
BRANCH   2  11
ATOM     11  C   UNL     1       1.312  15.244  20.043  0.00  0.00    +0.000 A 
ATOM     12  N   UNL     1       0.562  16.225  20.651  0.00  0.00    +0.000 NA
ATOM     13  C   UNL     1       0.557  17.474  20.141  0.00  0.00    +0.000 A 
ATOM     14  C   UNL     1       1.308  17.889  19.056  0.00  0.00    +0.000 A 
ATOM     15  C   UNL     1       2.119  16.903  18.503  0.00  0.00    +0.000 A 
ATOM     16  N   UNL     1       3.015  16.934  17.462  0.00  0.00    +0.000 N 
ATOM     17  C   UNL     1       3.525  15.680  17.308  0.00  0.00    +0.000 A 
ATOM     18  N   UNL     1       3.006  14.839  18.172  0.00  0.00    +0.000 NA
ATOM     19  C   UNL     1       2.143  15.581  18.959  0.00  0.00    +0.000 A 
ATOM     20  H   UNL     1       3.259  17.745  16.911  0.00  0.00    +0.000 HD
ENDBRANCH   2  11
BRANCH   9  21
ATOM     21  O   UNL     1       1.008  10.285  19.227  0.00  0.00    +0.000 OA
BRANCH  21  22
ATOM     22  C   UNL     1       1.453   8.990  19.351  0.00  0.00    +0.000 A 
ATOM     23  C   UNL     1       1.158   8.359  20.545  0.00  0.00    +0.000 A 
ATOM     24  C   UNL     1       1.661   7.083  20.752  0.00  0.00    +0.000 A 
ATOM     25  C   UNL     1       2.454   6.485  19.765  0.00  0.00    +0.000 A 
ATOM     26  C   UNL     1       3.022   5.211  19.943  0.00  0.00    +0.000 A 
ATOM     27  C   UNL     1       3.822   4.650  18.948  0.00  0.00    +0.000 A 
ATOM     28  C   UNL     1       4.051   5.357  17.773  0.00  0.00    +0.000 A 
ATOM     29  C   UNL     1       3.481   6.625  17.599  0.00  0.00    +0.000 A 
ATOM     30  C   UNL     1       2.689   7.209  18.576  0.00  0.00    +0.000 A 
ATOM     31  N   UNL     1       2.180   8.436  18.365  0.00  0.00    +0.000 NA
ENDBRANCH  21  22
ENDBRANCH   9  21
TORSDOF 3
ENDMDL
MODEL 9
REMARK VINA RESULT:      -7.9      3.910      9.645
REMARK  Name = 
REMARK  3 active torsions:
REMARK  status: ('A' for Active; 'I' for Inactive)
REMARK    1  A    between atoms: C_2  and  C_3
REMARK    2  A    between atoms: C_18  and  O_19
REMARK    3  A    between atoms: O_19  and  C_20
REMARK                            x       y       z     vdW  Elec       q    Type
REMARK                         _______ _______ _______ _____ _____    ______ ____
ROOT
ATOM      1  O   UNL     1      -0.047  10.810  23.139  0.00  0.00    +0.000 OA
ATOM      2  C   UNL     1      -0.554  11.585  22.330  0.00  0.00    +0.000 C 
ATOM      3  N   UNL     1      -0.931  11.159  21.037  0.00  0.00    +0.000 N 
ATOM      4  C   UNL     1      -1.523  12.030  20.021  0.00  0.00    +0.000 C 
ATOM      5  C   UNL     1      -1.010  11.722  18.630  0.00  0.00    +0.000 C 
ATOM      6  C   UNL     1      -1.150  10.248  18.344  0.00  0.00    +0.000 C 
ATOM      7  F   UNL     1      -0.734  10.022  17.071  0.00  0.00    +0.000 F 
ATOM      8  F   UNL     1      -2.477   9.926  18.347  0.00  0.00    +0.000 F 
ATOM      9  C   UNL     1      -0.415   9.371  19.362  0.00  0.00    +0.000 C 
ATOM     10  C   UNL     1      -0.971   9.714  20.754  0.00  0.00    +0.000 C 
ENDROOT
BRANCH   2  11
ATOM     11  C   UNL     1      -0.790  13.003  22.731  0.00  0.00    +0.000 A 
ATOM     12  N   UNL     1       0.193  13.923  22.447  0.00  0.00    +0.000 NA
ATOM     13  C   UNL     1       0.065  15.193  22.884  0.00  0.00    +0.000 A 
ATOM     14  C   UNL     1      -1.030  15.688  23.568  0.00  0.00    +0.000 A 
ATOM     15  C   UNL     1      -2.048  14.763  23.778  0.00  0.00    +0.000 A 
ATOM     16  N   UNL     1      -3.280  14.878  24.374  0.00  0.00    +0.000 N 
ATOM     17  C   UNL     1      -3.878  13.655  24.346  0.00  0.00    +0.000 A 
ATOM     18  N   UNL     1      -3.107  12.755  23.782  0.00  0.00    +0.000 NA
ATOM     19  C   UNL     1      -1.963  13.423  23.385  0.00  0.00    +0.000 A 
ATOM     20  H   UNL     1      -3.677  15.723  24.761  0.00  0.00    +0.000 HD
ENDBRANCH   2  11
BRANCH   9  21
ATOM     21  O   UNL     1       0.998   9.645  19.433  0.00  0.00    +0.000 OA
BRANCH  21  22
ATOM     22  C   UNL     1       1.816   8.598  19.083  0.00  0.00    +0.000 A 
ATOM     23  C   UNL     1       2.476   8.721  17.873  0.00  0.00    +0.000 A 
ATOM     24  C   UNL     1       3.244   7.651  17.436  0.00  0.00    +0.000 A 
ATOM     25  C   UNL     1       3.316   6.489  18.214  0.00  0.00    +0.000 A 
ATOM     26  C   UNL     1       4.047   5.363  17.795  0.00  0.00    +0.000 A 
ATOM     27  C   UNL     1       4.085   4.214  18.584  0.00  0.00    +0.000 A 
ATOM     28  C   UNL     1       3.400   4.191  19.794  0.00  0.00    +0.000 A 
ATOM     29  C   UNL     1       2.676   5.316  20.208  0.00  0.00    +0.000 A 
ATOM     30  C   UNL     1       2.615   6.468  19.438  0.00  0.00    +0.000 A 
ATOM     31  N   UNL     1       1.891   7.514  19.874  0.00  0.00    +0.000 NA
ENDBRANCH  21  22
ENDBRANCH   9  21
TORSDOF 3
ENDMDL
