MODEL 1
REMARK VINA RESULT:      -7.1      0.000      0.000
REMARK  Name = 
REMARK  9 active torsions:
REMARK  status: ('A' for Active; 'I' for Inactive)
REMARK    1  A    between atoms: C_2  and  C_3
REMARK    2  A    between atoms: C_3  and  N_4
REMARK    3  A    between atoms: C_5  and  S_6
REMARK    4  A    between atoms: S_6  and  C_7
REMARK    5  A    between atoms: C_7  and  C_8
REMARK    6  A    between atoms: N_10  and  C_11
REMARK    7  A    between atoms: C_16  and  C_17
REMARK    8  A    between atoms: C_21  and  O_22
REMARK    9  A    between atoms: O_22  and  C_23
REMARK                            x       y       z     vdW  Elec       q    Type
REMARK                         _______ _______ _______ _____ _____    ______ ____
ROOT
ATOM      1  N   UNL     1       3.092   5.845  17.736  0.00  0.00    +0.000 N 
ATOM      2  C   UNL     1       4.309   5.494  17.207  0.00  0.00    +0.000 A 
ATOM      3  N   UNL     1       5.063   6.559  17.092  0.00  0.00    +0.000 NA
ATOM      4  N   UNL     1       4.347   7.629  17.576  0.00  0.00    +0.000 NA
ATOM      5  C   UNL     1       3.172   7.203  18.015  0.00  0.00    +0.000 A 
ENDROOT
BRANCH   5   6
ATOM      6  C   UNL     1       2.160   8.061  18.657  0.00  0.00    +0.000 A 
ATOM      7  C   UNL     1       1.475   9.020  17.897  0.00  0.00    +0.000 A 
ATOM      8  C   UNL     1       0.527   9.862  18.490  0.00  0.00    +0.000 A 
ATOM      9  C   UNL     1       0.248   9.753  19.851  0.00  0.00    +0.000 A 
ATOM     10  C   UNL     1       0.924   8.819  20.633  0.00  0.00    +0.000 A 
ATOM     11  C   UNL     1       1.887   8.002  20.034  0.00  0.00    +0.000 A 
BRANCH  10  12
ATOM     12  O   UNL     1       0.578   8.803  21.956  0.00  0.00    +0.000 OA
ATOM     13  C   UNL     1       0.175  10.040  22.534  0.00  0.00    +0.000 C 
ENDBRANCH  10  12
ENDBRANCH   5   6
BRANCH   1  14
ATOM     14  C   UNL     1       1.920   4.992  17.857  0.00  0.00    +0.000 C 
BRANCH  14  16
ATOM     15  C   UNL     1       1.490   4.555  20.296  0.00  0.00    +0.000 C 
ATOM     16  C   UNL     1       1.944   4.148  19.103  0.00  0.00    +0.000 C 
ENDBRANCH  14  16
ENDBRANCH   1  14
BRANCH   2  17
ATOM     17  S   UNL     1       4.743   3.883  16.737  0.00  0.00    +0.000 S 
BRANCH  17  18
ATOM     18  C   UNL     1       6.454   4.128  16.164  0.00  0.00    +0.000 C 
BRANCH  18  19
ATOM     19  C   UNL     1       6.477   4.434  14.670  0.00  0.00    +0.000 C 
ATOM     20  O   UNL     1       6.599   5.578  14.237  0.00  0.00    +0.000 OA
ATOM     21  N   UNL     1       6.295   3.320  13.860  0.00  0.00    +0.000 N 
ATOM     22  H   UNL     1       6.276   2.405  14.295  0.00  0.00    +0.000 HD
BRANCH  21  23
ATOM     23  C   UNL     1       6.169   3.408  12.437  0.00  0.00    +0.000 C 
ATOM     24  C   UNL     1       5.689   2.235  11.622  0.00  0.00    +0.000 C 
ATOM     25  C   UNL     1       4.797   3.425  11.814  0.00  0.00    +0.000 C 
ENDBRANCH  21  23
ENDBRANCH  18  19
ENDBRANCH  17  18
ENDBRANCH   2  17
TORSDOF 8
ENDMDL
MODEL 2
REMARK VINA RESULT:      -7.1      1.159      1.653
REMARK  Name = 
REMARK  9 active torsions:
REMARK  status: ('A' for Active; 'I' for Inactive)
REMARK    1  A    between atoms: C_2  and  C_3
REMARK    2  A    between atoms: C_3  and  N_4
REMARK    3  A    between atoms: C_5  and  S_6
REMARK    4  A    between atoms: S_6  and  C_7
REMARK    5  A    between atoms: C_7  and  C_8
REMARK    6  A    between atoms: N_10  and  C_11
REMARK    7  A    between atoms: C_16  and  C_17
REMARK    8  A    between atoms: C_21  and  O_22
REMARK    9  A    between atoms: O_22  and  C_23
REMARK                            x       y       z     vdW  Elec       q    Type
REMARK                         _______ _______ _______ _____ _____    ______ ____
ROOT
ATOM      1  N   UNL     1       3.517   5.718  17.956  0.00  0.00    +0.000 N 
ATOM      2  C   UNL     1       4.469   5.473  16.999  0.00  0.00    +0.000 A 
ATOM      3  N   UNL     1       4.726   6.575  16.340  0.00  0.00    +0.000 NA
ATOM      4  N   UNL     1       3.954   7.575  16.885  0.00  0.00    +0.000 NA
ATOM      5  C   UNL     1       3.255   7.081  17.896  0.00  0.00    +0.000 A 
ENDROOT
BRANCH   5   6
ATOM      6  C   UNL     1       2.360   7.874  18.758  0.00  0.00    +0.000 A 
ATOM      7  C   UNL     1       2.108   7.456  20.073  0.00  0.00    +0.000 A 
ATOM      8  C   UNL     1       1.242   8.179  20.902  0.00  0.00    +0.000 A 
ATOM      9  C   UNL     1       0.620   9.333  20.428  0.00  0.00    +0.000 A 
ATOM     10  C   UNL     1       0.841   9.762  19.122  0.00  0.00    +0.000 A 
ATOM     11  C   UNL     1       1.688   9.017  18.295  0.00  0.00    +0.000 A 
BRANCH  10  12
ATOM     12  O   UNL     1       0.176  10.901  18.759  0.00  0.00    +0.000 OA
ATOM     13  C   UNL     1       0.158  11.968  19.702  0.00  0.00    +0.000 C 
ENDBRANCH  10  12
ENDBRANCH   5   6
BRANCH   1  14
ATOM     14  C   UNL     1       2.834   4.728  18.776  0.00  0.00    +0.000 C 
BRANCH  14  16
ATOM     15  C   UNL     1       1.235   2.891  18.151  0.00  0.00    +0.000 C 
ATOM     16  C   UNL     1       1.599   4.179  18.113  0.00  0.00    +0.000 C 
ENDBRANCH  14  16
ENDBRANCH   1  14
BRANCH   2  17
ATOM     17  S   UNL     1       5.180   3.920  16.701  0.00  0.00    +0.000 S 
BRANCH  17  18
ATOM     18  C   UNL     1       6.886   4.385  16.268  0.00  0.00    +0.000 C 
BRANCH  18  19
ATOM     19  C   UNL     1       7.036   4.509  14.756  0.00  0.00    +0.000 C 
ATOM     20  O   UNL     1       7.724   5.384  14.234  0.00  0.00    +0.000 OA
ATOM     21  N   UNL     1       6.289   3.587  14.034  0.00  0.00    +0.000 N 
ATOM     22  H   UNL     1       5.807   2.854  14.541  0.00  0.00    +0.000 HD
BRANCH  21  23
ATOM     23  C   UNL     1       6.199   3.608  12.605  0.00  0.00    +0.000 C 
ATOM     24  C   UNL     1       5.894   2.357  11.824  0.00  0.00    +0.000 C 
ATOM     25  C   UNL     1       4.857   3.434  11.944  0.00  0.00    +0.000 C 
ENDBRANCH  21  23
ENDBRANCH  18  19
ENDBRANCH  17  18
ENDBRANCH   2  17
TORSDOF 8
ENDMDL
MODEL 3
REMARK VINA RESULT:      -6.6      5.008      7.137
REMARK  Name = 
REMARK  9 active torsions:
REMARK  status: ('A' for Active; 'I' for Inactive)
REMARK    1  A    between atoms: C_2  and  C_3
REMARK    2  A    between atoms: C_3  and  N_4
REMARK    3  A    between atoms: C_5  and  S_6
REMARK    4  A    between atoms: S_6  and  C_7
REMARK    5  A    between atoms: C_7  and  C_8
REMARK    6  A    between atoms: N_10  and  C_11
REMARK    7  A    between atoms: C_16  and  C_17
REMARK    8  A    between atoms: C_21  and  O_22
REMARK    9  A    between atoms: O_22  and  C_23
REMARK                            x       y       z     vdW  Elec       q    Type
REMARK                         _______ _______ _______ _____ _____    ______ ____
ROOT
ATOM      1  N   UNL     1       5.827   6.142  17.821  0.00  0.00    +0.000 N 
ATOM      2  C   UNL     1       7.039   6.697  18.148  0.00  0.00    +0.000 A 
ATOM      3  N   UNL     1       7.609   5.986  19.089  0.00  0.00    +0.000 NA
ATOM      4  N   UNL     1       6.777   4.928  19.372  0.00  0.00    +0.000 NA
ATOM      5  C   UNL     1       5.719   4.982  18.576  0.00  0.00    +0.000 A 
ENDROOT
BRANCH   5   6
ATOM      6  C   UNL     1       4.640   3.978  18.552  0.00  0.00    +0.000 A 
ATOM      7  C   UNL     1       4.213   3.442  17.329  0.00  0.00    +0.000 A 
ATOM      8  C   UNL     1       3.174   2.506  17.279  0.00  0.00    +0.000 A 
ATOM      9  C   UNL     1       2.551   2.089  18.454  0.00  0.00    +0.000 A 
ATOM     10  C   UNL     1       2.944   2.616  19.681  0.00  0.00    +0.000 A 
ATOM     11  C   UNL     1       3.966   3.571  19.715  0.00  0.00    +0.000 A 
BRANCH  10  12
ATOM     12  O   UNL     1       2.261   2.143  20.767  0.00  0.00    +0.000 OA
ATOM     13  C   UNL     1       1.225   2.969  21.289  0.00  0.00    +0.000 C 
ENDBRANCH  10  12
ENDBRANCH   5   6
BRANCH   1  14
ATOM     14  C   UNL     1       4.813   6.723  16.953  0.00  0.00    +0.000 C 
BRANCH  14  16
ATOM     15  C   UNL     1       2.615   6.810  18.171  0.00  0.00    +0.000 C 
ATOM     16  C   UNL     1       3.721   7.417  17.721  0.00  0.00    +0.000 C 
ENDBRANCH  14  16
ENDBRANCH   1  14
BRANCH   2  17
ATOM     17  S   UNL     1       7.677   8.143  17.436  0.00  0.00    +0.000 S 
BRANCH  17  18
ATOM     18  C   UNL     1       8.647   8.824  18.819  0.00  0.00    +0.000 C 
BRANCH  18  19
ATOM     19  C   UNL     1       9.026  10.274  18.542  0.00  0.00    +0.000 C 
ATOM     20  O   UNL     1       8.423  10.964  17.722  0.00  0.00    +0.000 OA
ATOM     21  N   UNL     1      10.135  10.717  19.251  0.00  0.00    +0.000 N 
ATOM     22  H   UNL     1      10.529  10.108  19.960  0.00  0.00    +0.000 HD
BRANCH  21  23
ATOM     23  C   UNL     1      10.723  12.006  19.048  0.00  0.00    +0.000 C 
ATOM     24  C   UNL     1      12.123  12.308  19.514  0.00  0.00    +0.000 C 
ATOM     25  C   UNL     1      11.838  12.164  18.049  0.00  0.00    +0.000 C 
ENDBRANCH  21  23
ENDBRANCH  18  19
ENDBRANCH  17  18
ENDBRANCH   2  17
TORSDOF 8
ENDMDL
MODEL 4
REMARK VINA RESULT:      -6.5      3.372      4.645
REMARK  Name = 
REMARK  9 active torsions:
REMARK  status: ('A' for Active; 'I' for Inactive)
REMARK    1  A    between atoms: C_2  and  C_3
REMARK    2  A    between atoms: C_3  and  N_4
REMARK    3  A    between atoms: C_5  and  S_6
REMARK    4  A    between atoms: S_6  and  C_7
REMARK    5  A    between atoms: C_7  and  C_8
REMARK    6  A    between atoms: N_10  and  C_11
REMARK    7  A    between atoms: C_16  and  C_17
REMARK    8  A    between atoms: C_21  and  O_22
REMARK    9  A    between atoms: O_22  and  C_23
REMARK                            x       y       z     vdW  Elec       q    Type
REMARK                         _______ _______ _______ _____ _____    ______ ____
ROOT
ATOM      1  N   UNL     1       1.691   8.139  19.506  0.00  0.00    +0.000 N 
ATOM      2  C   UNL     1       2.592   7.231  19.009  0.00  0.00    +0.000 A 
ATOM      3  N   UNL     1       2.979   7.602  17.814  0.00  0.00    +0.000 NA
ATOM      4  N   UNL     1       2.347   8.789  17.523  0.00  0.00    +0.000 NA
ATOM      5  C   UNL     1       1.604   9.151  18.559  0.00  0.00    +0.000 A 
ENDROOT
BRANCH   5   6
ATOM      6  C   UNL     1       0.827  10.401  18.633  0.00  0.00    +0.000 A 
ATOM      7  C   UNL     1       1.461  11.596  19.002  0.00  0.00    +0.000 A 
ATOM      8  C   UNL     1       0.739  12.790  19.103  0.00  0.00    +0.000 A 
ATOM      9  C   UNL     1      -0.628  12.807  18.830  0.00  0.00    +0.000 A 
ATOM     10  C   UNL     1      -1.286  11.633  18.476  0.00  0.00    +0.000 A 
ATOM     11  C   UNL     1      -0.559  10.440  18.404  0.00  0.00    +0.000 A 
BRANCH  10  12
ATOM     12  O   UNL     1      -2.627  11.762  18.238  0.00  0.00    +0.000 OA
ATOM     13  C   UNL     1      -3.117  11.248  17.004  0.00  0.00    +0.000 C 
ENDBRANCH  10  12
ENDBRANCH   5   6
BRANCH   1  14
ATOM     14  C   UNL     1       0.898   8.000  20.719  0.00  0.00    +0.000 C 
BRANCH  14  16
ATOM     15  C   UNL     1       0.437   9.426  22.738  0.00  0.00    +0.000 C 
ATOM     16  C   UNL     1       1.266   9.012  21.771  0.00  0.00    +0.000 C 
ENDBRANCH  14  16
ENDBRANCH   1  14
BRANCH   2  17
ATOM     17  S   UNL     1       3.097   5.797  19.842  0.00  0.00    +0.000 S 
BRANCH  17  18
ATOM     18  C   UNL     1       3.659   4.758  18.456  0.00  0.00    +0.000 C 
BRANCH  18  19
ATOM     19  C   UNL     1       5.181   4.757  18.374  0.00  0.00    +0.000 C 
ATOM     20  O   UNL     1       5.871   3.940  18.980  0.00  0.00    +0.000 OA
ATOM     21  N   UNL     1       5.708   5.788  17.605  0.00  0.00    +0.000 N 
ATOM     22  H   UNL     1       5.068   6.373  17.081  0.00  0.00    +0.000 HD
BRANCH  21  23
ATOM     23  C   UNL     1       7.114   6.034  17.495  0.00  0.00    +0.000 C 
ATOM     24  C   UNL     1       7.667   7.435  17.541  0.00  0.00    +0.000 C 
ATOM     25  C   UNL     1       7.880   6.509  18.702  0.00  0.00    +0.000 C 
ENDBRANCH  21  23
ENDBRANCH  18  19
ENDBRANCH  17  18
ENDBRANCH   2  17
TORSDOF 8
ENDMDL
MODEL 5
REMARK VINA RESULT:      -6.5      1.928      2.694
REMARK  Name = 
REMARK  9 active torsions:
REMARK  status: ('A' for Active; 'I' for Inactive)
REMARK    1  A    between atoms: C_2  and  C_3
REMARK    2  A    between atoms: C_3  and  N_4
REMARK    3  A    between atoms: C_5  and  S_6
REMARK    4  A    between atoms: S_6  and  C_7
REMARK    5  A    between atoms: C_7  and  C_8
REMARK    6  A    between atoms: N_10  and  C_11
REMARK    7  A    between atoms: C_16  and  C_17
REMARK    8  A    between atoms: C_21  and  O_22
REMARK    9  A    between atoms: O_22  and  C_23
REMARK                            x       y       z     vdW  Elec       q    Type
REMARK                         _______ _______ _______ _____ _____    ______ ____
ROOT
ATOM      1  N   UNL     1       2.750   5.981  19.627  0.00  0.00    +0.000 N 
ATOM      2  C   UNL     1       3.609   5.443  18.700  0.00  0.00    +0.000 A 
ATOM      3  N   UNL     1       3.752   6.273  17.698  0.00  0.00    +0.000 NA
ATOM      4  N   UNL     1       2.999   7.392  17.973  0.00  0.00    +0.000 NA
ATOM      5  C   UNL     1       2.429   7.249  19.160  0.00  0.00    +0.000 A 
ENDROOT
BRANCH   5   6
ATOM      6  C   UNL     1       1.594   8.274  19.814  0.00  0.00    +0.000 A 
ATOM      7  C   UNL     1       1.220   8.117  21.156  0.00  0.00    +0.000 A 
ATOM      8  C   UNL     1       0.409   9.064  21.791  0.00  0.00    +0.000 A 
ATOM      9  C   UNL     1      -0.036  10.185  21.092  0.00  0.00    +0.000 A 
ATOM     10  C   UNL     1       0.309  10.359  19.754  0.00  0.00    +0.000 A 
ATOM     11  C   UNL     1       1.098   9.392  19.124  0.00  0.00    +0.000 A 
BRANCH  10  12
ATOM     12  O   UNL     1      -0.188  11.489  19.164  0.00  0.00    +0.000 OA
ATOM     13  C   UNL     1       0.613  12.664  19.241  0.00  0.00    +0.000 C 
ENDBRANCH  10  12
ENDBRANCH   5   6
BRANCH   1  14
ATOM     14  C   UNL     1       2.196   5.307  20.791  0.00  0.00    +0.000 C 
BRANCH  14  16
ATOM     15  C   UNL     1       1.117   3.036  20.738  0.00  0.00    +0.000 C 
ATOM     16  C   UNL     1       1.098   4.341  20.434  0.00  0.00    +0.000 C 
ENDBRANCH  14  16
ENDBRANCH   1  14
BRANCH   2  17
ATOM     17  S   UNL     1       4.348   3.882  18.843  0.00  0.00    +0.000 S 
BRANCH  17  18
ATOM     18  C   UNL     1       6.074   4.335  19.205  0.00  0.00    +0.000 C 
BRANCH  18  19
ATOM     19  C   UNL     1       6.795   4.747  17.926  0.00  0.00    +0.000 C 
ATOM     20  O   UNL     1       7.710   5.568  17.924  0.00  0.00    +0.000 OA
ATOM     21  N   UNL     1       6.291   4.155  16.775  0.00  0.00    +0.000 N 
ATOM     22  H   UNL     1       5.586   3.434  16.873  0.00  0.00    +0.000 HD
BRANCH  21  23
ATOM     23  C   UNL     1       6.751   4.495  15.462  0.00  0.00    +0.000 C 
ATOM     24  C   UNL     1       6.201   3.805  14.240  0.00  0.00    +0.000 C 
ATOM     25  C   UNL     1       5.832   5.231  14.523  0.00  0.00    +0.000 C 
ENDBRANCH  21  23
ENDBRANCH  18  19
ENDBRANCH  17  18
ENDBRANCH   2  17
TORSDOF 8
ENDMDL
MODEL 6
REMARK VINA RESULT:      -6.5      2.296      8.310
REMARK  Name = 
REMARK  9 active torsions:
REMARK  status: ('A' for Active; 'I' for Inactive)
REMARK    1  A    between atoms: C_2  and  C_3
REMARK    2  A    between atoms: C_3  and  N_4
REMARK    3  A    between atoms: C_5  and  S_6
REMARK    4  A    between atoms: S_6  and  C_7
REMARK    5  A    between atoms: C_7  and  C_8
REMARK    6  A    between atoms: N_10  and  C_11
REMARK    7  A    between atoms: C_16  and  C_17
REMARK    8  A    between atoms: C_21  and  O_22
REMARK    9  A    between atoms: O_22  and  C_23
REMARK                            x       y       z     vdW  Elec       q    Type
REMARK                         _______ _______ _______ _____ _____    ______ ____
ROOT
ATOM      1  N   UNL     1       5.480   4.516  16.936  0.00  0.00    +0.000 N 
ATOM      2  C   UNL     1       5.884   4.716  18.233  0.00  0.00    +0.000 A 
ATOM      3  N   UNL     1       7.192   4.759  18.285  0.00  0.00    +0.000 NA
ATOM      4  N   UNL     1       7.664   4.614  17.001  0.00  0.00    +0.000 NA
ATOM      5  C   UNL     1       6.638   4.517  16.169  0.00  0.00    +0.000 A 
ENDROOT
BRANCH   5   6
ATOM      6  C   UNL     1       6.758   4.409  14.704  0.00  0.00    +0.000 A 
ATOM      7  C   UNL     1       7.651   5.242  14.014  0.00  0.00    +0.000 A 
ATOM      8  C   UNL     1       7.764   5.174  12.621  0.00  0.00    +0.000 A 
ATOM      9  C   UNL     1       6.989   4.268  11.899  0.00  0.00    +0.000 A 
ATOM     10  C   UNL     1       6.084   3.440  12.557  0.00  0.00    +0.000 A 
ATOM     11  C   UNL     1       5.961   3.535  13.946  0.00  0.00    +0.000 A 
BRANCH  10  12
ATOM     12  O   UNL     1       5.370   2.596  11.751  0.00  0.00    +0.000 OA
ATOM     13  C   UNL     1       4.149   3.093  11.214  0.00  0.00    +0.000 C 
ENDBRANCH  10  12
ENDBRANCH   5   6
BRANCH   1  14
ATOM     14  C   UNL     1       4.126   4.236  16.483  0.00  0.00    +0.000 C 
BRANCH  14  16
ATOM     15  C   UNL     1       2.376   2.784  17.557  0.00  0.00    +0.000 C 
ATOM     16  C   UNL     1       3.593   2.934  17.018  0.00  0.00    +0.000 C 
ENDBRANCH  14  16
ENDBRANCH   1  14
BRANCH   2  17
ATOM     17  S   UNL     1       4.807   4.848  19.584  0.00  0.00    +0.000 S 
BRANCH  17  18
ATOM     18  C   UNL     1       3.641   6.115  18.988  0.00  0.00    +0.000 C 
BRANCH  18  19
ATOM     19  C   UNL     1       2.469   6.256  19.953  0.00  0.00    +0.000 C 
ATOM     20  O   UNL     1       1.807   5.290  20.327  0.00  0.00    +0.000 OA
ATOM     21  N   UNL     1       2.190   7.566  20.319  0.00  0.00    +0.000 N 
ATOM     22  H   UNL     1       2.830   8.296  20.024  0.00  0.00    +0.000 HD
BRANCH  21  23
ATOM     23  C   UNL     1       1.061   7.925  21.122  0.00  0.00    +0.000 C 
ATOM     24  C   UNL     1       1.149   9.028  22.145  0.00  0.00    +0.000 C 
ATOM     25  C   UNL     1       0.369   9.241  20.882  0.00  0.00    +0.000 C 
ENDBRANCH  21  23
ENDBRANCH  18  19
ENDBRANCH  17  18
ENDBRANCH   2  17
TORSDOF 8
ENDMDL
MODEL 7
REMARK VINA RESULT:      -6.5      3.610      7.762
REMARK  Name = 
REMARK  9 active torsions:
REMARK  status: ('A' for Active; 'I' for Inactive)
REMARK    1  A    between atoms: C_2  and  C_3
REMARK    2  A    between atoms: C_3  and  N_4
REMARK    3  A    between atoms: C_5  and  S_6
REMARK    4  A    between atoms: S_6  and  C_7
REMARK    5  A    between atoms: C_7  and  C_8
REMARK    6  A    between atoms: N_10  and  C_11
REMARK    7  A    between atoms: C_16  and  C_17
REMARK    8  A    between atoms: C_21  and  O_22
REMARK    9  A    between atoms: O_22  and  C_23
REMARK                            x       y       z     vdW  Elec       q    Type
REMARK                         _______ _______ _______ _____ _____    ______ ____
ROOT
ATOM      1  N   UNL     1       2.165   7.738  19.184  0.00  0.00    +0.000 N 
ATOM      2  C   UNL     1       1.499   8.900  18.882  0.00  0.00    +0.000 A 
ATOM      3  N   UNL     1       1.831   9.298  17.679  0.00  0.00    +0.000 NA
ATOM      4  N   UNL     1       2.711   8.375  17.164  0.00  0.00    +0.000 NA
ATOM      5  C   UNL     1       2.882   7.399  18.044  0.00  0.00    +0.000 A 
ENDROOT
BRANCH   5   6
ATOM      6  C   UNL     1       3.712   6.203  17.814  0.00  0.00    +0.000 A 
ATOM      7  C   UNL     1       3.105   4.993  17.449  0.00  0.00    +0.000 A 
ATOM      8  C   UNL     1       3.869   3.838  17.248  0.00  0.00    +0.000 A 
ATOM      9  C   UNL     1       5.254   3.879  17.406  0.00  0.00    +0.000 A 
ATOM     10  C   UNL     1       5.881   5.064  17.782  0.00  0.00    +0.000 A 
ATOM     11  C   UNL     1       5.103   6.204  18.005  0.00  0.00    +0.000 A 
BRANCH  10  12
ATOM     12  O   UNL     1       7.241   4.990  17.914  0.00  0.00    +0.000 OA
ATOM     13  C   UNL     1       7.833   5.771  18.947  0.00  0.00    +0.000 C 
ENDBRANCH  10  12
ENDBRANCH   5   6
BRANCH   1  14
ATOM     14  C   UNL     1       2.207   7.073  20.478  0.00  0.00    +0.000 C 
BRANCH  14  16
ATOM     15  C   UNL     1       1.998   4.594  20.843  0.00  0.00    +0.000 C 
ATOM     16  C   UNL     1       1.460   5.766  20.482  0.00  0.00    +0.000 C 
ENDBRANCH  14  16
ENDBRANCH   1  14
BRANCH   2  17
ATOM     17  S   UNL     1       0.415   9.715  19.962  0.00  0.00    +0.000 S 
BRANCH  17  18
ATOM     18  C   UNL     1       0.675  11.453  19.483  0.00  0.00    +0.000 C 
BRANCH  18  19
ATOM     19  C   UNL     1      -0.450  11.928  18.570  0.00  0.00    +0.000 C 
ATOM     20  O   UNL     1      -0.823  13.099  18.543  0.00  0.00    +0.000 OA
ATOM     21  N   UNL     1      -1.041  10.916  17.825  0.00  0.00    +0.000 N 
ATOM     22  H   UNL     1      -0.625   9.992  17.851  0.00  0.00    +0.000 HD
BRANCH  21  23
ATOM     23  C   UNL     1      -2.188  11.131  16.995  0.00  0.00    +0.000 C 
ATOM     24  C   UNL     1      -3.058   9.983  16.554  0.00  0.00    +0.000 C 
ATOM     25  C   UNL     1      -3.566  10.955  17.576  0.00  0.00    +0.000 C 
ENDBRANCH  21  23
ENDBRANCH  18  19
ENDBRANCH  17  18
ENDBRANCH   2  17
TORSDOF 8
ENDMDL
MODEL 8
REMARK VINA RESULT:      -6.4      2.836      8.076
REMARK  Name = 
REMARK  9 active torsions:
REMARK  status: ('A' for Active; 'I' for Inactive)
REMARK    1  A    between atoms: C_2  and  C_3
REMARK    2  A    between atoms: C_3  and  N_4
REMARK    3  A    between atoms: C_5  and  S_6
REMARK    4  A    between atoms: S_6  and  C_7
REMARK    5  A    between atoms: C_7  and  C_8
REMARK    6  A    between atoms: N_10  and  C_11
REMARK    7  A    between atoms: C_16  and  C_17
REMARK    8  A    between atoms: C_21  and  O_22
REMARK    9  A    between atoms: O_22  and  C_23
REMARK                            x       y       z     vdW  Elec       q    Type
REMARK                         _______ _______ _______ _____ _____    ______ ____
ROOT
ATOM      1  N   UNL     1       2.486   6.868  19.458  0.00  0.00    +0.000 N 
ATOM      2  C   UNL     1       1.795   8.037  19.660  0.00  0.00    +0.000 A 
ATOM      3  N   UNL     1       1.993   8.846  18.650  0.00  0.00    +0.000 NA
ATOM      4  N   UNL     1       2.806   8.196  17.750  0.00  0.00    +0.000 NA
ATOM      5  C   UNL     1       3.069   6.979  18.203  0.00  0.00    +0.000 A 
ENDROOT
BRANCH   5   6
ATOM      6  C   UNL     1       3.862   5.972  17.476  0.00  0.00    +0.000 A 
ATOM      7  C   UNL     1       3.421   4.642  17.423  0.00  0.00    +0.000 A 
ATOM      8  C   UNL     1       4.169   3.663  16.760  0.00  0.00    +0.000 A 
ATOM      9  C   UNL     1       5.368   4.002  16.135  0.00  0.00    +0.000 A 
ATOM     10  C   UNL     1       5.837   5.312  16.184  0.00  0.00    +0.000 A 
ATOM     11  C   UNL     1       5.094   6.276  16.872  0.00  0.00    +0.000 A 
BRANCH  10  12
ATOM     12  O   UNL     1       7.026   5.532  15.544  0.00  0.00    +0.000 OA
ATOM     13  C   UNL     1       7.185   4.947  14.256  0.00  0.00    +0.000 C 
ENDBRANCH  10  12
ENDBRANCH   5   6
BRANCH   1  14
ATOM     14  C   UNL     1       2.668   5.790  20.419  0.00  0.00    +0.000 C 
BRANCH  14  16
ATOM     15  C   UNL     1       1.508   3.567  20.600  0.00  0.00    +0.000 C 
ATOM     16  C   UNL     1       1.457   4.903  20.532  0.00  0.00    +0.000 C 
ENDBRANCH  14  16
ENDBRANCH   1  14
BRANCH   2  17
ATOM     17  S   UNL     1       0.843   8.380  21.068  0.00  0.00    +0.000 S 
BRANCH  17  18
ATOM     18  C   UNL     1      -0.156   9.788  20.488  0.00  0.00    +0.000 C 
BRANCH  18  19
ATOM     19  C   UNL     1       0.573  11.101  20.749  0.00  0.00    +0.000 C 
ATOM     20  O   UNL     1       0.581  11.640  21.854  0.00  0.00    +0.000 OA
ATOM     21  N   UNL     1       1.171  11.651  19.622  0.00  0.00    +0.000 N 
ATOM     22  H   UNL     1       1.180  11.107  18.767  0.00  0.00    +0.000 HD
BRANCH  21  23
ATOM     23  C   UNL     1       1.805  12.935  19.627  0.00  0.00    +0.000 C 
ATOM     24  C   UNL     1       2.767  13.335  18.539  0.00  0.00    +0.000 C 
ATOM     25  C   UNL     1       1.406  13.962  18.601  0.00  0.00    +0.000 C 
ENDBRANCH  21  23
ENDBRANCH  18  19
ENDBRANCH  17  18
ENDBRANCH   2  17
TORSDOF 8
ENDMDL
MODEL 9
REMARK VINA RESULT:      -6.4      2.526      3.318
REMARK  Name = 
REMARK  9 active torsions:
REMARK  status: ('A' for Active; 'I' for Inactive)
REMARK    1  A    between atoms: C_2  and  C_3
REMARK    2  A    between atoms: C_3  and  N_4
REMARK    3  A    between atoms: C_5  and  S_6
REMARK    4  A    between atoms: S_6  and  C_7
REMARK    5  A    between atoms: C_7  and  C_8
REMARK    6  A    between atoms: N_10  and  C_11
REMARK    7  A    between atoms: C_16  and  C_17
REMARK    8  A    between atoms: C_21  and  O_22
REMARK    9  A    between atoms: O_22  and  C_23
REMARK                            x       y       z     vdW  Elec       q    Type
REMARK                         _______ _______ _______ _____ _____    ______ ____
ROOT
ATOM      1  N   UNL     1       2.200   5.755  19.273  0.00  0.00    +0.000 N 
ATOM      2  C   UNL     1       3.028   5.188  18.336  0.00  0.00    +0.000 A 
ATOM      3  N   UNL     1       3.548   6.126  17.584  0.00  0.00    +0.000 NA
ATOM      4  N   UNL     1       3.081   7.335  18.044  0.00  0.00    +0.000 NA
ATOM      5  C   UNL     1       2.305   7.128  19.097  0.00  0.00    +0.000 A 
ENDROOT
BRANCH   5   6
ATOM      6  C   UNL     1       1.673   8.197  19.891  0.00  0.00    +0.000 A 
ATOM      7  C   UNL     1       1.554   8.056  21.282  0.00  0.00    +0.000 A 
ATOM      8  C   UNL     1       0.936   9.047  22.053  0.00  0.00    +0.000 A 
ATOM      9  C   UNL     1       0.433  10.195  21.445  0.00  0.00    +0.000 A 
ATOM     10  C   UNL     1       0.523  10.355  20.065  0.00  0.00    +0.000 A 
ATOM     11  C   UNL     1       1.119   9.346  19.302  0.00  0.00    +0.000 A 
BRANCH  10  12
ATOM     12  O   UNL     1      -0.010  11.514  19.573  0.00  0.00    +0.000 OA
ATOM     13  C   UNL     1      -1.242  11.412  18.867  0.00  0.00    +0.000 C 
ENDBRANCH  10  12
ENDBRANCH   5   6
BRANCH   1  14
ATOM     14  C   UNL     1       1.304   5.051  20.178  0.00  0.00    +0.000 C 
BRANCH  14  16
ATOM     15  C   UNL     1       1.834   3.108  21.684  0.00  0.00    +0.000 C 
ATOM     16  C   UNL     1       2.033   4.379  21.311  0.00  0.00    +0.000 C 
ENDBRANCH  14  16
ENDBRANCH   1  14
BRANCH   2  17
ATOM     17  S   UNL     1       3.297   3.484  18.171  0.00  0.00    +0.000 S 
BRANCH  17  18
ATOM     18  C   UNL     1       4.686   3.229  19.321  0.00  0.00    +0.000 C 
BRANCH  18  19
ATOM     19  C   UNL     1       5.867   4.112  18.934  0.00  0.00    +0.000 C 
ATOM     20  O   UNL     1       6.381   4.902  19.723  0.00  0.00    +0.000 OA
ATOM     21  N   UNL     1       6.264   3.980  17.610  0.00  0.00    +0.000 N 
ATOM     22  H   UNL     1       5.835   3.253  17.048  0.00  0.00    +0.000 HD
BRANCH  21  23
ATOM     23  C   UNL     1       7.275   4.801  17.016  0.00  0.00    +0.000 C 
ATOM     24  C   UNL     1       7.167   5.262  15.586  0.00  0.00    +0.000 C 
ATOM     25  C   UNL     1       6.971   6.243  16.703  0.00  0.00    +0.000 C 
ENDBRANCH  21  23
ENDBRANCH  18  19
ENDBRANCH  17  18
ENDBRANCH   2  17
TORSDOF 8
ENDMDL
