MODEL 1
REMARK VINA RESULT:      -7.9      0.000      0.000
REMARK  Name = 
REMARK  5 active torsions:
REMARK  status: ('A' for Active; 'I' for Inactive)
REMARK    1  A    between atoms: C_2  and  C_3
REMARK    2  A    between atoms: N_8  and  C_15
REMARK    3  A    between atoms: N_18  and  C_19
REMARK    4  A    between atoms: C_19  and  C_20
REMARK    5  A    between atoms: C_20  and  C_21
REMARK                            x       y       z     vdW  Elec       q    Type
REMARK                         _______ _______ _______ _____ _____    ______ ____
ROOT
ATOM      1  O   UNL     1       1.425   5.365  18.190  0.00  0.00    +0.000 OA
ATOM      2  C   UNL     1       2.416   6.062  18.392  0.00  0.00    +0.000 C 
ATOM      3  N   UNL     1       3.702   5.488  18.509  0.00  0.00    +0.000 N 
ATOM      4  C   UNL     1       3.714   4.071  18.648  0.00  0.00    +0.000 A 
ATOM      5  C   UNL     1       3.197   3.277  17.621  0.00  0.00    +0.000 A 
ATOM      6  C   UNL     1       3.311   1.893  17.699  0.00  0.00    +0.000 A 
ATOM      7  C   UNL     1       3.906   1.328  18.816  0.00  0.00    +0.000 A 
ATOM      8  C   UNL     1       4.381   2.178  19.799  0.00  0.00    +0.000 A 
ATOM      9  N   UNL     1       4.314   3.528  19.730  0.00  0.00    +0.000 NA
ENDROOT
BRANCH   3  10
ATOM     10  C   UNL     1       5.011   6.226  18.577  0.00  0.00    +0.000 C 
ATOM     11  C   UNL     1       5.311   7.003  17.277  0.00  0.00    +0.000 C 
ATOM     12  C   UNL     1       5.624   6.059  16.115  0.00  0.00    +0.000 C 
ATOM     13  N   UNL     1       6.768   5.172  16.384  0.00  0.00    +0.000 NA
ATOM     14  C   UNL     1       6.620   4.456  17.660  0.00  0.00    +0.000 C 
ATOM     15  C   UNL     1       6.300   5.404  18.822  0.00  0.00    +0.000 C 
BRANCH  13  16
ATOM     16  C   UNL     1       6.947   4.192  15.290  0.00  0.00    +0.000 C 
BRANCH  16  17
ATOM     17  C   UNL     1       6.810   4.831  13.901  0.00  0.00    +0.000 C 
BRANCH  17  18
ATOM     18  C   UNL     1       6.337   3.854  12.857  0.00  0.00    +0.000 A 
ATOM     19  C   UNL     1       7.262   3.040  12.187  0.00  0.00    +0.000 A 
ATOM     20  C   UNL     1       6.828   2.118  11.237  0.00  0.00    +0.000 A 
ATOM     21  C   UNL     1       5.469   2.002  10.947  0.00  0.00    +0.000 A 
ATOM     22  C   UNL     1       4.544   2.814  11.602  0.00  0.00    +0.000 A 
ATOM     23  C   UNL     1       4.975   3.740  12.552  0.00  0.00    +0.000 A 
ENDBRANCH  17  18
ENDBRANCH  16  17
ENDBRANCH  13  16
ENDBRANCH   3  10
BRANCH   2  24
ATOM     24  C   UNL     1       2.210   7.500  18.513  0.00  0.00    +0.000 A 
ATOM     25  C   UNL     1       2.228   8.453  17.507  0.00  0.00    +0.000 A 
ATOM     26  C   UNL     1       1.866   9.685  18.091  0.00  0.00    +0.000 A 
ATOM     27  C   UNL     1       1.645   9.418  19.420  0.00  0.00    +0.000 A 
ATOM     28  O   UNL     1       1.854   8.103  19.688  0.00  0.00    +0.000 OA
ENDBRANCH   2  24
TORSDOF 5
ENDMDL
MODEL 2
REMARK VINA RESULT:      -7.5      0.596      1.177
REMARK  Name = 
REMARK  5 active torsions:
REMARK  status: ('A' for Active; 'I' for Inactive)
REMARK    1  A    between atoms: C_2  and  C_3
REMARK    2  A    between atoms: N_8  and  C_15
REMARK    3  A    between atoms: N_18  and  C_19
REMARK    4  A    between atoms: C_19  and  C_20
REMARK    5  A    between atoms: C_20  and  C_21
REMARK                            x       y       z     vdW  Elec       q    Type
REMARK                         _______ _______ _______ _____ _____    ______ ____
ROOT
ATOM      1  O   UNL     1       1.417   5.158  17.940  0.00  0.00    +0.000 OA
ATOM      2  C   UNL     1       2.368   5.882  18.220  0.00  0.00    +0.000 C 
ATOM      3  N   UNL     1       3.655   5.345  18.448  0.00  0.00    +0.000 N 
ATOM      4  C   UNL     1       3.694   3.929  18.596  0.00  0.00    +0.000 A 
ATOM      5  C   UNL     1       3.287   3.117  17.534  0.00  0.00    +0.000 A 
ATOM      6  C   UNL     1       3.431   1.737  17.630  0.00  0.00    +0.000 A 
ATOM      7  C   UNL     1       3.945   1.193  18.796  0.00  0.00    +0.000 A 
ATOM      8  C   UNL     1       4.312   2.059  19.811  0.00  0.00    +0.000 A 
ATOM      9  N   UNL     1       4.215   3.406  19.728  0.00  0.00    +0.000 NA
ENDROOT
BRANCH   3  10
ATOM     10  C   UNL     1       4.933   6.119  18.621  0.00  0.00    +0.000 C 
ATOM     11  C   UNL     1       5.230   7.032  17.412  0.00  0.00    +0.000 C 
ATOM     12  C   UNL     1       5.604   6.220  16.171  0.00  0.00    +0.000 C 
ATOM     13  N   UNL     1       6.775   5.352  16.379  0.00  0.00    +0.000 NA
ATOM     14  C   UNL     1       6.628   4.507  17.574  0.00  0.00    +0.000 C 
ATOM     15  C   UNL     1       6.247   5.322  18.815  0.00  0.00    +0.000 C 
BRANCH  13  16
ATOM     16  C   UNL     1       7.015   4.494  15.198  0.00  0.00    +0.000 C 
BRANCH  16  17
ATOM     17  C   UNL     1       6.190   4.930  13.979  0.00  0.00    +0.000 C 
BRANCH  17  18
ATOM     18  C   UNL     1       6.120   3.865  12.915  0.00  0.00    +0.000 A 
ATOM     19  C   UNL     1       4.875   3.389  12.479  0.00  0.00    +0.000 A 
ATOM     20  C   UNL     1       4.804   2.422  11.480  0.00  0.00    +0.000 A 
ATOM     21  C   UNL     1       5.973   1.921  10.909  0.00  0.00    +0.000 A 
ATOM     22  C   UNL     1       7.215   2.383  11.343  0.00  0.00    +0.000 A 
ATOM     23  C   UNL     1       7.291   3.350  12.345  0.00  0.00    +0.000 A 
ENDBRANCH  17  18
ENDBRANCH  16  17
ENDBRANCH  13  16
ENDBRANCH   3  10
BRANCH   2  24
ATOM     24  C   UNL     1       2.114   7.315  18.315  0.00  0.00    +0.000 A 
ATOM     25  C   UNL     1       1.833   8.059  19.450  0.00  0.00    +0.000 A 
ATOM     26  C   UNL     1       1.777   9.414  19.059  0.00  0.00    +0.000 A 
ATOM     27  C   UNL     1       2.028   9.423  17.709  0.00  0.00    +0.000 A 
ATOM     28  O   UNL     1       2.229   8.161  17.247  0.00  0.00    +0.000 OA
ENDBRANCH   2  24
TORSDOF 5
ENDMDL
MODEL 3
REMARK VINA RESULT:      -7.2      2.289      7.213
REMARK  Name = 
REMARK  5 active torsions:
REMARK  status: ('A' for Active; 'I' for Inactive)
REMARK    1  A    between atoms: C_2  and  C_3
REMARK    2  A    between atoms: N_8  and  C_15
REMARK    3  A    between atoms: N_18  and  C_19
REMARK    4  A    between atoms: C_19  and  C_20
REMARK    5  A    between atoms: C_20  and  C_21
REMARK                            x       y       z     vdW  Elec       q    Type
REMARK                         _______ _______ _______ _____ _____    ______ ____
ROOT
ATOM      1  O   UNL     1       3.106   2.501  17.311  0.00  0.00    +0.000 OA
ATOM      2  C   UNL     1       3.417   3.234  18.246  0.00  0.00    +0.000 C 
ATOM      3  N   UNL     1       4.363   4.271  18.079  0.00  0.00    +0.000 N 
ATOM      4  C   UNL     1       5.102   4.215  16.863  0.00  0.00    +0.000 A 
ATOM      5  C   UNL     1       4.425   4.319  15.645  0.00  0.00    +0.000 A 
ATOM      6  C   UNL     1       5.150   4.383  14.460  0.00  0.00    +0.000 A 
ATOM      7  C   UNL     1       6.534   4.306  14.511  0.00  0.00    +0.000 A 
ATOM      8  C   UNL     1       7.132   4.189  15.753  0.00  0.00    +0.000 A 
ATOM      9  N   UNL     1       6.451   4.161  16.922  0.00  0.00    +0.000 NA
ENDROOT
BRANCH   3  10
ATOM     10  C   UNL     1       4.702   5.345  19.076  0.00  0.00    +0.000 C 
ATOM     11  C   UNL     1       3.490   5.734  19.949  0.00  0.00    +0.000 C 
ATOM     12  C   UNL     1       2.428   6.480  19.140  0.00  0.00    +0.000 C 
ATOM     13  N   UNL     1       2.941   7.707  18.507  0.00  0.00    +0.000 NA
ATOM     14  C   UNL     1       4.161   7.455  17.726  0.00  0.00    +0.000 C 
ATOM     15  C   UNL     1       5.221   6.701  18.538  0.00  0.00    +0.000 C 
BRANCH  13  16
ATOM     16  C   UNL     1       1.916   8.319  17.631  0.00  0.00    +0.000 C 
BRANCH  16  17
ATOM     17  C   UNL     1       1.825   9.841  17.809  0.00  0.00    +0.000 C 
BRANCH  17  18
ATOM     18  C   UNL     1       0.449  10.295  18.223  0.00  0.00    +0.000 A 
ATOM     19  C   UNL     1       0.302  11.282  19.209  0.00  0.00    +0.000 A 
ATOM     20  C   UNL     1      -0.966  11.722  19.579  0.00  0.00    +0.000 A 
ATOM     21  C   UNL     1      -2.097  11.180  18.970  0.00  0.00    +0.000 A 
ATOM     22  C   UNL     1      -1.960  10.191  17.996  0.00  0.00    +0.000 A 
ATOM     23  C   UNL     1      -0.692   9.746  17.625  0.00  0.00    +0.000 A 
ENDBRANCH  17  18
ENDBRANCH  16  17
ENDBRANCH  13  16
ENDBRANCH   3  10
BRANCH   2  24
ATOM     24  C   UNL     1       2.777   2.988  19.532  0.00  0.00    +0.000 A 
ATOM     25  C   UNL     1       1.425   3.028  19.835  0.00  0.00    +0.000 A 
ATOM     26  C   UNL     1       1.283   2.609  21.175  0.00  0.00    +0.000 A 
ATOM     27  C   UNL     1       2.554   2.334  21.616  0.00  0.00    +0.000 A 
ATOM     28  O   UNL     1       3.466   2.563  20.635  0.00  0.00    +0.000 OA
ENDBRANCH   2  24
TORSDOF 5
ENDMDL
MODEL 4
REMARK VINA RESULT:      -7.0      2.217      7.341
REMARK  Name = 
REMARK  5 active torsions:
REMARK  status: ('A' for Active; 'I' for Inactive)
REMARK    1  A    between atoms: C_2  and  C_3
REMARK    2  A    between atoms: N_8  and  C_15
REMARK    3  A    between atoms: N_18  and  C_19
REMARK    4  A    between atoms: C_19  and  C_20
REMARK    5  A    between atoms: C_20  and  C_21
REMARK                            x       y       z     vdW  Elec       q    Type
REMARK                         _______ _______ _______ _____ _____    ______ ____
ROOT
ATOM      1  O   UNL     1       3.156   2.510  17.276  0.00  0.00    +0.000 OA
ATOM      2  C   UNL     1       3.463   3.249  18.207  0.00  0.00    +0.000 C 
ATOM      3  N   UNL     1       4.405   4.288  18.038  0.00  0.00    +0.000 N 
ATOM      4  C   UNL     1       5.148   4.228  16.824  0.00  0.00    +0.000 A 
ATOM      5  C   UNL     1       4.474   4.323  15.603  0.00  0.00    +0.000 A 
ATOM      6  C   UNL     1       5.202   4.383  14.420  0.00  0.00    +0.000 A 
ATOM      7  C   UNL     1       6.585   4.310  14.475  0.00  0.00    +0.000 A 
ATOM      8  C   UNL     1       7.181   4.202  15.720  0.00  0.00    +0.000 A 
ATOM      9  N   UNL     1       6.496   4.178  16.887  0.00  0.00    +0.000 NA
ENDROOT
BRANCH   3  10
ATOM     10  C   UNL     1       4.738   5.368  19.029  0.00  0.00    +0.000 C 
ATOM     11  C   UNL     1       3.536   5.725  19.929  0.00  0.00    +0.000 C 
ATOM     12  C   UNL     1       2.439   6.446  19.145  0.00  0.00    +0.000 C 
ATOM     13  N   UNL     1       2.906   7.686  18.505  0.00  0.00    +0.000 NA
ATOM     14  C   UNL     1       4.116   7.466  17.697  0.00  0.00    +0.000 C 
ATOM     15  C   UNL     1       5.211   6.738  18.484  0.00  0.00    +0.000 C 
BRANCH  13  16
ATOM     16  C   UNL     1       1.848   8.274  17.652  0.00  0.00    +0.000 C 
BRANCH  16  17
ATOM     17  C   UNL     1       1.816   9.806  17.730  0.00  0.00    +0.000 C 
BRANCH  17  18
ATOM     18  C   UNL     1       1.164  10.310  18.991  0.00  0.00    +0.000 A 
ATOM     19  C   UNL     1       1.295  11.657  19.359  0.00  0.00    +0.000 A 
ATOM     20  C   UNL     1       0.676  12.133  20.512  0.00  0.00    +0.000 A 
ATOM     21  C   UNL     1      -0.077  11.269  21.307  0.00  0.00    +0.000 A 
ATOM     22  C   UNL     1      -0.204   9.926  20.953  0.00  0.00    +0.000 A 
ATOM     23  C   UNL     1       0.417   9.446  19.801  0.00  0.00    +0.000 A 
ENDBRANCH  17  18
ENDBRANCH  16  17
ENDBRANCH  13  16
ENDBRANCH   3  10
BRANCH   2  24
ATOM     24  C   UNL     1       2.819   3.007  19.493  0.00  0.00    +0.000 A 
ATOM     25  C   UNL     1       1.465   3.018  19.786  0.00  0.00    +0.000 A 
ATOM     26  C   UNL     1       1.324   2.618  21.132  0.00  0.00    +0.000 A 
ATOM     27  C   UNL     1       2.598   2.383  21.587  0.00  0.00    +0.000 A 
ATOM     28  O   UNL     1       3.511   2.619  20.608  0.00  0.00    +0.000 OA
ENDBRANCH   2  24
TORSDOF 5
ENDMDL
MODEL 5
REMARK VINA RESULT:      -6.9      2.121      7.317
REMARK  Name = 
REMARK  5 active torsions:
REMARK  status: ('A' for Active; 'I' for Inactive)
REMARK    1  A    between atoms: C_2  and  C_3
REMARK    2  A    between atoms: N_8  and  C_15
REMARK    3  A    between atoms: N_18  and  C_19
REMARK    4  A    between atoms: C_19  and  C_20
REMARK    5  A    between atoms: C_20  and  C_21
REMARK                            x       y       z     vdW  Elec       q    Type
REMARK                         _______ _______ _______ _____ _____    ______ ____
ROOT
ATOM      1  O   UNL     1       3.105   2.498  17.243  0.00  0.00    +0.000 OA
ATOM      2  C   UNL     1       3.399   3.209  18.200  0.00  0.00    +0.000 C 
ATOM      3  N   UNL     1       4.346   4.250  18.075  0.00  0.00    +0.000 N 
ATOM      4  C   UNL     1       5.106   4.225  16.871  0.00  0.00    +0.000 A 
ATOM      5  C   UNL     1       4.450   4.358  15.644  0.00  0.00    +0.000 A 
ATOM      6  C   UNL     1       5.196   4.450  14.474  0.00  0.00    +0.000 A 
ATOM      7  C   UNL     1       6.578   4.373  14.547  0.00  0.00    +0.000 A 
ATOM      8  C   UNL     1       7.155   4.227  15.796  0.00  0.00    +0.000 A 
ATOM      9  N   UNL     1       6.453   4.170  16.952  0.00  0.00    +0.000 NA
ENDROOT
BRANCH   3  10
ATOM     10  C   UNL     1       4.666   5.300  19.103  0.00  0.00    +0.000 C 
ATOM     11  C   UNL     1       3.437   5.674  19.958  0.00  0.00    +0.000 C 
ATOM     12  C   UNL     1       2.396   6.442  19.143  0.00  0.00    +0.000 C 
ATOM     13  N   UNL     1       2.926   7.681  18.550  0.00  0.00    +0.000 NA
ATOM     14  C   UNL     1       4.163   7.442  17.791  0.00  0.00    +0.000 C 
ATOM     15  C   UNL     1       5.202   6.667  18.608  0.00  0.00    +0.000 C 
BRANCH  13  16
ATOM     16  C   UNL     1       1.923   8.317  17.666  0.00  0.00    +0.000 C 
BRANCH  16  17
ATOM     17  C   UNL     1       1.867   9.840  17.842  0.00  0.00    +0.000 C 
BRANCH  17  18
ATOM     18  C   UNL     1       0.833  10.270  18.851  0.00  0.00    +0.000 A 
ATOM     19  C   UNL     1       0.923   9.829  20.179  0.00  0.00    +0.000 A 
ATOM     20  C   UNL     1      -0.016  10.241  21.121  0.00  0.00    +0.000 A 
ATOM     21  C   UNL     1      -1.053  11.094  20.745  0.00  0.00    +0.000 A 
ATOM     22  C   UNL     1      -1.155  11.529  19.424  0.00  0.00    +0.000 A 
ATOM     23  C   UNL     1      -0.218  11.116  18.478  0.00  0.00    +0.000 A 
ENDBRANCH  17  18
ENDBRANCH  16  17
ENDBRANCH  13  16
ENDBRANCH   3  10
BRANCH   2  24
ATOM     24  C   UNL     1       2.737   2.931  19.469  0.00  0.00    +0.000 A 
ATOM     25  C   UNL     1       3.314   2.519  20.661  0.00  0.00    +0.000 A 
ATOM     26  C   UNL     1       2.291   2.492  21.633  0.00  0.00    +0.000 A 
ATOM     27  C   UNL     1       1.148   2.889  20.984  0.00  0.00    +0.000 A 
ATOM     28  O   UNL     1       1.403   3.153  19.675  0.00  0.00    +0.000 OA
ENDBRANCH   2  24
TORSDOF 5
ENDMDL
MODEL 6
REMARK VINA RESULT:      -6.9      2.251      7.223
REMARK  Name = 
REMARK  5 active torsions:
REMARK  status: ('A' for Active; 'I' for Inactive)
REMARK    1  A    between atoms: C_2  and  C_3
REMARK    2  A    between atoms: N_8  and  C_15
REMARK    3  A    between atoms: N_18  and  C_19
REMARK    4  A    between atoms: C_19  and  C_20
REMARK    5  A    between atoms: C_20  and  C_21
REMARK                            x       y       z     vdW  Elec       q    Type
REMARK                         _______ _______ _______ _____ _____    ______ ____
ROOT
ATOM      1  O   UNL     1       3.078   2.546  17.325  0.00  0.00    +0.000 OA
ATOM      2  C   UNL     1       3.369   3.283  18.262  0.00  0.00    +0.000 C 
ATOM      3  N   UNL     1       4.326   4.312  18.114  0.00  0.00    +0.000 N 
ATOM      4  C   UNL     1       5.098   4.242  16.918  0.00  0.00    +0.000 A 
ATOM      5  C   UNL     1       4.454   4.342  15.682  0.00  0.00    +0.000 A 
ATOM      6  C   UNL     1       5.211   4.392  14.516  0.00  0.00    +0.000 A 
ATOM      7  C   UNL     1       6.592   4.306  14.605  0.00  0.00    +0.000 A 
ATOM      8  C   UNL     1       7.156   4.193  15.864  0.00  0.00    +0.000 A 
ATOM      9  N   UNL     1       6.444   4.178  17.014  0.00  0.00    +0.000 NA
ENDROOT
BRANCH   3  10
ATOM     10  C   UNL     1       4.647   5.390  19.111  0.00  0.00    +0.000 C 
ATOM     11  C   UNL     1       3.387   5.902  19.842  0.00  0.00    +0.000 C 
ATOM     12  C   UNL     1       2.477   6.699  18.907  0.00  0.00    +0.000 C 
ATOM     13  N   UNL     1       3.148   7.860  18.299  0.00  0.00    +0.000 NA
ATOM     14  C   UNL     1       4.418   7.488  17.658  0.00  0.00    +0.000 C 
ATOM     15  C   UNL     1       5.325   6.684  18.595  0.00  0.00    +0.000 C 
BRANCH  13  16
ATOM     16  C   UNL     1       2.271   8.518  17.305  0.00  0.00    +0.000 C 
BRANCH  16  17
ATOM     17  C   UNL     1       0.950   9.003  17.918  0.00  0.00    +0.000 C 
BRANCH  17  18
ATOM     18  C   UNL     1       1.125  10.224  18.783  0.00  0.00    +0.000 A 
ATOM     19  C   UNL     1       0.668  10.217  20.109  0.00  0.00    +0.000 A 
ATOM     20  C   UNL     1       0.847  11.334  20.920  0.00  0.00    +0.000 A 
ATOM     21  C   UNL     1       1.482  12.468  20.414  0.00  0.00    +0.000 A 
ATOM     22  C   UNL     1       1.931  12.487  19.094  0.00  0.00    +0.000 A 
ATOM     23  C   UNL     1       1.750  11.370  18.278  0.00  0.00    +0.000 A 
ENDBRANCH  17  18
ENDBRANCH  16  17
ENDBRANCH  13  16
ENDBRANCH   3  10
BRANCH   2  24
ATOM     24  C   UNL     1       2.693   3.051  19.533  0.00  0.00    +0.000 A 
ATOM     25  C   UNL     1       1.340   3.161  19.812  0.00  0.00    +0.000 A 
ATOM     26  C   UNL     1       1.151   2.727  21.142  0.00  0.00    +0.000 A 
ATOM     27  C   UNL     1       2.396   2.376  21.601  0.00  0.00    +0.000 A 
ATOM     28  O   UNL     1       3.337   2.571  20.640  0.00  0.00    +0.000 OA
ENDBRANCH   2  24
TORSDOF 5
ENDMDL
MODEL 7
REMARK VINA RESULT:      -6.9      2.439      7.449
REMARK  Name = 
REMARK  5 active torsions:
REMARK  status: ('A' for Active; 'I' for Inactive)
REMARK    1  A    between atoms: C_2  and  C_3
REMARK    2  A    between atoms: N_8  and  C_15
REMARK    3  A    between atoms: N_18  and  C_19
REMARK    4  A    between atoms: C_19  and  C_20
REMARK    5  A    between atoms: C_20  and  C_21
REMARK                            x       y       z     vdW  Elec       q    Type
REMARK                         _______ _______ _______ _____ _____    ______ ____
ROOT
ATOM      1  O   UNL     1       7.365   5.704  14.531  0.00  0.00    +0.000 OA
ATOM      2  C   UNL     1       6.591   4.792  14.808  0.00  0.00    +0.000 C 
ATOM      3  N   UNL     1       6.201   4.542  16.142  0.00  0.00    +0.000 N 
ATOM      4  C   UNL     1       6.968   5.228  17.127  0.00  0.00    +0.000 A 
ATOM      5  C   UNL     1       6.970   6.625  17.143  0.00  0.00    +0.000 A 
ATOM      6  C   UNL     1       7.622   7.299  18.170  0.00  0.00    +0.000 A 
ATOM      7  C   UNL     1       8.287   6.567  19.141  0.00  0.00    +0.000 A 
ATOM      8  C   UNL     1       8.252   5.187  19.051  0.00  0.00    +0.000 A 
ATOM      9  N   UNL     1       7.596   4.507  18.082  0.00  0.00    +0.000 NA
ENDROOT
BRANCH   3  10
ATOM     10  C   UNL     1       5.135   3.585  16.602  0.00  0.00    +0.000 C 
ATOM     11  C   UNL     1       3.715   4.085  16.257  0.00  0.00    +0.000 C 
ATOM     12  C   UNL     1       3.327   5.302  17.097  0.00  0.00    +0.000 C 
ATOM     13  N   UNL     1       3.375   5.045  18.545  0.00  0.00    +0.000 NA
ATOM     14  C   UNL     1       4.664   4.471  18.959  0.00  0.00    +0.000 C 
ATOM     15  C   UNL     1       5.054   3.254  18.113  0.00  0.00    +0.000 C 
BRANCH  13  16
ATOM     16  C   UNL     1       3.121   6.285  19.313  0.00  0.00    +0.000 C 
BRANCH  16  17
ATOM     17  C   UNL     1       3.006   7.520  18.409  0.00  0.00    +0.000 C 
BRANCH  17  18
ATOM     18  C   UNL     1       1.912   8.459  18.846  0.00  0.00    +0.000 A 
ATOM     19  C   UNL     1       1.259   9.265  17.901  0.00  0.00    +0.000 A 
ATOM     20  C   UNL     1       0.231  10.117  18.296  0.00  0.00    +0.000 A 
ATOM     21  C   UNL     1      -0.153  10.173  19.635  0.00  0.00    +0.000 A 
ATOM     22  C   UNL     1       0.497   9.382  20.582  0.00  0.00    +0.000 A 
ATOM     23  C   UNL     1       1.529   8.529  20.191  0.00  0.00    +0.000 A 
ENDBRANCH  17  18
ENDBRANCH  16  17
ENDBRANCH  13  16
ENDBRANCH   3  10
BRANCH   2  24
ATOM     24  C   UNL     1       6.098   3.975  13.705  0.00  0.00    +0.000 A 
ATOM     25  C   UNL     1       4.847   4.010  13.110  0.00  0.00    +0.000 A 
ATOM     26  C   UNL     1       4.878   3.118  12.016  0.00  0.00    +0.000 A 
ATOM     27  C   UNL     1       6.146   2.589  12.003  0.00  0.00    +0.000 A 
ATOM     28  O   UNL     1       6.890   3.095  13.020  0.00  0.00    +0.000 OA
ENDBRANCH   2  24
TORSDOF 5
ENDMDL
MODEL 8
REMARK VINA RESULT:      -6.8      2.137      7.152
REMARK  Name = 
REMARK  5 active torsions:
REMARK  status: ('A' for Active; 'I' for Inactive)
REMARK    1  A    between atoms: C_2  and  C_3
REMARK    2  A    between atoms: N_8  and  C_15
REMARK    3  A    between atoms: N_18  and  C_19
REMARK    4  A    between atoms: C_19  and  C_20
REMARK    5  A    between atoms: C_20  and  C_21
REMARK                            x       y       z     vdW  Elec       q    Type
REMARK                         _______ _______ _______ _____ _____    ______ ____
ROOT
ATOM      1  O   UNL     1       3.116   2.503  17.255  0.00  0.00    +0.000 OA
ATOM      2  C   UNL     1       3.389   3.218  18.216  0.00  0.00    +0.000 C 
ATOM      3  N   UNL     1       4.337   4.259  18.107  0.00  0.00    +0.000 N 
ATOM      4  C   UNL     1       5.124   4.229  16.920  0.00  0.00    +0.000 A 
ATOM      5  C   UNL     1       4.495   4.356  15.679  0.00  0.00    +0.000 A 
ATOM      6  C   UNL     1       5.266   4.445  14.525  0.00  0.00    +0.000 A 
ATOM      7  C   UNL     1       6.647   4.369  14.629  0.00  0.00    +0.000 A 
ATOM      8  C   UNL     1       7.196   4.228  15.891  0.00  0.00    +0.000 A 
ATOM      9  N   UNL     1       6.469   4.176  17.031  0.00  0.00    +0.000 NA
ENDROOT
BRANCH   3  10
ATOM     10  C   UNL     1       4.634   5.313  19.138  0.00  0.00    +0.000 C 
ATOM     11  C   UNL     1       3.361   5.787  19.871  0.00  0.00    +0.000 C 
ATOM     12  C   UNL     1       2.449   6.598  18.951  0.00  0.00    +0.000 C 
ATOM     13  N   UNL     1       3.109   7.785  18.382  0.00  0.00    +0.000 NA
ATOM     14  C   UNL     1       4.389   7.447  17.741  0.00  0.00    +0.000 C 
ATOM     15  C   UNL     1       5.299   6.630  18.663  0.00  0.00    +0.000 C 
BRANCH  13  16
ATOM     16  C   UNL     1       2.231   8.458  17.398  0.00  0.00    +0.000 C 
BRANCH  16  17
ATOM     17  C   UNL     1       0.995   9.092  18.053  0.00  0.00    +0.000 C 
BRANCH  17  18
ATOM     18  C   UNL     1       1.249  10.499  18.529  0.00  0.00    +0.000 A 
ATOM     19  C   UNL     1       2.255  11.272  17.931  0.00  0.00    +0.000 A 
ATOM     20  C   UNL     1       2.478  12.581  18.352  0.00  0.00    +0.000 A 
ATOM     21  C   UNL     1       1.702  13.127  19.374  0.00  0.00    +0.000 A 
ATOM     22  C   UNL     1       0.706  12.361  19.980  0.00  0.00    +0.000 A 
ATOM     23  C   UNL     1       0.482  11.050  19.563  0.00  0.00    +0.000 A 
ENDBRANCH  17  18
ENDBRANCH  16  17
ENDBRANCH  13  16
ENDBRANCH   3  10
BRANCH   2  24
ATOM     24  C   UNL     1       2.699   2.944  19.471  0.00  0.00    +0.000 A 
ATOM     25  C   UNL     1       3.242   2.488  20.662  0.00  0.00    +0.000 A 
ATOM     26  C   UNL     1       2.206   2.486  21.620  0.00  0.00    +0.000 A 
ATOM     27  C   UNL     1       1.089   2.941  20.964  0.00  0.00    +0.000 A 
ATOM     28  O   UNL     1       1.373   3.217  19.664  0.00  0.00    +0.000 OA
ENDBRANCH   2  24
TORSDOF 5
ENDMDL
MODEL 9
REMARK VINA RESULT:      -6.8      2.497      7.653
REMARK  Name = 
REMARK  5 active torsions:
REMARK  status: ('A' for Active; 'I' for Inactive)
REMARK    1  A    between atoms: C_2  and  C_3
REMARK    2  A    between atoms: N_8  and  C_15
REMARK    3  A    between atoms: N_18  and  C_19
REMARK    4  A    between atoms: C_19  and  C_20
REMARK    5  A    between atoms: C_20  and  C_21
REMARK                            x       y       z     vdW  Elec       q    Type
REMARK                         _______ _______ _______ _____ _____    ______ ____
ROOT
ATOM      1  O   UNL     1       7.397   5.682  14.495  0.00  0.00    +0.000 OA
ATOM      2  C   UNL     1       6.619   4.774  14.773  0.00  0.00    +0.000 C 
ATOM      3  N   UNL     1       6.222   4.534  16.107  0.00  0.00    +0.000 N 
ATOM      4  C   UNL     1       6.986   5.223  17.091  0.00  0.00    +0.000 A 
ATOM      5  C   UNL     1       6.994   6.620  17.098  0.00  0.00    +0.000 A 
ATOM      6  C   UNL     1       7.642   7.298  18.125  0.00  0.00    +0.000 A 
ATOM      7  C   UNL     1       8.300   6.570  19.103  0.00  0.00    +0.000 A 
ATOM      8  C   UNL     1       8.262   5.189  19.022  0.00  0.00    +0.000 A 
ATOM      9  N   UNL     1       7.608   4.506  18.053  0.00  0.00    +0.000 NA
ENDROOT
BRANCH   3  10
ATOM     10  C   UNL     1       5.150   3.584  16.567  0.00  0.00    +0.000 C 
ATOM     11  C   UNL     1       3.732   4.115  16.268  0.00  0.00    +0.000 C 
ATOM     12  C   UNL     1       3.384   5.318  17.146  0.00  0.00    +0.000 C 
ATOM     13  N   UNL     1       3.460   5.023  18.587  0.00  0.00    +0.000 NA
ATOM     14  C   UNL     1       4.749   4.418  18.956  0.00  0.00    +0.000 C 
ATOM     15  C   UNL     1       5.098   3.216  18.071  0.00  0.00    +0.000 C 
BRANCH  13  16
ATOM     16  C   UNL     1       3.245   6.247  19.390  0.00  0.00    +0.000 C 
BRANCH  16  17
ATOM     17  C   UNL     1       2.576   7.368  18.583  0.00  0.00    +0.000 C 
BRANCH  17  18
ATOM     18  C   UNL     1       1.755   8.293  19.445  0.00  0.00    +0.000 A 
ATOM     19  C   UNL     1       1.497   7.961  20.783  0.00  0.00    +0.000 A 
ATOM     20  C   UNL     1       0.759   8.822  21.590  0.00  0.00    +0.000 A 
ATOM     21  C   UNL     1       0.271  10.020  21.069  0.00  0.00    +0.000 A 
ATOM     22  C   UNL     1       0.515  10.353  19.737  0.00  0.00    +0.000 A 
ATOM     23  C   UNL     1       1.252   9.491  18.925  0.00  0.00    +0.000 A 
ENDBRANCH  17  18
ENDBRANCH  16  17
ENDBRANCH  13  16
ENDBRANCH   3  10
BRANCH   2  24
ATOM     24  C   UNL     1       6.129   3.952  13.673  0.00  0.00    +0.000 A 
ATOM     25  C   UNL     1       4.872   3.969  13.089  0.00  0.00    +0.000 A 
ATOM     26  C   UNL     1       4.907   3.080  11.993  0.00  0.00    +0.000 A 
ATOM     27  C   UNL     1       6.182   2.571  11.967  0.00  0.00    +0.000 A 
ATOM     28  O   UNL     1       6.928   3.086  12.979  0.00  0.00    +0.000 OA
ENDBRANCH   2  24
TORSDOF 5
ENDMDL
