MODEL 1
REMARK VINA RESULT:      -8.1      0.000      0.000
REMARK  Name = 
REMARK  8 active torsions:
REMARK  status: ('A' for Active; 'I' for Inactive)
REMARK    1  A    between atoms: C_1  and  C_2
REMARK    2  A    between atoms: C_2  and  N_3
REMARK    3  A    between atoms: C_8  and  C_9
REMARK    4  A    between atoms: N_16  and  C_17
REMARK    5  A    between atoms: C_17  and  C_18
REMARK    6  A    between atoms: N_20  and  C_21
REMARK    7  A    between atoms: C_26  and  O_27
REMARK    8  A    between atoms: O_27  and  C_28
REMARK                            x       y       z     vdW  Elec       q    Type
REMARK                         _______ _______ _______ _____ _____    ______ ____
ROOT
ATOM      1  N   UNL     1       3.861   4.746  18.676  0.00  0.00    +0.000 NA
ATOM      2  C   UNL     1       2.880   4.236  19.650  0.00  0.00    +0.000 C 
ATOM      3  C   UNL     1       2.540   5.300  20.708  0.00  0.00    +0.000 C 
ATOM      4  C   UNL     1       2.207   6.637  20.090  0.00  0.00    +0.000 A 
ATOM      5  N   UNL     1       1.533   7.522  20.875  0.00  0.00    +0.000 NA
ATOM      6  C   UNL     1       1.251   8.705  20.425  0.00  0.00    +0.000 A 
ATOM      7  N   UNL     1       1.569   9.097  19.118  0.00  0.00    +0.000 N 
ATOM      8  C   UNL     1       2.186   8.185  18.260  0.00  0.00    +0.000 A 
ATOM      9  O   UNL     1       2.452   8.419  17.078  0.00  0.00    +0.000 OA
ATOM     10  C   UNL     1       2.556   6.878  18.825  0.00  0.00    +0.000 A 
ATOM     11  C   UNL     1       3.307   5.915  17.952  0.00  0.00    +0.000 C 
ENDROOT
BRANCH   6  12
ATOM     12  C   UNL     1       0.493   9.580  21.397  0.00  0.00    +0.000 A 
ATOM     13  C   UNL     1      -0.400   9.140  22.377  0.00  0.00    +0.000 A 
ATOM     14  C   UNL     1      -1.104  10.056  23.169  0.00  0.00    +0.000 A 
ATOM     15  C   UNL     1      -0.970  11.418  22.944  0.00  0.00    +0.000 A 
ATOM     16  F   UNL     1      -1.690  12.284  23.668  0.00  0.00    +0.000 F 
ATOM     17  C   UNL     1      -0.125  11.889  21.953  0.00  0.00    +0.000 A 
ATOM     18  C   UNL     1       0.610  10.975  21.193  0.00  0.00    +0.000 A 
ENDBRANCH   6  12
BRANCH   1  20
ATOM     19  C   UNL     1       3.517   2.357  17.960  0.00  0.00    +0.000 C 
ATOM     20  C   UNL     1       4.267   3.670  17.754  0.00  0.00    +0.000 C 
ENDBRANCH   1  20
BRANCH   7  21
ATOM     21  C   UNL     1       1.472  10.445  18.550  0.00  0.00    +0.000 C 
BRANCH  21  22
ATOM     22  C   UNL     1       0.146  11.057  18.097  0.00  0.00    +0.000 C 
ATOM     23  O   UNL     1       0.039  12.286  18.112  0.00  0.00    +0.000 OA
ATOM     24  N   UNL     1      -0.899  10.207  17.756  0.00  0.00    +0.000 N 
ATOM     25  H   UNL     1      -0.973   9.408  18.373  0.00  0.00    +0.000 HD
BRANCH  24  26
ATOM     26  C   UNL     1      -2.136  10.840  17.430  0.00  0.00    +0.000 A 
ATOM     27  C   UNL     1      -2.571  10.710  16.098  0.00  0.00    +0.000 A 
ATOM     28  C   UNL     1      -3.878  11.066  15.742  0.00  0.00    +0.000 A 
ATOM     29  C   UNL     1      -4.739  11.598  16.696  0.00  0.00    +0.000 A 
ATOM     30  C   UNL     1      -4.285  11.798  17.999  0.00  0.00    +0.000 A 
ATOM     31  C   UNL     1      -2.988  11.423  18.388  0.00  0.00    +0.000 A 
BRANCH  31  32
ATOM     32  O   UNL     1      -2.761  11.709  19.707  0.00  0.00    +0.000 OA
ATOM     33  C   UNL     1      -3.343  12.858  20.295  0.00  0.00    +0.000 C 
ENDBRANCH  31  32
ENDBRANCH  24  26
ENDBRANCH  21  22
ENDBRANCH   7  21
TORSDOF 6
ENDMDL
MODEL 2
REMARK VINA RESULT:      -8.1      2.619      4.494
REMARK  Name = 
REMARK  8 active torsions:
REMARK  status: ('A' for Active; 'I' for Inactive)
REMARK    1  A    between atoms: C_1  and  C_2
REMARK    2  A    between atoms: C_2  and  N_3
REMARK    3  A    between atoms: C_8  and  C_9
REMARK    4  A    between atoms: N_16  and  C_17
REMARK    5  A    between atoms: C_17  and  C_18
REMARK    6  A    between atoms: N_20  and  C_21
REMARK    7  A    between atoms: C_26  and  O_27
REMARK    8  A    between atoms: O_27  and  C_28
REMARK                            x       y       z     vdW  Elec       q    Type
REMARK                         _______ _______ _______ _____ _____    ______ ____
ROOT
ATOM      1  N   UNL     1       3.542   5.305  18.336  0.00  0.00    +0.000 NA
ATOM      2  C   UNL     1       4.344   6.393  17.752  0.00  0.00    +0.000 C 
ATOM      3  C   UNL     1       3.458   7.580  17.336  0.00  0.00    +0.000 C 
ATOM      4  C   UNL     1       2.503   7.993  18.430  0.00  0.00    +0.000 A 
ATOM      5  N   UNL     1       1.958   9.236  18.328  0.00  0.00    +0.000 NA
ATOM      6  C   UNL     1       1.096   9.642  19.209  0.00  0.00    +0.000 A 
ATOM      7  N   UNL     1       0.741   8.859  20.314  0.00  0.00    +0.000 N 
ATOM      8  C   UNL     1       1.344   7.613  20.494  0.00  0.00    +0.000 A 
ATOM      9  O   UNL     1       1.138   6.879  21.464  0.00  0.00    +0.000 OA
ATOM     10  C   UNL     1       2.260   7.154  19.439  0.00  0.00    +0.000 A 
ATOM     11  C   UNL     1       2.848   5.778  19.559  0.00  0.00    +0.000 C 
ENDROOT
BRANCH   6  12
ATOM     12  C   UNL     1       0.579  11.044  18.979  0.00  0.00    +0.000 A 
ATOM     13  C   UNL     1      -0.624  11.386  18.358  0.00  0.00    +0.000 A 
ATOM     14  C   UNL     1      -0.958  12.728  18.132  0.00  0.00    +0.000 A 
ATOM     15  C   UNL     1      -0.063  13.734  18.466  0.00  0.00    +0.000 A 
ATOM     16  F   UNL     1      -0.368  15.009  18.194  0.00  0.00    +0.000 F 
ATOM     17  C   UNL     1       1.157  13.428  19.045  0.00  0.00    +0.000 A 
ATOM     18  C   UNL     1       1.469  12.092  19.310  0.00  0.00    +0.000 A 
ENDBRANCH   6  12
BRANCH   1  20
ATOM     19  C   UNL     1       3.965   2.868  17.870  0.00  0.00    +0.000 C 
ATOM     20  C   UNL     1       4.394   4.134  18.606  0.00  0.00    +0.000 C 
ENDBRANCH   1  20
BRANCH   7  21
ATOM     21  C   UNL     1      -0.339   9.118  21.271  0.00  0.00    +0.000 C 
BRANCH  21  22
ATOM     22  C   UNL     1      -0.409  10.392  22.113  0.00  0.00    +0.000 C 
ATOM     23  O   UNL     1       0.242  10.432  23.160  0.00  0.00    +0.000 OA
ATOM     24  N   UNL     1      -1.250  11.418  21.701  0.00  0.00    +0.000 N 
ATOM     25  H   UNL     1      -2.135  11.081  21.343  0.00  0.00    +0.000 HD
BRANCH  24  26
ATOM     26  C   UNL     1      -1.338  12.542  22.578  0.00  0.00    +0.000 A 
ATOM     27  C   UNL     1      -0.402  13.570  22.370  0.00  0.00    +0.000 A 
ATOM     28  C   UNL     1      -0.563  14.812  22.995  0.00  0.00    +0.000 A 
ATOM     29  C   UNL     1      -1.626  15.020  23.869  0.00  0.00    +0.000 A 
ATOM     30  C   UNL     1      -2.512  13.977  24.134  0.00  0.00    +0.000 A 
ATOM     31  C   UNL     1      -2.389  12.731  23.498  0.00  0.00    +0.000 A 
BRANCH  31  32
ATOM     32  O   UNL     1      -3.364  11.862  23.908  0.00  0.00    +0.000 OA
ATOM     33  C   UNL     1      -4.511  12.349  24.581  0.00  0.00    +0.000 C 
ENDBRANCH  31  32
ENDBRANCH  24  26
ENDBRANCH  21  22
ENDBRANCH   7  21
TORSDOF 6
ENDMDL
MODEL 3
REMARK VINA RESULT:      -7.5      3.221      5.819
REMARK  Name = 
REMARK  8 active torsions:
REMARK  status: ('A' for Active; 'I' for Inactive)
REMARK    1  A    between atoms: C_1  and  C_2
REMARK    2  A    between atoms: C_2  and  N_3
REMARK    3  A    between atoms: C_8  and  C_9
REMARK    4  A    between atoms: N_16  and  C_17
REMARK    5  A    between atoms: C_17  and  C_18
REMARK    6  A    between atoms: N_20  and  C_21
REMARK    7  A    between atoms: C_26  and  O_27
REMARK    8  A    between atoms: O_27  and  C_28
REMARK                            x       y       z     vdW  Elec       q    Type
REMARK                         _______ _______ _______ _____ _____    ______ ____
ROOT
ATOM      1  N   UNL     1       7.089   5.054  14.530  0.00  0.00    +0.000 NA
ATOM      2  C   UNL     1       6.310   3.830  14.273  0.00  0.00    +0.000 C 
ATOM      3  C   UNL     1       5.771   3.226  15.582  0.00  0.00    +0.000 C 
ATOM      4  C   UNL     1       5.092   4.257  16.451  0.00  0.00    +0.000 A 
ATOM      5  N   UNL     1       4.260   3.785  17.421  0.00  0.00    +0.000 NA
ATOM      6  C   UNL     1       3.677   4.611  18.233  0.00  0.00    +0.000 A 
ATOM      7  N   UNL     1       3.826   5.999  18.114  0.00  0.00    +0.000 N 
ATOM      8  C   UNL     1       4.605   6.518  17.079  0.00  0.00    +0.000 A 
ATOM      9  O   UNL     1       4.748   7.724  16.860  0.00  0.00    +0.000 OA
ATOM     10  C   UNL     1       5.310   5.553  16.222  0.00  0.00    +0.000 A 
ATOM     11  C   UNL     1       6.231   6.085  15.163  0.00  0.00    +0.000 C 
ENDROOT
BRANCH   6  12
ATOM     12  C   UNL     1       2.775   3.953  19.253  0.00  0.00    +0.000 A 
ATOM     13  C   UNL     1       1.397   4.144  19.378  0.00  0.00    +0.000 A 
ATOM     14  C   UNL     1       0.680   3.536  20.417  0.00  0.00    +0.000 A 
ATOM     15  C   UNL     1       1.345   2.785  21.375  0.00  0.00    +0.000 A 
ATOM     16  F   UNL     1       0.659   2.255  22.395  0.00  0.00    +0.000 F 
ATOM     17  C   UNL     1       2.717   2.610  21.305  0.00  0.00    +0.000 A 
ATOM     18  C   UNL     1       3.424   3.181  20.244  0.00  0.00    +0.000 A 
ENDBRANCH   6  12
BRANCH   1  20
ATOM     19  C   UNL     1       7.432   4.649  12.070  0.00  0.00    +0.000 C 
ATOM     20  C   UNL     1       7.700   5.538  13.280  0.00  0.00    +0.000 C 
ENDBRANCH   1  20
BRANCH   7  21
ATOM     21  C   UNL     1       3.375   7.022  19.063  0.00  0.00    +0.000 C 
BRANCH  21  22
ATOM     22  C   UNL     1       2.258   8.014  18.738  0.00  0.00    +0.000 C 
ATOM     23  O   UNL     1       1.780   7.998  17.601  0.00  0.00    +0.000 OA
ATOM     24  N   UNL     1       1.879   8.933  19.709  0.00  0.00    +0.000 N 
ATOM     25  H   UNL     1       2.667   9.312  20.220  0.00  0.00    +0.000 HD
BRANCH  24  26
ATOM     26  C   UNL     1       0.897   9.890  19.312  0.00  0.00    +0.000 A 
ATOM     27  C   UNL     1      -0.427   9.625  19.707  0.00  0.00    +0.000 A 
ATOM     28  C   UNL     1      -1.411  10.615  19.596  0.00  0.00    +0.000 A 
ATOM     29  C   UNL     1      -1.095  11.853  19.045  0.00  0.00    +0.000 A 
ATOM     30  C   UNL     1       0.199  12.090  18.583  0.00  0.00    +0.000 A 
ATOM     31  C   UNL     1       1.211  11.124  18.708  0.00  0.00    +0.000 A 
BRANCH  31  32
ATOM     32  O   UNL     1       2.396  11.572  18.191  0.00  0.00    +0.000 OA
ATOM     33  C   UNL     1       2.696  12.956  18.199  0.00  0.00    +0.000 C 
ENDBRANCH  31  32
ENDBRANCH  24  26
ENDBRANCH  21  22
ENDBRANCH   7  21
TORSDOF 6
ENDMDL
MODEL 4
REMARK VINA RESULT:      -7.5      3.545      8.604
REMARK  Name = 
REMARK  8 active torsions:
REMARK  status: ('A' for Active; 'I' for Inactive)
REMARK    1  A    between atoms: C_1  and  C_2
REMARK    2  A    between atoms: C_2  and  N_3
REMARK    3  A    between atoms: C_8  and  C_9
REMARK    4  A    between atoms: N_16  and  C_17
REMARK    5  A    between atoms: C_17  and  C_18
REMARK    6  A    between atoms: N_20  and  C_21
REMARK    7  A    between atoms: C_26  and  O_27
REMARK    8  A    between atoms: O_27  and  C_28
REMARK                            x       y       z     vdW  Elec       q    Type
REMARK                         _______ _______ _______ _____ _____    ______ ____
ROOT
ATOM      1  N   UNL     1      -0.708  11.395  21.350  0.00  0.00    +0.000 NA
ATOM      2  C   UNL     1      -0.223  10.766  22.591  0.00  0.00    +0.000 C 
ATOM      3  C   UNL     1      -0.142   9.237  22.447  0.00  0.00    +0.000 C 
ATOM      4  C   UNL     1       0.572   8.817  21.185  0.00  0.00    +0.000 A 
ATOM      5  N   UNL     1       1.035   7.538  21.141  0.00  0.00    +0.000 NA
ATOM      6  C   UNL     1       1.621   7.095  20.072  0.00  0.00    +0.000 A 
ATOM      7  N   UNL     1       1.851   7.914  18.959  0.00  0.00    +0.000 N 
ATOM      8  C   UNL     1       1.464   9.255  19.003  0.00  0.00    +0.000 A 
ATOM      9  O   UNL     1       1.676  10.065  18.097  0.00  0.00    +0.000 OA
ATOM     10  C   UNL     1       0.738   9.704  20.201  0.00  0.00    +0.000 A 
ATOM     11  C   UNL     1       0.226  11.114  20.233  0.00  0.00    +0.000 C 
ENDROOT
BRANCH   6  12
ATOM     12  C   UNL     1       2.092   5.662  20.165  0.00  0.00    +0.000 A 
ATOM     13  C   UNL     1       3.419   5.237  20.272  0.00  0.00    +0.000 A 
ATOM     14  C   UNL     1       3.736   3.872  20.271  0.00  0.00    +0.000 A 
ATOM     15  C   UNL     1       2.739   2.925  20.099  0.00  0.00    +0.000 A 
ATOM     16  F   UNL     1       3.059   1.626  20.043  0.00  0.00    +0.000 F 
ATOM     17  C   UNL     1       1.418   3.313  19.948  0.00  0.00    +0.000 A 
ATOM     18  C   UNL     1       1.097   4.672  19.992  0.00  0.00    +0.000 A 
ENDBRANCH   6  12
BRANCH   1  20
ATOM     19  C   UNL     1      -1.101  13.243  23.014  0.00  0.00    +0.000 C 
ATOM     20  C   UNL     1      -0.900  12.842  21.556  0.00  0.00    +0.000 C 
ENDBRANCH   1  20
BRANCH   7  21
ATOM     21  C   UNL     1       2.331   7.498  17.638  0.00  0.00    +0.000 C 
BRANCH  21  22
ATOM     22  C   UNL     1       3.589   6.649  17.447  0.00  0.00    +0.000 C 
ATOM     23  O   UNL     1       3.451   5.433  17.291  0.00  0.00    +0.000 OA
ATOM     24  N   UNL     1       4.830   7.269  17.525  0.00  0.00    +0.000 N 
ATOM     25  H   UNL     1       4.877   7.963  18.261  0.00  0.00    +0.000 HD
BRANCH  24  26
ATOM     26  C   UNL     1       5.964   6.407  17.428  0.00  0.00    +0.000 A 
ATOM     27  C   UNL     1       6.678   6.181  18.618  0.00  0.00    +0.000 A 
ATOM     28  C   UNL     1       7.636   5.162  18.687  0.00  0.00    +0.000 A 
ATOM     29  C   UNL     1       7.925   4.399  17.559  0.00  0.00    +0.000 A 
ATOM     30  C   UNL     1       7.271   4.674  16.359  0.00  0.00    +0.000 A 
ATOM     31  C   UNL     1       6.286   5.670  16.271  0.00  0.00    +0.000 A 
BRANCH  31  32
ATOM     32  O   UNL     1       5.781   5.763  15.002  0.00  0.00    +0.000 OA
ATOM     33  C   UNL     1       5.621   4.597  14.215  0.00  0.00    +0.000 C 
ENDBRANCH  31  32
ENDBRANCH  24  26
ENDBRANCH  21  22
ENDBRANCH   7  21
TORSDOF 6
ENDMDL
MODEL 5
REMARK VINA RESULT:      -7.5      3.235      4.601
REMARK  Name = 
REMARK  8 active torsions:
REMARK  status: ('A' for Active; 'I' for Inactive)
REMARK    1  A    between atoms: C_1  and  C_2
REMARK    2  A    between atoms: C_2  and  N_3
REMARK    3  A    between atoms: C_8  and  C_9
REMARK    4  A    between atoms: N_16  and  C_17
REMARK    5  A    between atoms: C_17  and  C_18
REMARK    6  A    between atoms: N_20  and  C_21
REMARK    7  A    between atoms: C_26  and  O_27
REMARK    8  A    between atoms: O_27  and  C_28
REMARK                            x       y       z     vdW  Elec       q    Type
REMARK                         _______ _______ _______ _____ _____    ______ ____
ROOT
ATOM      1  N   UNL     1       3.734   6.022  18.617  0.00  0.00    +0.000 NA
ATOM      2  C   UNL     1       2.640   5.378  19.366  0.00  0.00    +0.000 C 
ATOM      3  C   UNL     1       2.057   6.327  20.427  0.00  0.00    +0.000 C 
ATOM      4  C   UNL     1       1.742   7.692  19.865  0.00  0.00    +0.000 A 
ATOM      5  N   UNL     1       0.888   8.468  20.587  0.00  0.00    +0.000 NA
ATOM      6  C   UNL     1       0.606   9.670  20.186  0.00  0.00    +0.000 A 
ATOM      7  N   UNL     1       1.111  10.189  18.988  0.00  0.00    +0.000 N 
ATOM      8  C   UNL     1       1.923   9.390  18.182  0.00  0.00    +0.000 A 
ATOM      9  O   UNL     1       2.366   9.739  17.085  0.00  0.00    +0.000 OA
ATOM     10  C   UNL     1       2.281   8.061  18.701  0.00  0.00    +0.000 A 
ATOM     11  C   UNL     1       3.230   7.218  17.900  0.00  0.00    +0.000 C 
ENDROOT
BRANCH   6  12
ATOM     12  C   UNL     1      -0.362  10.415  21.077  0.00  0.00    +0.000 A 
ATOM     13  C   UNL     1      -1.080  11.563  20.734  0.00  0.00    +0.000 A 
ATOM     14  C   UNL     1      -1.889  12.210  21.676  0.00  0.00    +0.000 A 
ATOM     15  C   UNL     1      -1.938  11.753  22.985  0.00  0.00    +0.000 A 
ATOM     16  F   UNL     1      -2.670  12.412  23.891  0.00  0.00    +0.000 F 
ATOM     17  C   UNL     1      -1.206  10.643  23.370  0.00  0.00    +0.000 A 
ATOM     18  C   UNL     1      -0.433   9.972  22.419  0.00  0.00    +0.000 A 
ENDBRANCH   6  12
BRANCH   1  20
ATOM     19  C   UNL     1       3.775   3.647  17.786  0.00  0.00    +0.000 C 
ATOM     20  C   UNL     1       4.359   5.053  17.700  0.00  0.00    +0.000 C 
ENDBRANCH   1  20
BRANCH   7  21
ATOM     21  C   UNL     1       1.020  11.575  18.516  0.00  0.00    +0.000 C 
BRANCH  21  22
ATOM     22  C   UNL     1       2.030  12.651  18.915  0.00  0.00    +0.000 C 
ATOM     23  O   UNL     1       2.267  12.808  20.116  0.00  0.00    +0.000 OA
ATOM     24  N   UNL     1       2.582  13.448  17.921  0.00  0.00    +0.000 N 
ATOM     25  H   UNL     1       1.909  13.719  17.215  0.00  0.00    +0.000 HD
BRANCH  24  26
ATOM     26  C   UNL     1       3.447  14.492  18.368  0.00  0.00    +0.000 A 
ATOM     27  C   UNL     1       4.819  14.318  18.112  0.00  0.00    +0.000 A 
ATOM     28  C   UNL     1       5.711  15.385  18.274  0.00  0.00    +0.000 A 
ATOM     29  C   UNL     1       5.251  16.613  18.739  0.00  0.00    +0.000 A 
ATOM     30  C   UNL     1       3.904  16.765  19.065  0.00  0.00    +0.000 A 
ATOM     31  C   UNL     1       2.984  15.719  18.885  0.00  0.00    +0.000 A 
BRANCH  31  32
ATOM     32  O   UNL     1       1.724  16.091  19.268  0.00  0.00    +0.000 OA
ATOM     33  C   UNL     1       0.950  16.934  18.436  0.00  0.00    +0.000 C 
ENDBRANCH  31  32
ENDBRANCH  24  26
ENDBRANCH  21  22
ENDBRANCH   7  21
TORSDOF 6
ENDMDL
MODEL 6
REMARK VINA RESULT:      -7.4      3.095      4.418
REMARK  Name = 
REMARK  8 active torsions:
REMARK  status: ('A' for Active; 'I' for Inactive)
REMARK    1  A    between atoms: C_1  and  C_2
REMARK    2  A    between atoms: C_2  and  N_3
REMARK    3  A    between atoms: C_8  and  C_9
REMARK    4  A    between atoms: N_16  and  C_17
REMARK    5  A    between atoms: C_17  and  C_18
REMARK    6  A    between atoms: N_20  and  C_21
REMARK    7  A    between atoms: C_26  and  O_27
REMARK    8  A    between atoms: O_27  and  C_28
REMARK                            x       y       z     vdW  Elec       q    Type
REMARK                         _______ _______ _______ _____ _____    ______ ____
ROOT
ATOM      1  N   UNL     1       3.537   5.788  19.085  0.00  0.00    +0.000 NA
ATOM      2  C   UNL     1       2.463   5.268  19.948  0.00  0.00    +0.000 C 
ATOM      3  C   UNL     1       1.948   6.351  20.912  0.00  0.00    +0.000 C 
ATOM      4  C   UNL     1       1.641   7.649  20.205  0.00  0.00    +0.000 A 
ATOM      5  N   UNL     1       0.838   8.529  20.863  0.00  0.00    +0.000 NA
ATOM      6  C   UNL     1       0.567   9.682  20.335  0.00  0.00    +0.000 A 
ATOM      7  N   UNL     1       1.031  10.043  19.063  0.00  0.00    +0.000 N 
ATOM      8  C   UNL     1       1.788   9.131  18.326  0.00  0.00    +0.000 A 
ATOM      9  O   UNL     1       2.191   9.336  17.178  0.00  0.00    +0.000 OA
ATOM     10  C   UNL     1       2.137   7.863  18.985  0.00  0.00    +0.000 A 
ATOM     11  C   UNL     1       3.031   6.906  18.251  0.00  0.00    +0.000 C 
ENDROOT
BRANCH   6  12
ATOM     12  C   UNL     1      -0.344  10.554  21.169  0.00  0.00    +0.000 A 
ATOM     13  C   UNL     1      -0.521  10.474  22.553  0.00  0.00    +0.000 A 
ATOM     14  C   UNL     1      -1.456  11.288  23.204  0.00  0.00    +0.000 A 
ATOM     15  C   UNL     1      -2.265  12.144  22.471  0.00  0.00    +0.000 A 
ATOM     16  F   UNL     1      -3.194  12.876  23.097  0.00  0.00    +0.000 F 
ATOM     17  C   UNL     1      -2.145  12.219  21.094  0.00  0.00    +0.000 A 
ATOM     18  C   UNL     1      -1.182  11.437  20.450  0.00  0.00    +0.000 A 
ENDBRANCH   6  12
BRANCH   1  20
ATOM     19  C   UNL     1       5.012   5.178  17.139  0.00  0.00    +0.000 C 
ATOM     20  C   UNL     1       4.100   4.701  18.264  0.00  0.00    +0.000 C 
ENDBRANCH   1  20
BRANCH   7  21
ATOM     21  C   UNL     1       0.951  11.365  18.435  0.00  0.00    +0.000 C 
BRANCH  21  22
ATOM     22  C   UNL     1       1.891  12.513  18.805  0.00  0.00    +0.000 C 
ATOM     23  O   UNL     1       2.110  12.721  20.001  0.00  0.00    +0.000 OA
ATOM     24  N   UNL     1       2.401  13.311  17.788  0.00  0.00    +0.000 N 
ATOM     25  H   UNL     1       1.717  13.518  17.071  0.00  0.00    +0.000 HD
BRANCH  24  26
ATOM     26  C   UNL     1       3.198  14.419  18.207  0.00  0.00    +0.000 A 
ATOM     27  C   UNL     1       4.591  14.267  18.085  0.00  0.00    +0.000 A 
ATOM     28  C   UNL     1       5.439  15.373  18.221  0.00  0.00    +0.000 A 
ATOM     29  C   UNL     1       4.910  16.623  18.528  0.00  0.00    +0.000 A 
ATOM     30  C   UNL     1       3.536  16.760  18.723  0.00  0.00    +0.000 A 
ATOM     31  C   UNL     1       2.662  15.673  18.565  0.00  0.00    +0.000 A 
BRANCH  31  32
ATOM     32  O   UNL     1       1.364  16.037  18.803  0.00  0.00    +0.000 OA
ATOM     33  C   UNL     1       0.862  16.048  20.127  0.00  0.00    +0.000 C 
ENDBRANCH  31  32
ENDBRANCH  24  26
ENDBRANCH  21  22
ENDBRANCH   7  21
TORSDOF 6
ENDMDL
MODEL 7
REMARK VINA RESULT:      -7.4      3.556      7.446
REMARK  Name = 
REMARK  8 active torsions:
REMARK  status: ('A' for Active; 'I' for Inactive)
REMARK    1  A    between atoms: C_1  and  C_2
REMARK    2  A    between atoms: C_2  and  N_3
REMARK    3  A    between atoms: C_8  and  C_9
REMARK    4  A    between atoms: N_16  and  C_17
REMARK    5  A    between atoms: C_17  and  C_18
REMARK    6  A    between atoms: N_20  and  C_21
REMARK    7  A    between atoms: C_26  and  O_27
REMARK    8  A    between atoms: O_27  and  C_28
REMARK                            x       y       z     vdW  Elec       q    Type
REMARK                         _______ _______ _______ _____ _____    ______ ____
ROOT
ATOM      1  N   UNL     1      -4.692  12.109  18.060  0.00  0.00    +0.000 NA
ATOM      2  C   UNL     1      -4.765  10.682  17.699  0.00  0.00    +0.000 C 
ATOM      3  C   UNL     1      -3.385  10.138  17.290  0.00  0.00    +0.000 C 
ATOM      4  C   UNL     1      -2.307  10.503  18.283  0.00  0.00    +0.000 A 
ATOM      5  N   UNL     1      -1.160   9.773  18.234  0.00  0.00    +0.000 NA
ATOM      6  C   UNL     1      -0.174  10.058  19.028  0.00  0.00    +0.000 A 
ATOM      7  N   UNL     1      -0.268  11.070  19.992  0.00  0.00    +0.000 N 
ATOM      8  C   UNL     1      -1.461  11.782  20.125  0.00  0.00    +0.000 A 
ATOM      9  O   UNL     1      -1.656  12.649  20.980  0.00  0.00    +0.000 OA
ATOM     10  C   UNL     1      -2.531  11.483  19.161  0.00  0.00    +0.000 A 
ATOM     11  C   UNL     1      -3.788  12.300  19.220  0.00  0.00    +0.000 C 
ENDROOT
BRANCH   6  12
ATOM     12  C   UNL     1       1.034   9.162  18.873  0.00  0.00    +0.000 A 
ATOM     13  C   UNL     1       1.867   9.089  17.753  0.00  0.00    +0.000 A 
ATOM     14  C   UNL     1       2.913   8.159  17.698  0.00  0.00    +0.000 A 
ATOM     15  C   UNL     1       3.095   7.253  18.732  0.00  0.00    +0.000 A 
ATOM     16  F   UNL     1       4.062   6.332  18.643  0.00  0.00    +0.000 F 
ATOM     17  C   UNL     1       2.262   7.270  19.838  0.00  0.00    +0.000 A 
ATOM     18  C   UNL     1       1.246   8.226  19.912  0.00  0.00    +0.000 A 
ENDBRANCH   6  12
BRANCH   1  20
ATOM     19  C   UNL     1      -6.712  13.267  17.104  0.00  0.00    +0.000 C 
ATOM     20  C   UNL     1      -6.043  12.636  18.321  0.00  0.00    +0.000 C 
ENDBRANCH   1  20
BRANCH   7  21
ATOM     21  C   UNL     1       0.818  11.608  20.817  0.00  0.00    +0.000 C 
BRANCH  21  22
ATOM     22  C   UNL     1       1.625  12.843  20.416  0.00  0.00    +0.000 C 
ATOM     23  O   UNL     1       2.132  13.522  21.313  0.00  0.00    +0.000 OA
ATOM     24  N   UNL     1       1.696  13.187  19.071  0.00  0.00    +0.000 N 
ATOM     25  H   UNL     1       0.815  13.063  18.588  0.00  0.00    +0.000 HD
BRANCH  24  26
ATOM     26  C   UNL     1       2.387  14.399  18.773  0.00  0.00    +0.000 A 
ATOM     27  C   UNL     1       3.733  14.271  18.385  0.00  0.00    +0.000 A 
ATOM     28  C   UNL     1       4.416  15.358  17.828  0.00  0.00    +0.000 A 
ATOM     29  C   UNL     1       3.782  16.590  17.702  0.00  0.00    +0.000 A 
ATOM     30  C   UNL     1       2.473  16.739  18.157  0.00  0.00    +0.000 A 
ATOM     31  C   UNL     1       1.755  15.657  18.693  0.00  0.00    +0.000 A 
BRANCH  31  32
ATOM     32  O   UNL     1       0.494  16.031  19.071  0.00  0.00    +0.000 OA
ATOM     33  C   UNL     1       0.253  16.479  20.392  0.00  0.00    +0.000 C 
ENDBRANCH  31  32
ENDBRANCH  24  26
ENDBRANCH  21  22
ENDBRANCH   7  21
TORSDOF 6
ENDMDL
MODEL 8
REMARK VINA RESULT:      -7.3      1.070      1.851
REMARK  Name = 
REMARK  8 active torsions:
REMARK  status: ('A' for Active; 'I' for Inactive)
REMARK    1  A    between atoms: C_1  and  C_2
REMARK    2  A    between atoms: C_2  and  N_3
REMARK    3  A    between atoms: C_8  and  C_9
REMARK    4  A    between atoms: N_16  and  C_17
REMARK    5  A    between atoms: C_17  and  C_18
REMARK    6  A    between atoms: N_20  and  C_21
REMARK    7  A    between atoms: C_26  and  O_27
REMARK    8  A    between atoms: O_27  and  C_28
REMARK                            x       y       z     vdW  Elec       q    Type
REMARK                         _______ _______ _______ _____ _____    ______ ____
ROOT
ATOM      1  N   UNL     1       3.710   4.247  19.136  0.00  0.00    +0.000 NA
ATOM      2  C   UNL     1       2.792   3.865  20.223  0.00  0.00    +0.000 C 
ATOM      3  C   UNL     1       2.512   5.051  21.160  0.00  0.00    +0.000 C 
ATOM      4  C   UNL     1       2.137   6.304  20.404  0.00  0.00    +0.000 A 
ATOM      5  N   UNL     1       1.509   7.280  21.114  0.00  0.00    +0.000 NA
ATOM      6  C   UNL     1       1.196   8.401  20.540  0.00  0.00    +0.000 A 
ATOM      7  N   UNL     1       1.432   8.628  19.178  0.00  0.00    +0.000 N 
ATOM      8  C   UNL     1       1.999   7.615  18.403  0.00  0.00    +0.000 A 
ATOM      9  O   UNL     1       2.192   7.701  17.187  0.00  0.00    +0.000 OA
ATOM     10  C   UNL     1       2.408   6.386  19.100  0.00  0.00    +0.000 A 
ATOM     11  C   UNL     1       3.108   5.321  18.308  0.00  0.00    +0.000 C 
ENDROOT
BRANCH   6  12
ATOM     12  C   UNL     1       0.494   9.391  21.441  0.00  0.00    +0.000 A 
ATOM     13  C   UNL     1      -0.440   9.084  22.433  0.00  0.00    +0.000 A 
ATOM     14  C   UNL     1      -1.082  10.100  23.153  0.00  0.00    +0.000 A 
ATOM     15  C   UNL     1      -0.844  11.430  22.843  0.00  0.00    +0.000 A 
ATOM     16  F   UNL     1      -1.505  12.393  23.498  0.00  0.00    +0.000 F 
ATOM     17  C   UNL     1       0.045  11.771  21.837  0.00  0.00    +0.000 A 
ATOM     18  C   UNL     1       0.717  10.757  21.150  0.00  0.00    +0.000 A 
ENDBRANCH   6  12
BRANCH   1  20
ATOM     19  C   UNL     1       2.862   2.330  17.742  0.00  0.00    +0.000 C 
ATOM     20  C   UNL     1       4.063   3.064  18.330  0.00  0.00    +0.000 C 
ENDBRANCH   1  20
BRANCH   7  21
ATOM     21  C   UNL     1       1.296   9.896  18.456  0.00  0.00    +0.000 C 
BRANCH  21  22
ATOM     22  C   UNL     1      -0.060  10.470  18.043  0.00  0.00    +0.000 C 
ATOM     23  O   UNL     1      -0.215  11.693  18.103  0.00  0.00    +0.000 OA
ATOM     24  N   UNL     1      -1.076   9.591  17.687  0.00  0.00    +0.000 N 
ATOM     25  H   UNL     1      -1.109   8.769  18.278  0.00  0.00    +0.000 HD
BRANCH  24  26
ATOM     26  C   UNL     1      -2.342  10.185  17.401  0.00  0.00    +0.000 A 
ATOM     27  C   UNL     1      -2.998  10.805  18.479  0.00  0.00    +0.000 A 
ATOM     28  C   UNL     1      -4.106  11.631  18.255  0.00  0.00    +0.000 A 
ATOM     29  C   UNL     1      -4.596  11.804  16.964  0.00  0.00    +0.000 A 
ATOM     30  C   UNL     1      -3.992  11.130  15.903  0.00  0.00    +0.000 A 
ATOM     31  C   UNL     1      -2.863  10.318  16.098  0.00  0.00    +0.000 A 
BRANCH  31  32
ATOM     32  O   UNL     1      -2.440   9.761  14.922  0.00  0.00    +0.000 OA
ATOM     33  C   UNL     1      -3.197   9.937  13.739  0.00  0.00    +0.000 C 
ENDBRANCH  31  32
ENDBRANCH  24  26
ENDBRANCH  21  22
ENDBRANCH   7  21
TORSDOF 6
ENDMDL
MODEL 9
REMARK VINA RESULT:      -7.2      3.661      8.194
REMARK  Name = 
REMARK  8 active torsions:
REMARK  status: ('A' for Active; 'I' for Inactive)
REMARK    1  A    between atoms: C_1  and  C_2
REMARK    2  A    between atoms: C_2  and  N_3
REMARK    3  A    between atoms: C_8  and  C_9
REMARK    4  A    between atoms: N_16  and  C_17
REMARK    5  A    between atoms: C_17  and  C_18
REMARK    6  A    between atoms: N_20  and  C_21
REMARK    7  A    between atoms: C_26  and  O_27
REMARK    8  A    between atoms: O_27  and  C_28
REMARK                            x       y       z     vdW  Elec       q    Type
REMARK                         _______ _______ _______ _____ _____    ______ ____
ROOT
ATOM      1  N   UNL     1      -5.005  13.592  23.078  0.00  0.00    +0.000 NA
ATOM      2  C   UNL     1      -4.512  14.972  23.228  0.00  0.00    +0.000 C 
ATOM      3  C   UNL     1      -3.003  15.059  22.944  0.00  0.00    +0.000 C 
ATOM      4  C   UNL     1      -2.620  14.369  21.657  0.00  0.00    +0.000 A 
ATOM      5  N   UNL     1      -1.415  14.703  21.119  0.00  0.00    +0.000 NA
ATOM      6  C   UNL     1      -1.002  14.119  20.037  0.00  0.00    +0.000 A 
ATOM      7  N   UNL     1      -1.788  13.181  19.355  0.00  0.00    +0.000 N 
ATOM      8  C   UNL     1      -3.063  12.878  19.833  0.00  0.00    +0.000 A 
ATOM      9  O   UNL     1      -3.848  12.110  19.270  0.00  0.00    +0.000 OA
ATOM     10  C   UNL     1      -3.470  13.503  21.101  0.00  0.00    +0.000 A 
ATOM     11  C   UNL     1      -4.797  13.120  21.687  0.00  0.00    +0.000 C 
ENDROOT
BRANCH   6  12
ATOM     12  C   UNL     1       0.347  14.593  19.546  0.00  0.00    +0.000 A 
ATOM     13  C   UNL     1       1.580  13.999  19.827  0.00  0.00    +0.000 A 
ATOM     14  C   UNL     1       2.773  14.579  19.377  0.00  0.00    +0.000 A 
ATOM     15  C   UNL     1       2.748  15.789  18.699  0.00  0.00    +0.000 A 
ATOM     16  F   UNL     1       3.897  16.362  18.322  0.00  0.00    +0.000 F 
ATOM     17  C   UNL     1       1.546  16.425  18.440  0.00  0.00    +0.000 A 
ATOM     18  C   UNL     1       0.353  15.824  18.851  0.00  0.00    +0.000 A 
ENDBRANCH   6  12
BRANCH   1  20
ATOM     19  C   UNL     1      -7.257  12.561  22.630  0.00  0.00    +0.000 C 
ATOM     20  C   UNL     1      -6.421  13.512  23.480  0.00  0.00    +0.000 C 
ENDBRANCH   1  20
BRANCH   7  21
ATOM     21  C   UNL     1      -1.373  12.325  18.239  0.00  0.00    +0.000 C 
BRANCH  21  22
ATOM     22  C   UNL     1      -0.776  10.933  18.445  0.00  0.00    +0.000 C 
ATOM     23  O   UNL     1      -1.550   9.975  18.529  0.00  0.00    +0.000 OA
ATOM     24  N   UNL     1       0.600  10.813  18.596  0.00  0.00    +0.000 N 
ATOM     25  H   UNL     1       0.998  11.549  19.166  0.00  0.00    +0.000 HD
BRANCH  24  26
ATOM     26  C   UNL     1       1.084   9.499  18.876  0.00  0.00    +0.000 A 
ATOM     27  C   UNL     1       1.669   8.808  17.800  0.00  0.00    +0.000 A 
ATOM     28  C   UNL     1       2.399   7.634  18.024  0.00  0.00    +0.000 A 
ATOM     29  C   UNL     1       2.506   7.116  19.311  0.00  0.00    +0.000 A 
ATOM     30  C   UNL     1       1.863   7.759  20.367  0.00  0.00    +0.000 A 
ATOM     31  C   UNL     1       1.149   8.953  20.173  0.00  0.00    +0.000 A 
BRANCH  31  32
ATOM     32  O   UNL     1       0.604   9.405  21.345  0.00  0.00    +0.000 OA
ATOM     33  C   UNL     1      -0.449   8.687  21.962  0.00  0.00    +0.000 C 
ENDBRANCH  31  32
ENDBRANCH  24  26
ENDBRANCH  21  22
ENDBRANCH   7  21
TORSDOF 6
ENDMDL
