MODEL 1
REMARK VINA RESULT:      -7.0      0.000      0.000
REMARK  Name = 
REMARK  7 active torsions:
REMARK  status: ('A' for Active; 'I' for Inactive)
REMARK    1  A    between atoms: C_1  and  S_2
REMARK    2  A    between atoms: S_2  and  C_5
REMARK    3  A    between atoms: C_8  and  O_9
REMARK    4  A    between atoms: O_9  and  C_10
REMARK    5  A    between atoms: C_10  and  C_11
REMARK    6  A    between atoms: C_11  and  C_12
REMARK    7  A    between atoms: C_12  and  C_13
REMARK                            x       y       z     vdW  Elec       q    Type
REMARK                         _______ _______ _______ _____ _____    ______ ____
ROOT
ATOM      1  C   UNL     1       5.663   5.267  17.380  0.00  0.00    +0.000 A 
ATOM      2  C   UNL     1       5.803   5.299  18.763  0.00  0.00    +0.000 A 
ATOM      3  C   UNL     1       4.696   5.567  19.553  0.00  0.00    +0.000 A 
ATOM      4  C   UNL     1       3.443   5.818  18.990  0.00  0.00    +0.000 A 
ATOM      5  C   UNL     1       3.308   5.799  17.592  0.00  0.00    +0.000 A 
ATOM      6  C   UNL     1       4.424   5.530  16.783  0.00  0.00    +0.000 A 
ENDROOT
BRANCH   1   8
ATOM      7  C   UNL     1       6.448   3.788  15.173  0.00  0.00    +0.000 C 
ATOM      8  S   UNL     1       7.092   4.896  16.401  0.00  0.00    +0.000 S 
ATOM      9  O   UNL     1       8.012   4.141  17.240  0.00  0.00    +0.000 OA
ATOM     10  O   UNL     1       7.506   6.115  15.751  0.00  0.00    +0.000 OA
ENDBRANCH   1   8
BRANCH   4  11
ATOM     11  O   UNL     1       2.325   6.087  19.745  0.00  0.00    +0.000 OA
BRANCH  11  12
ATOM     12  C   UNL     1       2.104   5.156  20.821  0.00  0.00    +0.000 C 
BRANCH  12  13
ATOM     13  C   UNL     1       0.968   4.211  20.485  0.00  0.00    +0.000 C 
BRANCH  13  14
ATOM     14  C   UNL     1       1.397   2.750  20.640  0.00  0.00    +0.000 C 
BRANCH  14  15
ATOM     15  C   UNL     1       2.526   2.416  19.728  0.00  0.00    +0.000 A 
ATOM     16  C   UNL     1       3.840   2.142  20.036  0.00  0.00    +0.000 A 
ATOM     17  N   UNL     1       4.438   1.869  18.836  0.00  0.00    +0.000 N 
ATOM     18  C   UNL     1       3.488   1.997  17.864  0.00  0.00    +0.000 A 
ATOM     19  N   UNL     1       2.323   2.326  18.371  0.00  0.00    +0.000 NA
ATOM     20  H   UNL     1       5.404   1.614  18.689  0.00  0.00    +0.000 HD
ENDBRANCH  14  15
ENDBRANCH  13  14
ENDBRANCH  12  13
ENDBRANCH  11  12
ENDBRANCH   4  11
TORSDOF 6
ENDMDL
MODEL 2
REMARK VINA RESULT:      -6.8      0.583      1.481
REMARK  Name = 
REMARK  7 active torsions:
REMARK  status: ('A' for Active; 'I' for Inactive)
REMARK    1  A    between atoms: C_1  and  S_2
REMARK    2  A    between atoms: S_2  and  C_5
REMARK    3  A    between atoms: C_8  and  O_9
REMARK    4  A    between atoms: O_9  and  C_10
REMARK    5  A    between atoms: C_10  and  C_11
REMARK    6  A    between atoms: C_11  and  C_12
REMARK    7  A    between atoms: C_12  and  C_13
REMARK                            x       y       z     vdW  Elec       q    Type
REMARK                         _______ _______ _______ _____ _____    ______ ____
ROOT
ATOM      1  C   UNL     1       5.624   5.252  17.464  0.00  0.00    +0.000 A 
ATOM      2  C   UNL     1       4.402   5.349  16.809  0.00  0.00    +0.000 A 
ATOM      3  C   UNL     1       3.242   5.511  17.551  0.00  0.00    +0.000 A 
ATOM      4  C   UNL     1       3.272   5.565  18.946  0.00  0.00    +0.000 A 
ATOM      5  C   UNL     1       4.507   5.451  19.605  0.00  0.00    +0.000 A 
ATOM      6  C   UNL     1       5.687   5.287  18.863  0.00  0.00    +0.000 A 
ENDROOT
BRANCH   1   8
ATOM      7  C   UNL     1       6.493   4.234  15.039  0.00  0.00    +0.000 C 
ATOM      8  S   UNL     1       7.089   5.074  16.484  0.00  0.00    +0.000 S 
ATOM      9  O   UNL     1       7.978   4.162  17.191  0.00  0.00    +0.000 OA
ATOM     10  O   UNL     1       7.525   6.395  16.103  0.00  0.00    +0.000 OA
ENDBRANCH   1   8
BRANCH   4  11
ATOM     11  O   UNL     1       2.140   5.723  19.712  0.00  0.00    +0.000 OA
BRANCH  11  12
ATOM     12  C   UNL     1       2.224   5.121  21.017  0.00  0.00    +0.000 C 
BRANCH  12  13
ATOM     13  C   UNL     1       1.320   3.907  21.104  0.00  0.00    +0.000 C 
BRANCH  13  14
ATOM     14  C   UNL     1       2.126   2.608  21.034  0.00  0.00    +0.000 C 
BRANCH  14  15
ATOM     15  C   UNL     1       2.464   2.255  19.627  0.00  0.00    +0.000 A 
ATOM     16  C   UNL     1       1.644   2.200  18.524  0.00  0.00    +0.000 A 
ATOM     17  N   UNL     1       2.465   1.859  17.484  0.00  0.00    +0.000 N 
ATOM     18  C   UNL     1       3.725   1.709  17.987  0.00  0.00    +0.000 A 
ATOM     19  N   UNL     1       3.757   1.942  19.279  0.00  0.00    +0.000 NA
ATOM     20  H   UNL     1       2.196   1.740  16.517  0.00  0.00    +0.000 HD
ENDBRANCH  14  15
ENDBRANCH  13  14
ENDBRANCH  12  13
ENDBRANCH  11  12
ENDBRANCH   4  11
TORSDOF 6
ENDMDL
MODEL 3
REMARK VINA RESULT:      -6.5      0.381      1.173
REMARK  Name = 
REMARK  7 active torsions:
REMARK  status: ('A' for Active; 'I' for Inactive)
REMARK    1  A    between atoms: C_1  and  S_2
REMARK    2  A    between atoms: S_2  and  C_5
REMARK    3  A    between atoms: C_8  and  O_9
REMARK    4  A    between atoms: O_9  and  C_10
REMARK    5  A    between atoms: C_10  and  C_11
REMARK    6  A    between atoms: C_11  and  C_12
REMARK    7  A    between atoms: C_12  and  C_13
REMARK                            x       y       z     vdW  Elec       q    Type
REMARK                         _______ _______ _______ _____ _____    ______ ____
ROOT
ATOM      1  C   UNL     1       5.714   5.169  17.386  0.00  0.00    +0.000 A 
ATOM      2  C   UNL     1       4.450   5.386  16.850  0.00  0.00    +0.000 A 
ATOM      3  C   UNL     1       3.393   5.680  17.697  0.00  0.00    +0.000 A 
ATOM      4  C   UNL     1       3.565   5.750  19.081  0.00  0.00    +0.000 A 
ATOM      5  C   UNL     1       4.841   5.515  19.620  0.00  0.00    +0.000 A 
ATOM      6  C   UNL     1       5.918   5.216  18.771  0.00  0.00    +0.000 A 
ENDROOT
BRANCH   1   8
ATOM      7  C   UNL     1       6.316   3.683  15.127  0.00  0.00    +0.000 C 
ATOM      8  S   UNL     1       7.049   4.822  16.274  0.00  0.00    +0.000 S 
ATOM      9  O   UNL     1       8.067   4.102  17.025  0.00  0.00    +0.000 OA
ATOM     10  O   UNL     1       7.363   6.044  15.574  0.00  0.00    +0.000 OA
ENDBRANCH   1   8
BRANCH   4  11
ATOM     11  O   UNL     1       2.537   6.038  19.948  0.00  0.00    +0.000 OA
BRANCH  11  12
ATOM     12  C   UNL     1       1.366   5.222  19.763  0.00  0.00    +0.000 C 
BRANCH  12  13
ATOM     13  C   UNL     1       1.283   4.155  20.837  0.00  0.00    +0.000 C 
BRANCH  13  14
ATOM     14  C   UNL     1       1.188   2.756  20.223  0.00  0.00    +0.000 C 
BRANCH  14  15
ATOM     15  C   UNL     1       2.447   2.386  19.520  0.00  0.00    +0.000 A 
ATOM     16  C   UNL     1       3.708   2.192  20.038  0.00  0.00    +0.000 A 
ATOM     17  N   UNL     1       4.483   1.835  18.969  0.00  0.00    +0.000 N 
ATOM     18  C   UNL     1       3.684   1.837  17.863  0.00  0.00    +0.000 A 
ATOM     19  N   UNL     1       2.449   2.165  18.163  0.00  0.00    +0.000 NA
ATOM     20  H   UNL     1       5.467   1.606  18.988  0.00  0.00    +0.000 HD
ENDBRANCH  14  15
ENDBRANCH  13  14
ENDBRANCH  12  13
ENDBRANCH  11  12
ENDBRANCH   4  11
TORSDOF 6
ENDMDL
MODEL 4
REMARK VINA RESULT:      -6.5      1.234      1.474
REMARK  Name = 
REMARK  7 active torsions:
REMARK  status: ('A' for Active; 'I' for Inactive)
REMARK    1  A    between atoms: C_1  and  S_2
REMARK    2  A    between atoms: S_2  and  C_5
REMARK    3  A    between atoms: C_8  and  O_9
REMARK    4  A    between atoms: O_9  and  C_10
REMARK    5  A    between atoms: C_10  and  C_11
REMARK    6  A    between atoms: C_11  and  C_12
REMARK    7  A    between atoms: C_12  and  C_13
REMARK                            x       y       z     vdW  Elec       q    Type
REMARK                         _______ _______ _______ _____ _____    ______ ____
ROOT
ATOM      1  C   UNL     1       5.395   5.959  17.545  0.00  0.00    +0.000 A 
ATOM      2  C   UNL     1       5.273   5.264  18.743  0.00  0.00    +0.000 A 
ATOM      3  C   UNL     1       4.131   5.428  19.511  0.00  0.00    +0.000 A 
ATOM      4  C   UNL     1       3.104   6.288  19.116  0.00  0.00    +0.000 A 
ATOM      5  C   UNL     1       3.238   6.999  17.912  0.00  0.00    +0.000 A 
ATOM      6  C   UNL     1       4.390   6.840  17.127  0.00  0.00    +0.000 A 
ENDROOT
BRANCH   1   8
ATOM      7  C   UNL     1       7.729   4.467  17.498  0.00  0.00    +0.000 C 
ATOM      8  S   UNL     1       6.855   5.705  16.574  0.00  0.00    +0.000 S 
ATOM      9  O   UNL     1       7.635   6.934  16.631  0.00  0.00    +0.000 OA
ATOM     10  O   UNL     1       6.449   5.138  15.312  0.00  0.00    +0.000 OA
ENDBRANCH   1   8
BRANCH   4  11
ATOM     11  O   UNL     1       1.959   6.474  19.855  0.00  0.00    +0.000 OA
BRANCH  11  12
ATOM     12  C   UNL     1       1.795   5.532  20.932  0.00  0.00    +0.000 C 
BRANCH  12  13
ATOM     13  C   UNL     1       0.837   4.426  20.534  0.00  0.00    +0.000 C 
BRANCH  13  14
ATOM     14  C   UNL     1       1.431   3.047  20.826  0.00  0.00    +0.000 C 
BRANCH  14  15
ATOM     15  C   UNL     1       2.068   2.462  19.614  0.00  0.00    +0.000 A 
ATOM     16  C   UNL     1       1.558   2.329  18.343  0.00  0.00    +0.000 A 
ATOM     17  N   UNL     1       2.565   1.762  17.611  0.00  0.00    +0.000 N 
ATOM     18  C   UNL     1       3.622   1.563  18.451  0.00  0.00    +0.000 A 
ATOM     19  N   UNL     1       3.354   1.976  19.667  0.00  0.00    +0.000 NA
ATOM     20  H   UNL     1       2.540   1.532  16.627  0.00  0.00    +0.000 HD
ENDBRANCH  14  15
ENDBRANCH  13  14
ENDBRANCH  12  13
ENDBRANCH  11  12
ENDBRANCH   4  11
TORSDOF 6
ENDMDL
MODEL 5
REMARK VINA RESULT:      -6.4      1.083      1.557
REMARK  Name = 
REMARK  7 active torsions:
REMARK  status: ('A' for Active; 'I' for Inactive)
REMARK    1  A    between atoms: C_1  and  S_2
REMARK    2  A    between atoms: S_2  and  C_5
REMARK    3  A    between atoms: C_8  and  O_9
REMARK    4  A    between atoms: O_9  and  C_10
REMARK    5  A    between atoms: C_10  and  C_11
REMARK    6  A    between atoms: C_11  and  C_12
REMARK    7  A    between atoms: C_12  and  C_13
REMARK                            x       y       z     vdW  Elec       q    Type
REMARK                         _______ _______ _______ _____ _____    ______ ____
ROOT
ATOM      1  C   UNL     1       5.579   5.251  17.858  0.00  0.00    +0.000 A 
ATOM      2  C   UNL     1       5.194   5.693  19.119  0.00  0.00    +0.000 A 
ATOM      3  C   UNL     1       3.857   5.642  19.479  0.00  0.00    +0.000 A 
ATOM      4  C   UNL     1       2.883   5.169  18.598  0.00  0.00    +0.000 A 
ATOM      5  C   UNL     1       3.273   4.738  17.319  0.00  0.00    +0.000 A 
ATOM      6  C   UNL     1       4.625   4.786  16.945  0.00  0.00    +0.000 A 
ENDROOT
BRANCH   1   8
ATOM      7  C   UNL     1       7.782   6.927  17.973  0.00  0.00    +0.000 C 
ATOM      8  S   UNL     1       7.300   5.305  17.440  0.00  0.00    +0.000 S 
ATOM      9  O   UNL     1       7.397   5.268  15.987  0.00  0.00    +0.000 OA
ATOM     10  O   UNL     1       7.980   4.330  18.257  0.00  0.00    +0.000 OA
ENDBRANCH   1   8
BRANCH   4  11
ATOM     11  O   UNL     1       1.547   5.106  18.923  0.00  0.00    +0.000 OA
BRANCH  11  12
ATOM     12  C   UNL     1       1.293   4.919  20.328  0.00  0.00    +0.000 C 
BRANCH  12  13
ATOM     13  C   UNL     1       0.783   3.516  20.596  0.00  0.00    +0.000 C 
BRANCH  13  14
ATOM     14  C   UNL     1       1.834   2.673  21.320  0.00  0.00    +0.000 C 
BRANCH  14  15
ATOM     15  C   UNL     1       2.909   2.230  20.391  0.00  0.00    +0.000 A 
ATOM     16  C   UNL     1       4.274   2.251  20.567  0.00  0.00    +0.000 A 
ATOM     17  N   UNL     1       4.791   1.701  19.426  0.00  0.00    +0.000 N 
ATOM     18  C   UNL     1       3.743   1.385  18.611  0.00  0.00    +0.000 A 
ATOM     19  N   UNL     1       2.594   1.692  19.165  0.00  0.00    +0.000 NA
ATOM     20  H   UNL     1       5.768   1.550  19.219  0.00  0.00    +0.000 HD
ENDBRANCH  14  15
ENDBRANCH  13  14
ENDBRANCH  12  13
ENDBRANCH  11  12
ENDBRANCH   4  11
TORSDOF 6
ENDMDL
MODEL 6
REMARK VINA RESULT:      -6.2      1.087      1.303
REMARK  Name = 
REMARK  7 active torsions:
REMARK  status: ('A' for Active; 'I' for Inactive)
REMARK    1  A    between atoms: C_1  and  S_2
REMARK    2  A    between atoms: S_2  and  C_5
REMARK    3  A    between atoms: C_8  and  O_9
REMARK    4  A    between atoms: O_9  and  C_10
REMARK    5  A    between atoms: C_10  and  C_11
REMARK    6  A    between atoms: C_11  and  C_12
REMARK    7  A    between atoms: C_12  and  C_13
REMARK                            x       y       z     vdW  Elec       q    Type
REMARK                         _______ _______ _______ _____ _____    ______ ____
ROOT
ATOM      1  C   UNL     1       5.584   5.324  16.742  0.00  0.00    +0.000 A 
ATOM      2  C   UNL     1       5.459   6.548  17.390  0.00  0.00    +0.000 A 
ATOM      3  C   UNL     1       4.287   6.840  18.071  0.00  0.00    +0.000 A 
ATOM      4  C   UNL     1       3.222   5.939  18.109  0.00  0.00    +0.000 A 
ATOM      5  C   UNL     1       3.346   4.709  17.441  0.00  0.00    +0.000 A 
ATOM      6  C   UNL     1       4.528   4.403  16.749  0.00  0.00    +0.000 A 
ENDROOT
BRANCH   1   8
ATOM      7  C   UNL     1       6.564   4.055  14.483  0.00  0.00    +0.000 C 
ATOM      8  S   UNL     1       7.104   4.970  15.904  0.00  0.00    +0.000 S 
ATOM      9  O   UNL     1       7.868   4.063  16.750  0.00  0.00    +0.000 OA
ATOM     10  O   UNL     1       7.662   6.224  15.462  0.00  0.00    +0.000 OA
ENDBRANCH   1   8
BRANCH   4  11
ATOM     11  O   UNL     1       2.046   6.199  18.775  0.00  0.00    +0.000 OA
BRANCH  11  12
ATOM     12  C   UNL     1       2.103   5.943  20.191  0.00  0.00    +0.000 C 
BRANCH  12  13
ATOM     13  C   UNL     1       1.174   4.805  20.565  0.00  0.00    +0.000 C 
BRANCH  13  14
ATOM     14  C   UNL     1       1.943   3.653  21.216  0.00  0.00    +0.000 C 
BRANCH  14  15
ATOM     15  C   UNL     1       2.465   2.703  20.195  0.00  0.00    +0.000 A 
ATOM     16  C   UNL     1       1.787   2.042  19.196  0.00  0.00    +0.000 A 
ATOM     17  N   UNL     1       2.744   1.328  18.527  0.00  0.00    +0.000 N 
ATOM     18  C   UNL     1       3.939   1.568  19.140  0.00  0.00    +0.000 A 
ATOM     19  N   UNL     1       3.804   2.395  20.150  0.00  0.00    +0.000 NA
ATOM     20  H   UNL     1       2.600   0.733  17.723  0.00  0.00    +0.000 HD
ENDBRANCH  14  15
ENDBRANCH  13  14
ENDBRANCH  12  13
ENDBRANCH  11  12
ENDBRANCH   4  11
TORSDOF 6
ENDMDL
MODEL 7
REMARK VINA RESULT:      -6.2      1.207      1.761
REMARK  Name = 
REMARK  7 active torsions:
REMARK  status: ('A' for Active; 'I' for Inactive)
REMARK    1  A    between atoms: C_1  and  S_2
REMARK    2  A    between atoms: S_2  and  C_5
REMARK    3  A    between atoms: C_8  and  O_9
REMARK    4  A    between atoms: O_9  and  C_10
REMARK    5  A    between atoms: C_10  and  C_11
REMARK    6  A    between atoms: C_11  and  C_12
REMARK    7  A    between atoms: C_12  and  C_13
REMARK                            x       y       z     vdW  Elec       q    Type
REMARK                         _______ _______ _______ _____ _____    ______ ____
ROOT
ATOM      1  C   UNL     1       5.659   6.064  17.842  0.00  0.00    +0.000 A 
ATOM      2  C   UNL     1       5.432   5.320  18.994  0.00  0.00    +0.000 A 
ATOM      3  C   UNL     1       4.164   5.301  19.553  0.00  0.00    +0.000 A 
ATOM      4  C   UNL     1       3.110   6.024  18.992  0.00  0.00    +0.000 A 
ATOM      5  C   UNL     1       3.346   6.786  17.836  0.00  0.00    +0.000 A 
ATOM      6  C   UNL     1       4.627   6.812  17.263  0.00  0.00    +0.000 A 
ENDROOT
BRANCH   1   8
ATOM      7  C   UNL     1       7.926   7.636  17.591  0.00  0.00    +0.000 C 
ATOM      8  S   UNL     1       7.285   6.044  17.138  0.00  0.00    +0.000 S 
ATOM      9  O   UNL     1       7.133   6.024  15.690  0.00  0.00    +0.000 OA
ATOM     10  O   UNL     1       8.046   5.028  17.822  0.00  0.00    +0.000 OA
ENDBRANCH   1   8
BRANCH   4  11
ATOM     11  O   UNL     1       1.840   6.028  19.522  0.00  0.00    +0.000 OA
BRANCH  11  12
ATOM     12  C   UNL     1       1.728   5.340  20.783  0.00  0.00    +0.000 C 
BRANCH  12  13
ATOM     13  C   UNL     1       0.772   4.168  20.669  0.00  0.00    +0.000 C 
BRANCH  13  14
ATOM     14  C   UNL     1       1.501   2.838  20.870  0.00  0.00    +0.000 C 
BRANCH  14  15
ATOM     15  C   UNL     1       2.119   2.360  19.603  0.00  0.00    +0.000 A 
ATOM     16  C   UNL     1       1.589   2.332  18.333  0.00  0.00    +0.000 A 
ATOM     17  N   UNL     1       2.586   1.834  17.540  0.00  0.00    +0.000 N 
ATOM     18  C   UNL     1       3.657   1.570  18.343  0.00  0.00    +0.000 A 
ATOM     19  N   UNL     1       3.407   1.877  19.594  0.00  0.00    +0.000 NA
ATOM     20  H   UNL     1       2.545   1.687  16.541  0.00  0.00    +0.000 HD
ENDBRANCH  14  15
ENDBRANCH  13  14
ENDBRANCH  12  13
ENDBRANCH  11  12
ENDBRANCH   4  11
TORSDOF 6
ENDMDL
MODEL 8
REMARK VINA RESULT:      -6.2      6.100      8.248
REMARK  Name = 
REMARK  7 active torsions:
REMARK  status: ('A' for Active; 'I' for Inactive)
REMARK    1  A    between atoms: C_1  and  S_2
REMARK    2  A    between atoms: S_2  and  C_5
REMARK    3  A    between atoms: C_8  and  O_9
REMARK    4  A    between atoms: O_9  and  C_10
REMARK    5  A    between atoms: C_10  and  C_11
REMARK    6  A    between atoms: C_11  and  C_12
REMARK    7  A    between atoms: C_12  and  C_13
REMARK                            x       y       z     vdW  Elec       q    Type
REMARK                         _______ _______ _______ _____ _____    ______ ____
ROOT
ATOM      1  C   UNL     1       5.449   5.139  18.542  0.00  0.00    +0.000 A 
ATOM      2  C   UNL     1       6.765   5.147  18.993  0.00  0.00    +0.000 A 
ATOM      3  C   UNL     1       7.629   6.137  18.552  0.00  0.00    +0.000 A 
ATOM      4  C   UNL     1       7.212   7.121  17.653  0.00  0.00    +0.000 A 
ATOM      5  C   UNL     1       5.887   7.101  17.189  0.00  0.00    +0.000 A 
ATOM      6  C   UNL     1       5.003   6.103  17.629  0.00  0.00    +0.000 A 
ENDROOT
BRANCH   1   8
ATOM      7  C   UNL     1       3.849   3.058  17.658  0.00  0.00    +0.000 C 
ATOM      8  S   UNL     1       4.364   3.876  19.146  0.00  0.00    +0.000 S 
ATOM      9  O   UNL     1       3.197   4.538  19.714  0.00  0.00    +0.000 OA
ATOM     10  O   UNL     1       5.154   2.957  19.929  0.00  0.00    +0.000 OA
ENDBRANCH   1   8
BRANCH   4  11
ATOM     11  O   UNL     1       8.044   8.116  17.196  0.00  0.00    +0.000 OA
BRANCH  11  12
ATOM     12  C   UNL     1       7.913   9.364  17.903  0.00  0.00    +0.000 C 
BRANCH  12  13
ATOM     13  C   UNL     1       9.121   9.607  18.787  0.00  0.00    +0.000 C 
BRANCH  13  14
ATOM     14  C   UNL     1       9.258  11.088  19.143  0.00  0.00    +0.000 C 
BRANCH  14  15
ATOM     15  C   UNL     1      10.340  11.739  18.354  0.00  0.00    +0.000 A 
ATOM     16  C   UNL     1      11.691  11.473  18.347  0.00  0.00    +0.000 A 
ATOM     17  N   UNL     1      12.220  12.331  17.422  0.00  0.00    +0.000 N 
ATOM     18  C   UNL     1      11.194  13.080  16.922  0.00  0.00    +0.000 A 
ATOM     19  N   UNL     1      10.046  12.746  17.465  0.00  0.00    +0.000 NA
ATOM     20  H   UNL     1      13.190  12.402  17.150  0.00  0.00    +0.000 HD
ENDBRANCH  14  15
ENDBRANCH  13  14
ENDBRANCH  12  13
ENDBRANCH  11  12
ENDBRANCH   4  11
TORSDOF 6
ENDMDL
MODEL 9
REMARK VINA RESULT:      -6.0      1.402      1.869
REMARK  Name = 
REMARK  7 active torsions:
REMARK  status: ('A' for Active; 'I' for Inactive)
REMARK    1  A    between atoms: C_1  and  S_2
REMARK    2  A    between atoms: S_2  and  C_5
REMARK    3  A    between atoms: C_8  and  O_9
REMARK    4  A    between atoms: O_9  and  C_10
REMARK    5  A    between atoms: C_10  and  C_11
REMARK    6  A    between atoms: C_11  and  C_12
REMARK    7  A    between atoms: C_12  and  C_13
REMARK                            x       y       z     vdW  Elec       q    Type
REMARK                         _______ _______ _______ _____ _____    ______ ____
ROOT
ATOM      1  C   UNL     1       5.349   5.746  17.874  0.00  0.00    +0.000 A 
ATOM      2  C   UNL     1       5.663   4.881  18.917  0.00  0.00    +0.000 A 
ATOM      3  C   UNL     1       4.713   4.619  19.892  0.00  0.00    +0.000 A 
ATOM      4  C   UNL     1       3.451   5.215  19.858  0.00  0.00    +0.000 A 
ATOM      5  C   UNL     1       3.143   6.099  18.811  0.00  0.00    +0.000 A 
ATOM      6  C   UNL     1       4.098   6.372  17.819  0.00  0.00    +0.000 A 
ENDROOT
BRANCH   1   8
ATOM      7  C   UNL     1       7.493   7.403  17.299  0.00  0.00    +0.000 C 
ATOM      8  S   UNL     1       6.576   6.038  16.630  0.00  0.00    +0.000 S 
ATOM      9  O   UNL     1       5.885   6.510  15.438  0.00  0.00    +0.000 OA
ATOM     10  O   UNL     1       7.437   4.882  16.584  0.00  0.00    +0.000 OA
ENDBRANCH   1   8
BRANCH   4  11
ATOM     11  O   UNL     1       2.486   4.976  20.810  0.00  0.00    +0.000 OA
BRANCH  11  12
ATOM     12  C   UNL     1       1.159   4.815  20.275  0.00  0.00    +0.000 C 
BRANCH  12  13
ATOM     13  C   UNL     1       0.745   3.356  20.306  0.00  0.00    +0.000 C 
BRANCH  13  14
ATOM     14  C   UNL     1       0.699   2.763  18.896  0.00  0.00    +0.000 C 
BRANCH  14  15
ATOM     15  C   UNL     1       2.052   2.342  18.440  0.00  0.00    +0.000 A 
ATOM     16  C   UNL     1       2.740   2.709  17.305  0.00  0.00    +0.000 A 
ATOM     17  N   UNL     1       3.943   2.062  17.392  0.00  0.00    +0.000 N 
ATOM     18  C   UNL     1       3.934   1.332  18.545  0.00  0.00    +0.000 A 
ATOM     19  N   UNL     1       2.807   1.480  19.200  0.00  0.00    +0.000 NA
ATOM     20  H   UNL     1       4.704   2.114  16.730  0.00  0.00    +0.000 HD
ENDBRANCH  14  15
ENDBRANCH  13  14
ENDBRANCH  12  13
ENDBRANCH  11  12
ENDBRANCH   4  11
TORSDOF 6
ENDMDL
