MODEL 1
REMARK VINA RESULT:      -7.5      0.000      0.000
REMARK  Name = 
REMARK  6 active torsions:
REMARK  status: ('A' for Active; 'I' for Inactive)
REMARK    1  A    between atoms: C_1  and  O_2
REMARK    2  A    between atoms: O_2  and  C_3
REMARK    3  A    between atoms: N_5  and  C_6
REMARK    4  A    between atoms: C_6  and  C_7
REMARK    5  A    between atoms: C_7  and  C_8
REMARK    6  A    between atoms: C_16  and  C_17
REMARK                            x       y       z     vdW  Elec       q    Type
REMARK                         _______ _______ _______ _____ _____    ______ ____
ROOT
ATOM      1  C   UNL     1       5.435   5.502  18.057  0.00  0.00    +0.000 A 
ATOM      2  N   UNL     1       6.387   4.577  18.276  0.00  0.00    +0.000 NA
ATOM      3  N   UNL     1       5.776   3.627  19.005  0.00  0.00    +0.000 N 
ATOM      4  C   UNL     1       4.490   3.938  19.298  0.00  0.00    +0.000 A 
ATOM      5  C   UNL     1       4.227   5.153  18.709  0.00  0.00    +0.000 A 
ATOM      6  C   UNL     1       2.942   5.797  18.833  0.00  0.00    +0.000 C 
ATOM      7  O   UNL     1       2.637   6.864  18.320  0.00  0.00    +0.000 OA
ATOM      8  C   UNL     1       1.980   5.043  19.706  0.00  0.00    +0.000 C 
ATOM      9  C   UNL     1       2.239   3.853  20.290  0.00  0.00    +0.000 C 
ATOM     10  C   UNL     1       1.279   3.143  21.191  0.00  0.00    +0.000 C 
ATOM     11  C   UNL     1       3.565   3.178  20.075  0.00  0.00    +0.000 C 
ATOM     12  O   UNL     1       3.813   2.075  20.543  0.00  0.00    +0.000 OA
ATOM     13  H   UNL     1       6.299   2.801  19.280  0.00  0.00    +0.000 HD
ENDROOT
BRANCH   1  14
ATOM     14  C   UNL     1       5.737   6.716  17.236  0.00  0.00    +0.000 C 
BRANCH  14  15
ATOM     15  C   UNL     1       5.235   6.594  15.794  0.00  0.00    +0.000 C 
BRANCH  15  18
ATOM     16  C   UNL     1       6.569   4.866  14.657  0.00  0.00    +0.000 C 
ATOM     17  O   UNL     1       7.586   5.539  14.568  0.00  0.00    +0.000 OA
ATOM     18  N   UNL     1       5.410   5.266  15.246  0.00  0.00    +0.000 N 
ATOM     19  H   UNL     1       4.647   4.605  15.242  0.00  0.00    +0.000 HD
BRANCH  16  21
ATOM     20  C   UNL     1       6.128   3.567  12.779  0.00  0.00    +0.000 C 
ATOM     21  O   UNL     1       6.414   3.610  14.176  0.00  0.00    +0.000 OA
ENDBRANCH  16  21
ENDBRANCH  15  18
ENDBRANCH  14  15
ENDBRANCH   1  14
TORSDOF 4
ENDMDL
MODEL 2
REMARK VINA RESULT:      -7.3      1.764      2.719
REMARK  Name = 
REMARK  6 active torsions:
REMARK  status: ('A' for Active; 'I' for Inactive)
REMARK    1  A    between atoms: C_1  and  O_2
REMARK    2  A    between atoms: O_2  and  C_3
REMARK    3  A    between atoms: N_5  and  C_6
REMARK    4  A    between atoms: C_6  and  C_7
REMARK    5  A    between atoms: C_7  and  C_8
REMARK    6  A    between atoms: C_16  and  C_17
REMARK                            x       y       z     vdW  Elec       q    Type
REMARK                         _______ _______ _______ _____ _____    ______ ____
ROOT
ATOM      1  C   UNL     1       5.249   5.270  18.479  0.00  0.00    +0.000 A 
ATOM      2  N   UNL     1       4.791   6.208  17.630  0.00  0.00    +0.000 NA
ATOM      3  N   UNL     1       3.506   5.876  17.419  0.00  0.00    +0.000 N 
ATOM      4  C   UNL     1       3.145   4.739  18.062  0.00  0.00    +0.000 A 
ATOM      5  C   UNL     1       4.250   4.305  18.757  0.00  0.00    +0.000 A 
ATOM      6  C   UNL     1       4.226   3.099  19.549  0.00  0.00    +0.000 C 
ATOM      7  O   UNL     1       5.164   2.669  20.206  0.00  0.00    +0.000 OA
ATOM      8  C   UNL     1       2.920   2.363  19.474  0.00  0.00    +0.000 C 
ATOM      9  C   UNL     1       1.836   2.784  18.786  0.00  0.00    +0.000 C 
ATOM     10  C   UNL     1       0.560   2.011  18.690  0.00  0.00    +0.000 C 
ATOM     11  C   UNL     1       1.877   4.086  18.034  0.00  0.00    +0.000 C 
ATOM     12  O   UNL     1       0.898   4.524  17.446  0.00  0.00    +0.000 OA
ATOM     13  H   UNL     1       2.936   6.461  16.815  0.00  0.00    +0.000 HD
ENDROOT
BRANCH   1  14
ATOM     14  C   UNL     1       6.658   5.328  18.980  0.00  0.00    +0.000 C 
BRANCH  14  15
ATOM     15  C   UNL     1       7.677   4.867  17.932  0.00  0.00    +0.000 C 
BRANCH  15  18
ATOM     16  C   UNL     1       7.099   4.596  15.555  0.00  0.00    +0.000 C 
ATOM     17  O   UNL     1       7.665   5.611  15.177  0.00  0.00    +0.000 OA
ATOM     18  N   UNL     1       7.070   4.141  16.837  0.00  0.00    +0.000 N 
ATOM     19  H   UNL     1       6.558   3.287  17.005  0.00  0.00    +0.000 HD
BRANCH  16  21
ATOM     20  C   UNL     1       6.553   4.004  13.373  0.00  0.00    +0.000 C 
ATOM     21  O   UNL     1       6.391   3.752  14.767  0.00  0.00    +0.000 OA
ENDBRANCH  16  21
ENDBRANCH  15  18
ENDBRANCH  14  15
ENDBRANCH   1  14
TORSDOF 4
ENDMDL
MODEL 3
REMARK VINA RESULT:      -7.2      2.596      5.645
REMARK  Name = 
REMARK  6 active torsions:
REMARK  status: ('A' for Active; 'I' for Inactive)
REMARK    1  A    between atoms: C_1  and  O_2
REMARK    2  A    between atoms: O_2  and  C_3
REMARK    3  A    between atoms: N_5  and  C_6
REMARK    4  A    between atoms: C_6  and  C_7
REMARK    5  A    between atoms: C_7  and  C_8
REMARK    6  A    between atoms: C_16  and  C_17
REMARK                            x       y       z     vdW  Elec       q    Type
REMARK                         _______ _______ _______ _____ _____    ______ ____
ROOT
ATOM      1  C   UNL     1       4.102   3.959  17.896  0.00  0.00    +0.000 A 
ATOM      2  N   UNL     1       4.448   3.082  18.856  0.00  0.00    +0.000 NA
ATOM      3  N   UNL     1       5.532   3.625  19.436  0.00  0.00    +0.000 N 
ATOM      4  C   UNL     1       5.915   4.785  18.850  0.00  0.00    +0.000 A 
ATOM      5  C   UNL     1       5.019   5.037  17.838  0.00  0.00    +0.000 A 
ATOM      6  C   UNL     1       5.137   6.197  16.988  0.00  0.00    +0.000 C 
ATOM      7  O   UNL     1       4.366   6.490  16.085  0.00  0.00    +0.000 OA
ATOM      8  C   UNL     1       6.349   7.032  17.285  0.00  0.00    +0.000 C 
ATOM      9  C   UNL     1       7.233   6.782  18.275  0.00  0.00    +0.000 C 
ATOM     10  C   UNL     1       8.457   7.605  18.523  0.00  0.00    +0.000 C 
ATOM     11  C   UNL     1       7.033   5.605  19.188  0.00  0.00    +0.000 C 
ATOM     12  O   UNL     1       7.784   5.380  20.128  0.00  0.00    +0.000 OA
ATOM     13  H   UNL     1       5.968   3.144  20.217  0.00  0.00    +0.000 HD
ENDROOT
BRANCH   1  14
ATOM     14  C   UNL     1       2.898   3.709  17.043  0.00  0.00    +0.000 C 
BRANCH  14  15
ATOM     15  C   UNL     1       1.619   4.309  17.636  0.00  0.00    +0.000 C 
BRANCH  15  18
ATOM     16  C   UNL     1       0.830   2.979  19.551  0.00  0.00    +0.000 C 
ATOM     17  O   UNL     1       0.335   2.085  18.881  0.00  0.00    +0.000 OA
ATOM     18  N   UNL     1       1.486   4.062  19.057  0.00  0.00    +0.000 N 
ATOM     19  H   UNL     1       1.842   4.726  19.730  0.00  0.00    +0.000 HD
BRANCH  16  21
ATOM     20  C   UNL     1       2.096   3.173  21.493  0.00  0.00    +0.000 C 
ATOM     21  O   UNL     1       0.804   3.054  20.903  0.00  0.00    +0.000 OA
ENDBRANCH  16  21
ENDBRANCH  15  18
ENDBRANCH  14  15
ENDBRANCH   1  14
TORSDOF 4
ENDMDL
MODEL 4
REMARK VINA RESULT:      -7.1      2.051      2.672
REMARK  Name = 
REMARK  6 active torsions:
REMARK  status: ('A' for Active; 'I' for Inactive)
REMARK    1  A    between atoms: C_1  and  O_2
REMARK    2  A    between atoms: O_2  and  C_3
REMARK    3  A    between atoms: N_5  and  C_6
REMARK    4  A    between atoms: C_6  and  C_7
REMARK    5  A    between atoms: C_7  and  C_8
REMARK    6  A    between atoms: C_16  and  C_17
REMARK                            x       y       z     vdW  Elec       q    Type
REMARK                         _______ _______ _______ _____ _____    ______ ____
ROOT
ATOM      1  C   UNL     1       3.900   5.374  17.397  0.00  0.00    +0.000 A 
ATOM      2  N   UNL     1       4.229   4.285  16.679  0.00  0.00    +0.000 NA
ATOM      3  N   UNL     1       3.654   3.261  17.332  0.00  0.00    +0.000 N 
ATOM      4  C   UNL     1       3.015   3.653  18.462  0.00  0.00    +0.000 A 
ATOM      5  C   UNL     1       3.157   5.018  18.549  0.00  0.00    +0.000 A 
ATOM      6  C   UNL     1       2.606   5.772  19.649  0.00  0.00    +0.000 C 
ATOM      7  O   UNL     1       2.678   6.986  19.777  0.00  0.00    +0.000 OA
ATOM      8  C   UNL     1       1.942   4.913  20.686  0.00  0.00    +0.000 C 
ATOM      9  C   UNL     1       1.808   3.571  20.606  0.00  0.00    +0.000 C 
ATOM     10  C   UNL     1       1.181   2.733  21.673  0.00  0.00    +0.000 C 
ATOM     11  C   UNL     1       2.329   2.830  19.405  0.00  0.00    +0.000 C 
ATOM     12  O   UNL     1       2.177   1.623  19.274  0.00  0.00    +0.000 OA
ATOM     13  H   UNL     1       3.748   2.321  16.961  0.00  0.00    +0.000 HD
ENDROOT
BRANCH   1  14
ATOM     14  C   UNL     1       4.340   6.733  16.952  0.00  0.00    +0.000 C 
BRANCH  14  15
ATOM     15  C   UNL     1       5.845   6.806  16.675  0.00  0.00    +0.000 C 
BRANCH  15  18
ATOM     16  C   UNL     1       7.455   5.117  17.459  0.00  0.00    +0.000 C 
ATOM     17  O   UNL     1       7.648   4.616  16.361  0.00  0.00    +0.000 OA
ATOM     18  N   UNL     1       6.640   6.177  17.709  0.00  0.00    +0.000 N 
ATOM     19  H   UNL     1       6.573   6.483  18.669  0.00  0.00    +0.000 HD
BRANCH  16  21
ATOM     20  C   UNL     1       7.733   5.557  19.727  0.00  0.00    +0.000 C 
ATOM     21  O   UNL     1       8.008   4.697  18.622  0.00  0.00    +0.000 OA
ENDBRANCH  16  21
ENDBRANCH  15  18
ENDBRANCH  14  15
ENDBRANCH   1  14
TORSDOF 4
ENDMDL
MODEL 5
REMARK VINA RESULT:      -7.1      1.364      1.428
REMARK  Name = 
REMARK  6 active torsions:
REMARK  status: ('A' for Active; 'I' for Inactive)
REMARK    1  A    between atoms: C_1  and  O_2
REMARK    2  A    between atoms: O_2  and  C_3
REMARK    3  A    between atoms: N_5  and  C_6
REMARK    4  A    between atoms: C_6  and  C_7
REMARK    5  A    between atoms: C_7  and  C_8
REMARK    6  A    between atoms: C_16  and  C_17
REMARK                            x       y       z     vdW  Elec       q    Type
REMARK                         _______ _______ _______ _____ _____    ______ ____
ROOT
ATOM      1  C   UNL     1       5.594   5.333  18.474  0.00  0.00    +0.000 A 
ATOM      2  N   UNL     1       6.394   4.345  18.913  0.00  0.00    +0.000 NA
ATOM      3  N   UNL     1       5.580   3.285  19.052  0.00  0.00    +0.000 N 
ATOM      4  C   UNL     1       4.288   3.575  18.764  0.00  0.00    +0.000 A 
ATOM      5  C   UNL     1       4.248   4.898  18.392  0.00  0.00    +0.000 A 
ATOM      6  C   UNL     1       3.012   5.550  18.030  0.00  0.00    +0.000 C 
ATOM      7  O   UNL     1       2.910   6.715  17.672  0.00  0.00    +0.000 OA
ATOM      8  C   UNL     1       1.809   4.664  18.168  0.00  0.00    +0.000 C 
ATOM      9  C   UNL     1       1.845   3.366  18.540  0.00  0.00    +0.000 C 
ATOM     10  C   UNL     1       0.628   2.515  18.711  0.00  0.00    +0.000 C 
ATOM     11  C   UNL     1       3.161   2.701  18.835  0.00  0.00    +0.000 C 
ATOM     12  O   UNL     1       3.237   1.514  19.122  0.00  0.00    +0.000 OA
ATOM     13  H   UNL     1       5.969   2.398  19.359  0.00  0.00    +0.000 HD
ENDROOT
BRANCH   1  14
ATOM     14  C   UNL     1       6.160   6.684  18.167  0.00  0.00    +0.000 C 
BRANCH  14  15
ATOM     15  C   UNL     1       7.362   6.620  17.219  0.00  0.00    +0.000 C 
BRANCH  15  18
ATOM     16  C   UNL     1       6.564   5.272  15.321  0.00  0.00    +0.000 C 
ATOM     17  O   UNL     1       5.793   6.116  14.890  0.00  0.00    +0.000 OA
ATOM     18  N   UNL     1       7.374   5.425  16.403  0.00  0.00    +0.000 N 
ATOM     19  H   UNL     1       7.959   4.639  16.648  0.00  0.00    +0.000 HD
BRANCH  16  21
ATOM     20  C   UNL     1       6.015   3.809  13.597  0.00  0.00    +0.000 C 
ATOM     21  O   UNL     1       6.741   4.032  14.804  0.00  0.00    +0.000 OA
ENDBRANCH  16  21
ENDBRANCH  15  18
ENDBRANCH  14  15
ENDBRANCH   1  14
TORSDOF 4
ENDMDL
MODEL 6
REMARK VINA RESULT:      -7.1      1.946      2.628
REMARK  Name = 
REMARK  6 active torsions:
REMARK  status: ('A' for Active; 'I' for Inactive)
REMARK    1  A    between atoms: C_1  and  O_2
REMARK    2  A    between atoms: O_2  and  C_3
REMARK    3  A    between atoms: N_5  and  C_6
REMARK    4  A    between atoms: C_6  and  C_7
REMARK    5  A    between atoms: C_7  and  C_8
REMARK    6  A    between atoms: C_16  and  C_17
REMARK                            x       y       z     vdW  Elec       q    Type
REMARK                         _______ _______ _______ _____ _____    ______ ____
ROOT
ATOM      1  C   UNL     1       4.615   4.244  17.704  0.00  0.00    +0.000 A 
ATOM      2  N   UNL     1       5.761   3.754  18.209  0.00  0.00    +0.000 NA
ATOM      3  N   UNL     1       5.391   3.110  19.329  0.00  0.00    +0.000 N 
ATOM      4  C   UNL     1       4.062   3.214  19.579  0.00  0.00    +0.000 A 
ATOM      5  C   UNL     1       3.519   3.952  18.553  0.00  0.00    +0.000 A 
ATOM      6  C   UNL     1       2.113   4.272  18.508  0.00  0.00    +0.000 C 
ATOM      7  O   UNL     1       1.564   4.905  17.617  0.00  0.00    +0.000 OA
ATOM      8  C   UNL     1       1.351   3.781  19.705  0.00  0.00    +0.000 C 
ATOM      9  C   UNL     1       1.885   3.063  20.716  0.00  0.00    +0.000 C 
ATOM     10  C   UNL     1       1.114   2.622  21.920  0.00  0.00    +0.000 C 
ATOM     11  C   UNL     1       3.340   2.684  20.689  0.00  0.00    +0.000 C 
ATOM     12  O   UNL     1       3.844   1.988  21.561  0.00  0.00    +0.000 OA
ATOM     13  H   UNL     1       6.095   2.632  19.882  0.00  0.00    +0.000 HD
ENDROOT
BRANCH   1  14
ATOM     14  C   UNL     1       4.622   5.007  16.417  0.00  0.00    +0.000 C 
BRANCH  14  15
ATOM     15  C   UNL     1       4.842   6.510  16.622  0.00  0.00    +0.000 C 
BRANCH  15  18
ATOM     16  C   UNL     1       7.211   6.733  17.252  0.00  0.00    +0.000 C 
ATOM     17  O   UNL     1       7.655   6.476  16.143  0.00  0.00    +0.000 OA
ATOM     18  N   UNL     1       5.891   6.802  17.575  0.00  0.00    +0.000 N 
ATOM     19  H   UNL     1       5.669   7.021  18.536  0.00  0.00    +0.000 HD
BRANCH  16  21
ATOM     20  C   UNL     1       7.926   5.925  19.313  0.00  0.00    +0.000 C 
ATOM     21  O   UNL     1       7.953   6.983  18.357  0.00  0.00    +0.000 OA
ENDBRANCH  16  21
ENDBRANCH  15  18
ENDBRANCH  14  15
ENDBRANCH   1  14
TORSDOF 4
ENDMDL
MODEL 7
REMARK VINA RESULT:      -7.0      2.344      3.458
REMARK  Name = 
REMARK  6 active torsions:
REMARK  status: ('A' for Active; 'I' for Inactive)
REMARK    1  A    between atoms: C_1  and  O_2
REMARK    2  A    between atoms: O_2  and  C_3
REMARK    3  A    between atoms: N_5  and  C_6
REMARK    4  A    between atoms: C_6  and  C_7
REMARK    5  A    between atoms: C_7  and  C_8
REMARK    6  A    between atoms: C_16  and  C_17
REMARK                            x       y       z     vdW  Elec       q    Type
REMARK                         _______ _______ _______ _____ _____    ______ ____
ROOT
ATOM      1  C   UNL     1       4.345   4.921  17.140  0.00  0.00    +0.000 A 
ATOM      2  N   UNL     1       4.130   6.232  17.353  0.00  0.00    +0.000 NA
ATOM      3  N   UNL     1       3.396   6.276  18.478  0.00  0.00    +0.000 N 
ATOM      4  C   UNL     1       3.097   5.044  18.958  0.00  0.00    +0.000 A 
ATOM      5  C   UNL     1       3.686   4.132  18.114  0.00  0.00    +0.000 A 
ATOM      6  C   UNL     1       3.557   2.710  18.321  0.00  0.00    +0.000 C 
ATOM      7  O   UNL     1       4.070   1.848  17.622  0.00  0.00    +0.000 OA
ATOM      8  C   UNL     1       2.678   2.355  19.485  0.00  0.00    +0.000 C 
ATOM      9  C   UNL     1       2.094   3.250  20.311  0.00  0.00    +0.000 C 
ATOM     10  C   UNL     1       1.187   2.871  21.439  0.00  0.00    +0.000 C 
ATOM     11  C   UNL     1       2.315   4.723  20.108  0.00  0.00    +0.000 C 
ATOM     12  O   UNL     1       1.846   5.559  20.868  0.00  0.00    +0.000 OA
ATOM     13  H   UNL     1       3.123   7.178  18.856  0.00  0.00    +0.000 HD
ENDROOT
BRANCH   1  14
ATOM     14  C   UNL     1       5.170   4.471  15.975  0.00  0.00    +0.000 C 
BRANCH  14  15
ATOM     15  C   UNL     1       6.673   4.641  16.213  0.00  0.00    +0.000 C 
BRANCH  15  18
ATOM     16  C   UNL     1       7.471   6.699  17.303  0.00  0.00    +0.000 C 
ATOM     17  O   UNL     1       7.544   6.220  18.425  0.00  0.00    +0.000 OA
ATOM     18  N   UNL     1       7.096   6.025  16.183  0.00  0.00    +0.000 N 
ATOM     19  H   UNL     1       7.078   6.551  15.321  0.00  0.00    +0.000 HD
BRANCH  16  21
ATOM     20  C   UNL     1       8.227   8.759  18.075  0.00  0.00    +0.000 C 
ATOM     21  O   UNL     1       7.740   7.986  16.980  0.00  0.00    +0.000 OA
ENDBRANCH  16  21
ENDBRANCH  15  18
ENDBRANCH  14  15
ENDBRANCH   1  14
TORSDOF 4
ENDMDL
MODEL 8
REMARK VINA RESULT:      -6.9      1.951      6.163
REMARK  Name = 
REMARK  6 active torsions:
REMARK  status: ('A' for Active; 'I' for Inactive)
REMARK    1  A    between atoms: C_1  and  O_2
REMARK    2  A    between atoms: O_2  and  C_3
REMARK    3  A    between atoms: N_5  and  C_6
REMARK    4  A    between atoms: C_6  and  C_7
REMARK    5  A    between atoms: C_7  and  C_8
REMARK    6  A    between atoms: C_16  and  C_17
REMARK                            x       y       z     vdW  Elec       q    Type
REMARK                         _______ _______ _______ _____ _____    ______ ____
ROOT
ATOM      1  C   UNL     1       6.138   5.456  18.117  0.00  0.00    +0.000 A 
ATOM      2  N   UNL     1       7.194   6.288  18.062  0.00  0.00    +0.000 NA
ATOM      3  N   UNL     1       7.591   6.247  16.779  0.00  0.00    +0.000 N 
ATOM      4  C   UNL     1       6.859   5.387  16.030  0.00  0.00    +0.000 A 
ATOM      5  C   UNL     1       5.908   4.843  16.862  0.00  0.00    +0.000 A 
ATOM      6  C   UNL     1       4.957   3.864  16.392  0.00  0.00    +0.000 C 
ATOM      7  O   UNL     1       4.076   3.356  17.072  0.00  0.00    +0.000 OA
ATOM      8  C   UNL     1       5.164   3.473  14.958  0.00  0.00    +0.000 C 
ATOM      9  C   UNL     1       6.101   4.001  14.142  0.00  0.00    +0.000 C 
ATOM     10  C   UNL     1       6.315   3.564  12.728  0.00  0.00    +0.000 C 
ATOM     11  C   UNL     1       7.025   5.075  14.647  0.00  0.00    +0.000 C 
ATOM     12  O   UNL     1       7.849   5.614  13.922  0.00  0.00    +0.000 OA
ATOM     13  H   UNL     1       8.375   6.821  16.484  0.00  0.00    +0.000 HD
ENDROOT
BRANCH   1  14
ATOM     14  C   UNL     1       5.395   5.264  19.402  0.00  0.00    +0.000 C 
BRANCH  14  15
ATOM     15  C   UNL     1       3.954   5.781  19.335  0.00  0.00    +0.000 C 
BRANCH  15  18
ATOM     16  C   UNL     1       1.874   5.124  20.475  0.00  0.00    +0.000 C 
ATOM     17  O   UNL     1       1.550   6.258  20.796  0.00  0.00    +0.000 OA
ATOM     18  N   UNL     1       2.981   4.796  19.757  0.00  0.00    +0.000 N 
ATOM     19  H   UNL     1       3.126   3.814  19.568  0.00  0.00    +0.000 HD
BRANCH  16  21
ATOM     20  C   UNL     1       1.963   3.057  21.538  0.00  0.00    +0.000 C 
ATOM     21  O   UNL     1       1.195   3.995  20.787  0.00  0.00    +0.000 OA
ENDBRANCH  16  21
ENDBRANCH  15  18
ENDBRANCH  14  15
ENDBRANCH   1  14
TORSDOF 4
ENDMDL
MODEL 9
REMARK VINA RESULT:      -6.9      2.191      5.664
REMARK  Name = 
REMARK  6 active torsions:
REMARK  status: ('A' for Active; 'I' for Inactive)
REMARK    1  A    between atoms: C_1  and  O_2
REMARK    2  A    between atoms: O_2  and  C_3
REMARK    3  A    between atoms: N_5  and  C_6
REMARK    4  A    between atoms: C_6  and  C_7
REMARK    5  A    between atoms: C_7  and  C_8
REMARK    6  A    between atoms: C_16  and  C_17
REMARK                            x       y       z     vdW  Elec       q    Type
REMARK                         _______ _______ _______ _____ _____    ______ ____
ROOT
ATOM      1  C   UNL     1       3.117   3.952  17.481  0.00  0.00    +0.000 A 
ATOM      2  N   UNL     1       3.746   2.799  17.191  0.00  0.00    +0.000 NA
ATOM      3  N   UNL     1       5.047   3.131  17.119  0.00  0.00    +0.000 N 
ATOM      4  C   UNL     1       5.261   4.457  17.303  0.00  0.00    +0.000 A 
ATOM      5  C   UNL     1       4.033   5.032  17.532  0.00  0.00    +0.000 A 
ATOM      6  C   UNL     1       3.886   6.450  17.756  0.00  0.00    +0.000 C 
ATOM      7  O   UNL     1       2.829   7.021  17.985  0.00  0.00    +0.000 OA
ATOM      8  C   UNL     1       5.178   7.207  17.644  0.00  0.00    +0.000 C 
ATOM      9  C   UNL     1       6.384   6.644  17.412  0.00  0.00    +0.000 C 
ATOM     10  C   UNL     1       7.651   7.424  17.263  0.00  0.00    +0.000 C 
ATOM     11  C   UNL     1       6.506   5.153  17.260  0.00  0.00    +0.000 C 
ATOM     12  O   UNL     1       7.588   4.604  17.104  0.00  0.00    +0.000 OA
ATOM     13  H   UNL     1       5.733   2.407  16.927  0.00  0.00    +0.000 HD
ENDROOT
BRANCH   1  14
ATOM     14  C   UNL     1       1.634   3.975  17.676  0.00  0.00    +0.000 C 
BRANCH  14  15
ATOM     15  C   UNL     1       1.175   3.076  18.829  0.00  0.00    +0.000 C 
BRANCH  15  18
ATOM     16  C   UNL     1       2.139   2.619  21.047  0.00  0.00    +0.000 C 
ATOM     17  O   UNL     1       1.115   2.852  21.673  0.00  0.00    +0.000 OA
ATOM     18  N   UNL     1       2.263   2.670  19.694  0.00  0.00    +0.000 N 
ATOM     19  H   UNL     1       3.173   2.456  19.313  0.00  0.00    +0.000 HD
BRANCH  16  21
ATOM     20  C   UNL     1       4.384   2.171  20.635  0.00  0.00    +0.000 C 
ATOM     21  O   UNL     1       3.332   2.282  21.592  0.00  0.00    +0.000 OA
ENDBRANCH  16  21
ENDBRANCH  15  18
ENDBRANCH  14  15
ENDBRANCH   1  14
TORSDOF 4
ENDMDL
