MODEL 1
REMARK VINA RESULT:      -7.4      0.000      0.000
REMARK  Name = 
REMARK  5 active torsions:
REMARK  status: ('A' for Active; 'I' for Inactive)
REMARK    1  A    between atoms: C_1  and  C_2
REMARK    2  A    between atoms: C_7  and  N_8
REMARK    3  A    between atoms: C_9  and  C_11
REMARK    4  A    between atoms: C_12  and  C_13
REMARK    5  A    between atoms: C_16  and  N_17
REMARK                            x       y       z     vdW  Elec       q    Type
REMARK                         _______ _______ _______ _____ _____    ______ ____
ROOT
ATOM      1  N   UNL     1       0.786   9.998  18.005  0.00  0.00    +0.000 N 
ATOM      2  C   UNL     1       1.508   9.017  18.662  0.00  0.00    +0.000 C 
ATOM      3  O   UNL     1       1.428   8.716  19.849  0.00  0.00    +0.000 OA
ATOM      4  H   UNL     1       0.945  10.116  17.016  0.00  0.00    +0.000 HD
ENDROOT
BRANCH   1  11
ATOM      5  C   UNL     1      -2.002   9.861  17.013  0.00  0.00    +0.000 C 
ATOM      6  C   UNL     1      -1.554  10.767  18.124  0.00  0.00    +0.000 A 
ATOM      7  C   UNL     1      -2.533  11.590  18.725  0.00  0.00    +0.000 A 
ATOM      8  C   UNL     1      -2.214  12.461  19.763  0.00  0.00    +0.000 A 
ATOM      9  C   UNL     1      -0.908  12.525  20.218  0.00  0.00    +0.000 A 
ATOM     10  C   UNL     1       0.071  11.718  19.636  0.00  0.00    +0.000 A 
ATOM     11  C   UNL     1      -0.219  10.828  18.589  0.00  0.00    +0.000 A 
ENDBRANCH   1  11
BRANCH   2  12
ATOM     12  C   UNL     1       2.468   8.269  17.798  0.00  0.00    +0.000 C 
ATOM     13  C   UNL     1       2.814   7.042  18.236  0.00  0.00    +0.000 C 
BRANCH  13  14
ATOM     14  C   UNL     1       3.820   6.205  17.676  0.00  0.00    +0.000 A 
ATOM     15  C   UNL     1       3.674   4.855  17.380  0.00  0.00    +0.000 A 
ATOM     16  C   UNL     1       4.848   4.263  16.829  0.00  0.00    +0.000 A 
ATOM     17  C   UNL     1       5.854   5.192  16.700  0.00  0.00    +0.000 A 
ATOM     18  S   UNL     1       5.396   6.738  17.237  0.00  0.00    +0.000 S 
BRANCH  17  19
ATOM     19  N   UNL     1       7.174   4.952  16.180  0.00  0.00    +0.000 N 
ATOM     20  O   UNL     1       7.389   5.347  15.024  0.00  0.00    +0.000 OA
ATOM     21  O   UNL     1       7.998   4.379  16.904  0.00  0.00    +0.000 OA
ENDBRANCH  17  19
ENDBRANCH  13  14
ENDBRANCH   2  12
TORSDOF 4
ENDMDL
MODEL 2
REMARK VINA RESULT:      -7.3      6.270      9.044
REMARK  Name = 
REMARK  5 active torsions:
REMARK  status: ('A' for Active; 'I' for Inactive)
REMARK    1  A    between atoms: C_1  and  C_2
REMARK    2  A    between atoms: C_7  and  N_8
REMARK    3  A    between atoms: C_9  and  C_11
REMARK    4  A    between atoms: C_12  and  C_13
REMARK    5  A    between atoms: C_16  and  N_17
REMARK                            x       y       z     vdW  Elec       q    Type
REMARK                         _______ _______ _______ _____ _____    ______ ____
ROOT
ATOM      1  N   UNL     1       6.820   7.550  16.891  0.00  0.00    +0.000 N 
ATOM      2  C   UNL     1       7.763   7.836  17.863  0.00  0.00    +0.000 C 
ATOM      3  O   UNL     1       8.216   7.060  18.699  0.00  0.00    +0.000 OA
ATOM      4  H   UNL     1       6.560   8.290  16.256  0.00  0.00    +0.000 HD
ENDROOT
BRANCH   1  11
ATOM      5  C   UNL     1       3.995   7.092  17.652  0.00  0.00    +0.000 C 
ATOM      6  C   UNL     1       4.869   6.048  17.016  0.00  0.00    +0.000 A 
ATOM      7  C   UNL     1       4.291   4.783  16.767  0.00  0.00    +0.000 A 
ATOM      8  C   UNL     1       5.022   3.754  16.180  0.00  0.00    +0.000 A 
ATOM      9  C   UNL     1       6.344   3.972  15.832  0.00  0.00    +0.000 A 
ATOM     10  C   UNL     1       6.929   5.217  16.071  0.00  0.00    +0.000 A 
ATOM     11  C   UNL     1       6.219   6.276  16.660  0.00  0.00    +0.000 A 
ENDBRANCH   1  11
BRANCH   2  12
ATOM     12  C   UNL     1       8.255   9.245  17.855  0.00  0.00    +0.000 C 
ATOM     13  C   UNL     1       9.015   9.604  18.909  0.00  0.00    +0.000 C 
BRANCH  13  14
ATOM     14  C   UNL     1       9.470  10.921  19.205  0.00  0.00    +0.000 A 
ATOM     15  C   UNL     1      10.044  11.325  20.404  0.00  0.00    +0.000 A 
ATOM     16  C   UNL     1      10.404  12.704  20.426  0.00  0.00    +0.000 A 
ATOM     17  C   UNL     1      10.110  13.309  19.225  0.00  0.00    +0.000 A 
ATOM     18  S   UNL     1       9.412  12.240  18.103  0.00  0.00    +0.000 S 
BRANCH  17  19
ATOM     19  N   UNL     1      10.338  14.689  18.887  0.00  0.00    +0.000 N 
ATOM     20  O   UNL     1       9.329  15.397  18.758  0.00  0.00    +0.000 OA
ATOM     21  O   UNL     1      11.506  15.077  18.750  0.00  0.00    +0.000 OA
ENDBRANCH  17  19
ENDBRANCH  13  14
ENDBRANCH   2  12
TORSDOF 4
ENDMDL
MODEL 3
REMARK VINA RESULT:      -7.2      6.000      8.805
REMARK  Name = 
REMARK  5 active torsions:
REMARK  status: ('A' for Active; 'I' for Inactive)
REMARK    1  A    between atoms: C_1  and  C_2
REMARK    2  A    between atoms: C_7  and  N_8
REMARK    3  A    between atoms: C_9  and  C_11
REMARK    4  A    between atoms: C_12  and  C_13
REMARK    5  A    between atoms: C_16  and  N_17
REMARK                            x       y       z     vdW  Elec       q    Type
REMARK                         _______ _______ _______ _____ _____    ______ ____
ROOT
ATOM      1  N   UNL     1       6.400   7.376  17.049  0.00  0.00    +0.000 N 
ATOM      2  C   UNL     1       7.532   7.549  17.826  0.00  0.00    +0.000 C 
ATOM      3  O   UNL     1       8.007   6.745  18.622  0.00  0.00    +0.000 OA
ATOM      4  H   UNL     1       6.142   8.122  16.421  0.00  0.00    +0.000 HD
ENDROOT
BRANCH   1  11
ATOM      5  C   UNL     1       7.184   5.096  15.329  0.00  0.00    +0.000 C 
ATOM      6  C   UNL     1       5.954   5.107  16.192  0.00  0.00    +0.000 A 
ATOM      7  C   UNL     1       5.139   3.953  16.176  0.00  0.00    +0.000 A 
ATOM      8  C   UNL     1       3.981   3.870  16.943  0.00  0.00    +0.000 A 
ATOM      9  C   UNL     1       3.617   4.942  17.741  0.00  0.00    +0.000 A 
ATOM     10  C   UNL     1       4.411   6.089  17.768  0.00  0.00    +0.000 A 
ATOM     11  C   UNL     1       5.586   6.203  17.008  0.00  0.00    +0.000 A 
ENDBRANCH   1  11
BRANCH   2  12
ATOM     12  C   UNL     1       8.216   8.862  17.642  0.00  0.00    +0.000 C 
ATOM     13  C   UNL     1       8.769   9.393  18.751  0.00  0.00    +0.000 C 
BRANCH  13  14
ATOM     14  C   UNL     1       9.337  10.694  18.864  0.00  0.00    +0.000 A 
ATOM     15  C   UNL     1      10.317  11.070  19.775  0.00  0.00    +0.000 A 
ATOM     16  C   UNL     1      10.698  12.440  19.667  0.00  0.00    +0.000 A 
ATOM     17  C   UNL     1      10.008  13.065  18.655  0.00  0.00    +0.000 A 
ATOM     18  S   UNL     1       8.922  12.028  17.859  0.00  0.00    +0.000 S 
BRANCH  17  19
ATOM     19  N   UNL     1      10.138  14.442  18.260  0.00  0.00    +0.000 N 
ATOM     20  O   UNL     1       9.090  15.106  18.229  0.00  0.00    +0.000 OA
ATOM     21  O   UNL     1      11.264  14.872  17.980  0.00  0.00    +0.000 OA
ENDBRANCH  17  19
ENDBRANCH  13  14
ENDBRANCH   2  12
TORSDOF 4
ENDMDL
MODEL 4
REMARK VINA RESULT:      -7.1      6.325      9.133
REMARK  Name = 
REMARK  5 active torsions:
REMARK  status: ('A' for Active; 'I' for Inactive)
REMARK    1  A    between atoms: C_1  and  C_2
REMARK    2  A    between atoms: C_7  and  N_8
REMARK    3  A    between atoms: C_9  and  C_11
REMARK    4  A    between atoms: C_12  and  C_13
REMARK    5  A    between atoms: C_16  and  N_17
REMARK                            x       y       z     vdW  Elec       q    Type
REMARK                         _______ _______ _______ _____ _____    ______ ____
ROOT
ATOM      1  N   UNL     1       6.813   7.560  16.904  0.00  0.00    +0.000 N 
ATOM      2  C   UNL     1       7.756   7.832  17.880  0.00  0.00    +0.000 C 
ATOM      3  O   UNL     1       8.202   7.047  18.711  0.00  0.00    +0.000 OA
ATOM      4  H   UNL     1       6.559   8.307  16.275  0.00  0.00    +0.000 HD
ENDROOT
BRANCH   1  11
ATOM      5  C   UNL     1       3.982   7.117  17.654  0.00  0.00    +0.000 C 
ATOM      6  C   UNL     1       4.851   6.072  17.013  0.00  0.00    +0.000 A 
ATOM      7  C   UNL     1       4.265   4.813  16.753  0.00  0.00    +0.000 A 
ATOM      8  C   UNL     1       4.990   3.782  16.161  0.00  0.00    +0.000 A 
ATOM      9  C   UNL     1       6.314   3.993  15.818  0.00  0.00    +0.000 A 
ATOM     10  C   UNL     1       6.908   5.232  16.068  0.00  0.00    +0.000 A 
ATOM     11  C   UNL     1       6.203   6.292  16.662  0.00  0.00    +0.000 A 
ENDBRANCH   1  11
BRANCH   2  12
ATOM     12  C   UNL     1       8.258   9.238  17.884  0.00  0.00    +0.000 C 
ATOM     13  C   UNL     1       9.115   9.549  18.877  0.00  0.00    +0.000 C 
BRANCH  13  14
ATOM     14  C   UNL     1       9.607  10.850  19.183  0.00  0.00    +0.000 A 
ATOM     15  C   UNL     1      10.334  11.661  18.320  0.00  0.00    +0.000 A 
ATOM     16  C   UNL     1      10.702  12.914  18.892  0.00  0.00    +0.000 A 
ATOM     17  C   UNL     1      10.221  13.030  20.176  0.00  0.00    +0.000 A 
ATOM     18  S   UNL     1       9.354  11.658  20.681  0.00  0.00    +0.000 S 
BRANCH  17  19
ATOM     19  N   UNL     1      10.398  14.156  21.053  0.00  0.00    +0.000 N 
ATOM     20  O   UNL     1       9.777  14.119  22.126  0.00  0.00    +0.000 OA
ATOM     21  O   UNL     1      11.144  15.075  20.690  0.00  0.00    +0.000 OA
ENDBRANCH  17  19
ENDBRANCH  13  14
ENDBRANCH   2  12
TORSDOF 4
ENDMDL
MODEL 5
REMARK VINA RESULT:      -7.0      6.179      8.693
REMARK  Name = 
REMARK  5 active torsions:
REMARK  status: ('A' for Active; 'I' for Inactive)
REMARK    1  A    between atoms: C_1  and  C_2
REMARK    2  A    between atoms: C_7  and  N_8
REMARK    3  A    between atoms: C_9  and  C_11
REMARK    4  A    between atoms: C_12  and  C_13
REMARK    5  A    between atoms: C_16  and  N_17
REMARK                            x       y       z     vdW  Elec       q    Type
REMARK                         _______ _______ _______ _____ _____    ______ ____
ROOT
ATOM      1  N   UNL     1       6.156   7.149  17.419  0.00  0.00    +0.000 N 
ATOM      2  C   UNL     1       7.432   7.408  17.888  0.00  0.00    +0.000 C 
ATOM      3  O   UNL     1       8.147   6.647  18.532  0.00  0.00    +0.000 OA
ATOM      4  H   UNL     1       5.697   7.869  16.882  0.00  0.00    +0.000 HD
ENDROOT
BRANCH   1  11
ATOM      5  C   UNL     1       5.629   5.438  15.060  0.00  0.00    +0.000 C 
ATOM      6  C   UNL     1       5.189   5.096  16.455  0.00  0.00    +0.000 A 
ATOM      7  C   UNL     1       4.490   3.881  16.635  0.00  0.00    +0.000 A 
ATOM      8  C   UNL     1       4.043   3.479  17.891  0.00  0.00    +0.000 A 
ATOM      9  C   UNL     1       4.287   4.286  18.989  0.00  0.00    +0.000 A 
ATOM     10  C   UNL     1       4.976   5.489  18.827  0.00  0.00    +0.000 A 
ATOM     11  C   UNL     1       5.442   5.922  17.575  0.00  0.00    +0.000 A 
ENDBRANCH   1  11
BRANCH   2  12
ATOM     12  C   UNL     1       7.955   8.764  17.547  0.00  0.00    +0.000 C 
ATOM     13  C   UNL     1       8.663   9.377  18.516  0.00  0.00    +0.000 C 
BRANCH  13  14
ATOM     14  C   UNL     1       9.130  10.722  18.490  0.00  0.00    +0.000 A 
ATOM     15  C   UNL     1       8.582  11.751  17.735  0.00  0.00    +0.000 A 
ATOM     16  C   UNL     1       9.254  12.998  17.901  0.00  0.00    +0.000 A 
ATOM     17  C   UNL     1      10.287  12.885  18.801  0.00  0.00    +0.000 A 
ATOM     18  S   UNL     1      10.448  11.312  19.426  0.00  0.00    +0.000 S 
BRANCH  17  19
ATOM     19  N   UNL     1      11.177  13.937  19.214  0.00  0.00    +0.000 N 
ATOM     20  O   UNL     1      12.333  13.596  19.507  0.00  0.00    +0.000 OA
ATOM     21  O   UNL     1      10.743  15.096  19.250  0.00  0.00    +0.000 OA
ENDBRANCH  17  19
ENDBRANCH  13  14
ENDBRANCH   2  12
TORSDOF 4
ENDMDL
MODEL 6
REMARK VINA RESULT:      -6.9      2.608      2.702
REMARK  Name = 
REMARK  5 active torsions:
REMARK  status: ('A' for Active; 'I' for Inactive)
REMARK    1  A    between atoms: C_1  and  C_2
REMARK    2  A    between atoms: C_7  and  N_8
REMARK    3  A    between atoms: C_9  and  C_11
REMARK    4  A    between atoms: C_12  and  C_13
REMARK    5  A    between atoms: C_16  and  N_17
REMARK                            x       y       z     vdW  Elec       q    Type
REMARK                         _______ _______ _______ _____ _____    ______ ____
ROOT
ATOM      1  N   UNL     1       0.919   9.308  18.990  0.00  0.00    +0.000 N 
ATOM      2  C   UNL     1       1.954   9.461  18.084  0.00  0.00    +0.000 C 
ATOM      3  O   UNL     1       2.335  10.510  17.573  0.00  0.00    +0.000 OA
ATOM      4  H   UNL     1       0.735   8.380  19.341  0.00  0.00    +0.000 HD
ENDROOT
BRANCH   1  11
ATOM      5  C   UNL     1      -1.578  10.108  17.612  0.00  0.00    +0.000 C 
ATOM      6  C   UNL     1      -1.080  10.746  18.878  0.00  0.00    +0.000 A 
ATOM      7  C   UNL     1      -1.865  11.782  19.433  0.00  0.00    +0.000 A 
ATOM      8  C   UNL     1      -1.486  12.432  20.605  0.00  0.00    +0.000 A 
ATOM      9  C   UNL     1      -0.315  12.058  21.241  0.00  0.00    +0.000 A 
ATOM     10  C   UNL     1       0.472  11.036  20.704  0.00  0.00    +0.000 A 
ATOM     11  C   UNL     1       0.116  10.360  19.526  0.00  0.00    +0.000 A 
ENDBRANCH   1  11
BRANCH   2  12
ATOM     12  C   UNL     1       2.655   8.194  17.722  0.00  0.00    +0.000 C 
ATOM     13  C   UNL     1       2.448   7.154  18.555  0.00  0.00    +0.000 C 
BRANCH  13  14
ATOM     14  C   UNL     1       3.119   5.899  18.512  0.00  0.00    +0.000 A 
ATOM     15  C   UNL     1       4.154   5.567  17.646  0.00  0.00    +0.000 A 
ATOM     16  C   UNL     1       4.638   4.237  17.821  0.00  0.00    +0.000 A 
ATOM     17  C   UNL     1       3.967   3.599  18.839  0.00  0.00    +0.000 A 
ATOM     18  S   UNL     1       2.778   4.577  19.559  0.00  0.00    +0.000 S 
BRANCH  17  19
ATOM     19  N   UNL     1       4.191   2.252  19.294  0.00  0.00    +0.000 N 
ATOM     20  O   UNL     1       3.621   1.355  18.655  0.00  0.00    +0.000 OA
ATOM     21  O   UNL     1       4.924   2.076  20.275  0.00  0.00    +0.000 OA
ENDBRANCH  17  19
ENDBRANCH  13  14
ENDBRANCH   2  12
TORSDOF 4
ENDMDL
MODEL 7
REMARK VINA RESULT:      -6.9      2.100      2.680
REMARK  Name = 
REMARK  5 active torsions:
REMARK  status: ('A' for Active; 'I' for Inactive)
REMARK    1  A    between atoms: C_1  and  C_2
REMARK    2  A    between atoms: C_7  and  N_8
REMARK    3  A    between atoms: C_9  and  C_11
REMARK    4  A    between atoms: C_12  and  C_13
REMARK    5  A    between atoms: C_16  and  N_17
REMARK                            x       y       z     vdW  Elec       q    Type
REMARK                         _______ _______ _______ _____ _____    ______ ____
ROOT
ATOM      1  N   UNL     1       1.806   8.316  19.740  0.00  0.00    +0.000 N 
ATOM      2  C   UNL     1       2.131   6.972  19.788  0.00  0.00    +0.000 C 
ATOM      3  O   UNL     1       1.815   6.171  20.662  0.00  0.00    +0.000 OA
ATOM      4  H   UNL     1       2.121   8.848  18.942  0.00  0.00    +0.000 HD
ENDROOT
BRANCH   1  11
ATOM      5  C   UNL     1      -0.163  10.328  18.818  0.00  0.00    +0.000 C 
ATOM      6  C   UNL     1       0.060   9.978  20.262  0.00  0.00    +0.000 A 
ATOM      7  C   UNL     1      -0.728  10.651  21.222  0.00  0.00    +0.000 A 
ATOM      8  C   UNL     1      -0.593  10.393  22.584  0.00  0.00    +0.000 A 
ATOM      9  C   UNL     1       0.334   9.456  23.009  0.00  0.00    +0.000 A 
ATOM     10  C   UNL     1       1.120   8.782  22.072  0.00  0.00    +0.000 A 
ATOM     11  C   UNL     1       1.006   9.018  20.692  0.00  0.00    +0.000 A 
ENDBRANCH   1  11
BRANCH   2  12
ATOM     12  C   UNL     1       2.948   6.489  18.637  0.00  0.00    +0.000 C 
ATOM     13  C   UNL     1       4.110   5.884  18.959  0.00  0.00    +0.000 C 
BRANCH  13  14
ATOM     14  C   UNL     1       5.125   5.480  18.046  0.00  0.00    +0.000 A 
ATOM     15  C   UNL     1       6.356   4.939  18.396  0.00  0.00    +0.000 A 
ATOM     16  C   UNL     1       7.181   4.628  17.276  0.00  0.00    +0.000 A 
ATOM     17  C   UNL     1       6.539   4.923  16.095  0.00  0.00    +0.000 A 
ATOM     18  S   UNL     1       4.983   5.565  16.333  0.00  0.00    +0.000 S 
BRANCH  17  19
ATOM     19  N   UNL     1       7.066   4.737  14.769  0.00  0.00    +0.000 N 
ATOM     20  O   UNL     1       7.925   5.552  14.400  0.00  0.00    +0.000 OA
ATOM     21  O   UNL     1       6.639   3.793  14.092  0.00  0.00    +0.000 OA
ENDBRANCH  17  19
ENDBRANCH  13  14
ENDBRANCH   2  12
TORSDOF 4
ENDMDL
MODEL 8
REMARK VINA RESULT:      -6.9      0.822      1.619
REMARK  Name = 
REMARK  5 active torsions:
REMARK  status: ('A' for Active; 'I' for Inactive)
REMARK    1  A    between atoms: C_1  and  C_2
REMARK    2  A    between atoms: C_7  and  N_8
REMARK    3  A    between atoms: C_9  and  C_11
REMARK    4  A    between atoms: C_12  and  C_13
REMARK    5  A    between atoms: C_16  and  N_17
REMARK                            x       y       z     vdW  Elec       q    Type
REMARK                         _______ _______ _______ _____ _____    ______ ____
ROOT
ATOM      1  N   UNL     1       1.135  10.109  17.945  0.00  0.00    +0.000 N 
ATOM      2  C   UNL     1       1.666   9.004  18.586  0.00  0.00    +0.000 C 
ATOM      3  O   UNL     1       1.473   8.666  19.750  0.00  0.00    +0.000 OA
ATOM      4  H   UNL     1       1.367  10.246  16.973  0.00  0.00    +0.000 HD
ENDROOT
BRANCH   1  11
ATOM      5  C   UNL     1       2.054  12.861  18.543  0.00  0.00    +0.000 C 
ATOM      6  C   UNL     1       0.658  12.371  18.805  0.00  0.00    +0.000 A 
ATOM      7  C   UNL     1      -0.258  13.291  19.362  0.00  0.00    +0.000 A 
ATOM      8  C   UNL     1      -1.574  12.929  19.639  0.00  0.00    +0.000 A 
ATOM      9  C   UNL     1      -1.996  11.640  19.363  0.00  0.00    +0.000 A 
ATOM     10  C   UNL     1      -1.103  10.719  18.812  0.00  0.00    +0.000 A 
ATOM     11  C   UNL     1       0.229  11.053  18.519  0.00  0.00    +0.000 A 
ENDBRANCH   1  11
BRANCH   2  12
ATOM     12  C   UNL     1       2.555   8.161  17.734  0.00  0.00    +0.000 C 
ATOM     13  C   UNL     1       2.872   6.951  18.240  0.00  0.00    +0.000 C 
BRANCH  13  14
ATOM     14  C   UNL     1       3.818   6.037  17.695  0.00  0.00    +0.000 A 
ATOM     15  C   UNL     1       3.605   4.678  17.496  0.00  0.00    +0.000 A 
ATOM     16  C   UNL     1       4.728   4.002  16.937  0.00  0.00    +0.000 A 
ATOM     17  C   UNL     1       5.764   4.877  16.704  0.00  0.00    +0.000 A 
ATOM     18  S   UNL     1       5.393   6.473  17.155  0.00  0.00    +0.000 S 
BRANCH  17  19
ATOM     19  N   UNL     1       7.049   4.547  16.146  0.00  0.00    +0.000 N 
ATOM     20  O   UNL     1       7.111   4.485  14.909  0.00  0.00    +0.000 OA
ATOM     21  O   UNL     1       7.994   4.350  16.919  0.00  0.00    +0.000 OA
ENDBRANCH  17  19
ENDBRANCH  13  14
ENDBRANCH   2  12
TORSDOF 4
ENDMDL
MODEL 9
REMARK VINA RESULT:      -6.9      1.986      2.421
REMARK  Name = 
REMARK  5 active torsions:
REMARK  status: ('A' for Active; 'I' for Inactive)
REMARK    1  A    between atoms: C_1  and  C_2
REMARK    2  A    between atoms: C_7  and  N_8
REMARK    3  A    between atoms: C_9  and  C_11
REMARK    4  A    between atoms: C_12  and  C_13
REMARK    5  A    between atoms: C_16  and  N_17
REMARK                            x       y       z     vdW  Elec       q    Type
REMARK                         _______ _______ _______ _____ _____    ______ ____
ROOT
ATOM      1  N   UNL     1       1.441   8.941  19.952  0.00  0.00    +0.000 N 
ATOM      2  C   UNL     1       1.840   7.617  19.905  0.00  0.00    +0.000 C 
ATOM      3  O   UNL     1       1.596   6.746  20.735  0.00  0.00    +0.000 OA
ATOM      4  H   UNL     1       1.701   9.538  19.181  0.00  0.00    +0.000 HD
ENDROOT
BRANCH   1  11
ATOM      5  C   UNL     1      -0.400  11.159  19.271  0.00  0.00    +0.000 C 
ATOM      6  C   UNL     1      -0.250  10.593  20.654  0.00  0.00    +0.000 A 
ATOM      7  C   UNL     1      -1.045  11.158  21.676  0.00  0.00    +0.000 A 
ATOM      8  C   UNL     1      -0.976  10.699  22.989  0.00  0.00    +0.000 A 
ATOM      9  C   UNL     1      -0.109   9.666  23.302  0.00  0.00    +0.000 A 
ATOM     10  C   UNL     1       0.683   9.097  22.304  0.00  0.00    +0.000 A 
ATOM     11  C   UNL     1       0.635   9.536  20.971  0.00  0.00    +0.000 A 
ENDBRANCH   1  11
BRANCH   2  12
ATOM     12  C   UNL     1       2.645   7.253  18.703  0.00  0.00    +0.000 C 
ATOM     13  C   UNL     1       3.021   5.961  18.621  0.00  0.00    +0.000 C 
BRANCH  13  14
ATOM     14  C   UNL     1       3.914   5.407  17.660  0.00  0.00    +0.000 A 
ATOM     15  C   UNL     1       3.960   4.072  17.276  0.00  0.00    +0.000 A 
ATOM     16  C   UNL     1       4.957   3.796  16.295  0.00  0.00    +0.000 A 
ATOM     17  C   UNL     1       5.631   4.942  15.943  0.00  0.00    +0.000 A 
ATOM     18  S   UNL     1       5.080   6.315  16.779  0.00  0.00    +0.000 S 
BRANCH  17  19
ATOM     19  N   UNL     1       6.698   5.041  14.982  0.00  0.00    +0.000 N 
ATOM     20  O   UNL     1       7.660   5.756  15.301  0.00  0.00    +0.000 OA
ATOM     21  O   UNL     1       6.593   4.419  13.918  0.00  0.00    +0.000 OA
ENDBRANCH  17  19
ENDBRANCH  13  14
ENDBRANCH   2  12
TORSDOF 4
ENDMDL
