MODEL 1
REMARK VINA RESULT:      -6.9      0.000      0.000
REMARK  Name = 
REMARK  2 active torsions:
REMARK  status: ('A' for Active; 'I' for Inactive)
REMARK    1  A    between atoms: N_5  and  C_6
REMARK    2  A    between atoms: C_6  and  C_7
REMARK                            x       y       z     vdW  Elec       q    Type
REMARK                         _______ _______ _______ _____ _____    ______ ____
ROOT
ATOM      1  C   UNL     1       2.965   5.830  17.756  0.00  0.00    +0.000 C 
ENDROOT
BRANCH   1   6
ATOM      2  O   UNL     1       8.229   4.227  17.244  0.00  0.00    +0.000 OA
ATOM      3  C   UNL     1       7.080   4.643  17.354  0.00  0.00    +0.000 A 
ATOM      4  C   UNL     1       6.497   4.955  18.679  0.00  0.00    +0.000 A 
ATOM      5  C   UNL     1       5.219   5.353  18.725  0.00  0.00    +0.000 A 
ATOM      6  N   UNL     1       4.400   5.496  17.608  0.00  0.00    +0.000 N 
ATOM      7  C   UNL     1       4.959   5.249  16.359  0.00  0.00    +0.000 A 
ATOM      8  C   UNL     1       6.222   4.849  16.163  0.00  0.00    +0.000 A 
ENDBRANCH   1   6
BRANCH   1   9
ATOM      9  C   UNL     1       2.201   4.741  18.477  0.00  0.00    +0.000 A 
ATOM     10  C   UNL     1       2.035   3.492  17.844  0.00  0.00    +0.000 A 
ATOM     11  C   UNL     1       1.322   2.459  18.454  0.00  0.00    +0.000 A 
ATOM     12  C   UNL     1       0.768   2.648  19.715  0.00  0.00    +0.000 A 
ATOM     13  C   UNL     1       0.942   3.866  20.370  0.00  0.00    +0.000 A 
ATOM     14  C   UNL     1       1.654   4.906  19.760  0.00  0.00    +0.000 A 
ATOM     15 CL   UNL     1       1.831   6.370  20.661  0.00  0.00    +0.000 Cl
ENDBRANCH   1   9
TORSDOF 2
ENDMDL
MODEL 2
REMARK VINA RESULT:      -6.8      1.946      2.213
REMARK  Name = 
REMARK  2 active torsions:
REMARK  status: ('A' for Active; 'I' for Inactive)
REMARK    1  A    between atoms: N_5  and  C_6
REMARK    2  A    between atoms: C_6  and  C_7
REMARK                            x       y       z     vdW  Elec       q    Type
REMARK                         _______ _______ _______ _____ _____    ______ ____
ROOT
ATOM      1  C   UNL     1       4.104   3.014  17.970  0.00  0.00    +0.000 C 
ENDROOT
BRANCH   1   6
ATOM      2  O   UNL     1       7.219   7.481  17.023  0.00  0.00    +0.000 OA
ATOM      3  C   UNL     1       6.486   6.527  17.264  0.00  0.00    +0.000 A 
ATOM      4  C   UNL     1       6.639   5.731  18.505  0.00  0.00    +0.000 A 
ATOM      5  C   UNL     1       5.838   4.671  18.673  0.00  0.00    +0.000 A 
ATOM      6  N   UNL     1       4.869   4.265  17.760  0.00  0.00    +0.000 N 
ATOM      7  C   UNL     1       4.693   5.037  16.617  0.00  0.00    +0.000 A 
ATOM      8  C   UNL     1       5.417   6.124  16.320  0.00  0.00    +0.000 A 
ENDBRANCH   1   6
BRANCH   1   9
ATOM      9  C   UNL     1       3.124   3.135  19.117  0.00  0.00    +0.000 A 
ATOM     10  C   UNL     1       3.482   2.613  20.376  0.00  0.00    +0.000 A 
ATOM     11  C   UNL     1       2.609   2.678  21.463  0.00  0.00    +0.000 A 
ATOM     12  C   UNL     1       1.364   3.277  21.318  0.00  0.00    +0.000 A 
ATOM     13  C   UNL     1       0.999   3.824  20.088  0.00  0.00    +0.000 A 
ATOM     14  C   UNL     1       1.871   3.758  18.995  0.00  0.00    +0.000 A 
ATOM     15 CL   UNL     1       1.336   4.481  17.519  0.00  0.00    +0.000 Cl
ENDBRANCH   1   9
TORSDOF 2
ENDMDL
MODEL 3
REMARK VINA RESULT:      -6.8      1.222      1.513
REMARK  Name = 
REMARK  2 active torsions:
REMARK  status: ('A' for Active; 'I' for Inactive)
REMARK    1  A    between atoms: N_5  and  C_6
REMARK    2  A    between atoms: C_6  and  C_7
REMARK                            x       y       z     vdW  Elec       q    Type
REMARK                         _______ _______ _______ _____ _____    ______ ____
ROOT
ATOM      1  C   UNL     1       4.402   5.192  19.340  0.00  0.00    +0.000 C 
ENDROOT
BRANCH   1   6
ATOM      2  O   UNL     1       7.478   5.216  14.749  0.00  0.00    +0.000 OA
ATOM      3  C   UNL     1       6.823   5.265  15.785  0.00  0.00    +0.000 A 
ATOM      4  C   UNL     1       7.325   4.667  17.044  0.00  0.00    +0.000 A 
ATOM      5  C   UNL     1       6.530   4.711  18.121  0.00  0.00    +0.000 A 
ATOM      6  N   UNL     1       5.262   5.286  18.139  0.00  0.00    +0.000 N 
ATOM      7  C   UNL     1       4.808   5.889  16.971  0.00  0.00    +0.000 A 
ATOM      8  C   UNL     1       5.495   5.924  15.822  0.00  0.00    +0.000 A 
ENDBRANCH   1   6
BRANCH   1   9
ATOM      9  C   UNL     1       3.265   4.211  19.148  0.00  0.00    +0.000 A 
ATOM     10  C   UNL     1       3.484   3.060  18.364  0.00  0.00    +0.000 A 
ATOM     11  C   UNL     1       2.465   2.134  18.137  0.00  0.00    +0.000 A 
ATOM     12  C   UNL     1       1.209   2.332  18.696  0.00  0.00    +0.000 A 
ATOM     13  C   UNL     1       0.977   3.450  19.496  0.00  0.00    +0.000 A 
ATOM     14  C   UNL     1       1.996   4.383  19.725  0.00  0.00    +0.000 A 
ATOM     15 CL   UNL     1       1.617   5.725  20.745  0.00  0.00    +0.000 Cl
ENDBRANCH   1   9
TORSDOF 2
ENDMDL
MODEL 4
REMARK VINA RESULT:      -6.8      1.213      1.744
REMARK  Name = 
REMARK  2 active torsions:
REMARK  status: ('A' for Active; 'I' for Inactive)
REMARK    1  A    between atoms: N_5  and  C_6
REMARK    2  A    between atoms: C_6  and  C_7
REMARK                            x       y       z     vdW  Elec       q    Type
REMARK                         _______ _______ _______ _____ _____    ______ ____
ROOT
ATOM      1  C   UNL     1       4.364   5.311  19.316  0.00  0.00    +0.000 C 
ENDROOT
BRANCH   1   6
ATOM      2  O   UNL     1       7.557   5.315  14.805  0.00  0.00    +0.000 OA
ATOM      3  C   UNL     1       6.826   5.258  15.788  0.00  0.00    +0.000 A 
ATOM      4  C   UNL     1       5.443   5.790  15.753  0.00  0.00    +0.000 A 
ATOM      5  C   UNL     1       4.723   5.742  16.881  0.00  0.00    +0.000 A 
ATOM      6  N   UNL     1       5.184   5.222  18.087  0.00  0.00    +0.000 N 
ATOM      7  C   UNL     1       6.465   4.679  18.110  0.00  0.00    +0.000 A 
ATOM      8  C   UNL     1       7.295   4.656  17.059  0.00  0.00    +0.000 A 
ENDBRANCH   1   6
BRANCH   1   9
ATOM      9  C   UNL     1       3.240   4.297  19.322  0.00  0.00    +0.000 A 
ATOM     10  C   UNL     1       3.457   3.037  18.729  0.00  0.00    +0.000 A 
ATOM     11  C   UNL     1       2.450   2.072  18.687  0.00  0.00    +0.000 A 
ATOM     12  C   UNL     1       1.207   2.342  19.248  0.00  0.00    +0.000 A 
ATOM     13  C   UNL     1       0.978   3.572  19.863  0.00  0.00    +0.000 A 
ATOM     14  C   UNL     1       1.986   4.543  19.905  0.00  0.00    +0.000 A 
ATOM     15 CL   UNL     1       1.613   6.027  20.706  0.00  0.00    +0.000 Cl
ENDBRANCH   1   9
TORSDOF 2
ENDMDL
MODEL 5
REMARK VINA RESULT:      -6.7      1.955      2.555
REMARK  Name = 
REMARK  2 active torsions:
REMARK  status: ('A' for Active; 'I' for Inactive)
REMARK    1  A    between atoms: N_5  and  C_6
REMARK    2  A    between atoms: C_6  and  C_7
REMARK                            x       y       z     vdW  Elec       q    Type
REMARK                         _______ _______ _______ _____ _____    ______ ____
ROOT
ATOM      1  C   UNL     1       4.008   2.874  17.890  0.00  0.00    +0.000 C 
ENDROOT
BRANCH   1   6
ATOM      2  O   UNL     1       6.872   7.526  17.048  0.00  0.00    +0.000 OA
ATOM      3  C   UNL     1       6.285   6.461  17.209  0.00  0.00    +0.000 A 
ATOM      4  C   UNL     1       5.399   5.903  16.161  0.00  0.00    +0.000 A 
ATOM      5  C   UNL     1       4.748   4.764  16.430  0.00  0.00    +0.000 A 
ATOM      6  N   UNL     1       4.850   4.065  17.630  0.00  0.00    +0.000 N 
ATOM      7  C   UNL     1       5.716   4.562  18.597  0.00  0.00    +0.000 A 
ATOM      8  C   UNL     1       6.432   5.687  18.464  0.00  0.00    +0.000 A 
ENDBRANCH   1   6
BRANCH   1   9
ATOM      9  C   UNL     1       3.085   3.080  19.071  0.00  0.00    +0.000 A 
ATOM     10  C   UNL     1       3.456   2.554  20.325  0.00  0.00    +0.000 A 
ATOM     11  C   UNL     1       2.633   2.696  21.443  0.00  0.00    +0.000 A 
ATOM     12  C   UNL     1       1.427   3.378  21.335  0.00  0.00    +0.000 A 
ATOM     13  C   UNL     1       1.052   3.930  20.110  0.00  0.00    +0.000 A 
ATOM     14  C   UNL     1       1.874   3.787  18.986  0.00  0.00    +0.000 A 
ATOM     15 CL   UNL     1       1.332   4.522  17.519  0.00  0.00    +0.000 Cl
ENDBRANCH   1   9
TORSDOF 2
ENDMDL
MODEL 6
REMARK VINA RESULT:      -6.7      1.423      1.847
REMARK  Name = 
REMARK  2 active torsions:
REMARK  status: ('A' for Active; 'I' for Inactive)
REMARK    1  A    between atoms: N_5  and  C_6
REMARK    2  A    between atoms: C_6  and  C_7
REMARK                            x       y       z     vdW  Elec       q    Type
REMARK                         _______ _______ _______ _____ _____    ______ ____
ROOT
ATOM      1  C   UNL     1       3.142   6.086  19.112  0.00  0.00    +0.000 C 
ENDROOT
BRANCH   1   6
ATOM      2  O   UNL     1       7.849   4.396  16.760  0.00  0.00    +0.000 OA
ATOM      3  C   UNL     1       6.824   4.831  17.276  0.00  0.00    +0.000 A 
ATOM      4  C   UNL     1       6.731   5.054  18.738  0.00  0.00    +0.000 A 
ATOM      5  C   UNL     1       5.563   5.478  19.235  0.00  0.00    +0.000 A 
ATOM      6  N   UNL     1       4.427   5.728  18.470  0.00  0.00    +0.000 N 
ATOM      7  C   UNL     1       4.526   5.565  17.092  0.00  0.00    +0.000 A 
ATOM      8  C   UNL     1       5.630   5.150  16.458  0.00  0.00    +0.000 A 
ENDBRANCH   1   6
BRANCH   1   9
ATOM      9  C   UNL     1       2.454   4.879  19.714  0.00  0.00    +0.000 A 
ATOM     10  C   UNL     1       2.653   4.591  21.079  0.00  0.00    +0.000 A 
ATOM     11  C   UNL     1       2.061   3.480  21.680  0.00  0.00    +0.000 A 
ATOM     12  C   UNL     1       1.247   2.638  20.931  0.00  0.00    +0.000 A 
ATOM     13  C   UNL     1       1.014   2.918  19.585  0.00  0.00    +0.000 A 
ATOM     14  C   UNL     1       1.609   4.031  18.979  0.00  0.00    +0.000 A 
ATOM     15 CL   UNL     1       1.245   4.304  17.312  0.00  0.00    +0.000 Cl
ENDBRANCH   1   9
TORSDOF 2
ENDMDL
MODEL 7
REMARK VINA RESULT:      -6.6      2.793      5.225
REMARK  Name = 
REMARK  2 active torsions:
REMARK  status: ('A' for Active; 'I' for Inactive)
REMARK    1  A    between atoms: N_5  and  C_6
REMARK    2  A    between atoms: C_6  and  C_7
REMARK                            x       y       z     vdW  Elec       q    Type
REMARK                         _______ _______ _______ _____ _____    ______ ____
ROOT
ATOM      1  C   UNL     1       3.075   3.899  17.111  0.00  0.00    +0.000 C 
ENDROOT
BRANCH   1   6
ATOM      2  O   UNL     1       1.571   2.554  22.256  0.00  0.00    +0.000 OA
ATOM      3  C   UNL     1       1.925   2.909  21.136  0.00  0.00    +0.000 A 
ATOM      4  C   UNL     1       1.003   3.633  20.230  0.00  0.00    +0.000 A 
ATOM      5  C   UNL     1       1.442   3.939  19.003  0.00  0.00    +0.000 A 
ATOM      6  N   UNL     1       2.709   3.625  18.519  0.00  0.00    +0.000 N 
ATOM      7  C   UNL     1       3.592   2.987  19.384  0.00  0.00    +0.000 A 
ATOM      8  C   UNL     1       3.292   2.624  20.638  0.00  0.00    +0.000 A 
ENDBRANCH   1   6
BRANCH   1   9
ATOM      9  C   UNL     1       4.382   4.655  17.002  0.00  0.00    +0.000 A 
ATOM     10  C   UNL     1       5.514   3.987  16.493  0.00  0.00    +0.000 A 
ATOM     11  C   UNL     1       6.749   4.629  16.391  0.00  0.00    +0.000 A 
ATOM     12  C   UNL     1       6.876   5.956  16.784  0.00  0.00    +0.000 A 
ATOM     13  C   UNL     1       5.763   6.644  17.265  0.00  0.00    +0.000 A 
ATOM     14  C   UNL     1       4.523   6.002  17.372  0.00  0.00    +0.000 A 
ATOM     15 CL   UNL     1       3.200   6.945  17.962  0.00  0.00    +0.000 Cl
ENDBRANCH   1   9
TORSDOF 2
ENDMDL
MODEL 8
REMARK VINA RESULT:      -6.6      1.830      2.185
REMARK  Name = 
REMARK  2 active torsions:
REMARK  status: ('A' for Active; 'I' for Inactive)
REMARK    1  A    between atoms: N_5  and  C_6
REMARK    2  A    between atoms: C_6  and  C_7
REMARK                            x       y       z     vdW  Elec       q    Type
REMARK                         _______ _______ _______ _____ _____    ______ ____
ROOT
ATOM      1  C   UNL     1       4.379   5.145  19.342  0.00  0.00    +0.000 C 
ENDROOT
BRANCH   1   6
ATOM      2  O   UNL     1       7.553   5.265  14.819  0.00  0.00    +0.000 OA
ATOM      3  C   UNL     1       6.877   5.292  15.842  0.00  0.00    +0.000 A 
ATOM      4  C   UNL     1       7.331   4.620  17.083  0.00  0.00    +0.000 A 
ATOM      5  C   UNL     1       6.515   4.645  18.144  0.00  0.00    +0.000 A 
ATOM      6  N   UNL     1       5.268   5.262  18.163  0.00  0.00    +0.000 N 
ATOM      7  C   UNL     1       4.860   5.932  17.015  0.00  0.00    +0.000 A 
ATOM      8  C   UNL     1       5.572   5.994  15.882  0.00  0.00    +0.000 A 
ENDBRANCH   1   6
BRANCH   1   9
ATOM      9  C   UNL     1       3.246   4.171  19.102  0.00  0.00    +0.000 A 
ATOM     10  C   UNL     1       2.077   4.630  18.461  0.00  0.00    +0.000 A 
ATOM     11  C   UNL     1       0.994   3.781  18.233  0.00  0.00    +0.000 A 
ATOM     12  C   UNL     1       1.059   2.451  18.632  0.00  0.00    +0.000 A 
ATOM     13  C   UNL     1       2.215   1.968  19.244  0.00  0.00    +0.000 A 
ATOM     14  C   UNL     1       3.303   2.818  19.476  0.00  0.00    +0.000 A 
ATOM     15 CL   UNL     1       4.697   2.122  20.223  0.00  0.00    +0.000 Cl
ENDBRANCH   1   9
TORSDOF 2
ENDMDL
MODEL 9
REMARK VINA RESULT:      -6.6      0.205      1.285
REMARK  Name = 
REMARK  2 active torsions:
REMARK  status: ('A' for Active; 'I' for Inactive)
REMARK    1  A    between atoms: N_5  and  C_6
REMARK    2  A    between atoms: C_6  and  C_7
REMARK                            x       y       z     vdW  Elec       q    Type
REMARK                         _______ _______ _______ _____ _____    ______ ____
ROOT
ATOM      1  C   UNL     1       3.057   5.717  17.804  0.00  0.00    +0.000 C 
ENDROOT
BRANCH   1   6
ATOM      2  O   UNL     1       8.340   4.283  17.046  0.00  0.00    +0.000 OA
ATOM      3  C   UNL     1       7.154   4.540  17.221  0.00  0.00    +0.000 A 
ATOM      4  C   UNL     1       6.201   4.593  16.088  0.00  0.00    +0.000 A 
ATOM      5  C   UNL     1       4.932   4.933  16.350  0.00  0.00    +0.000 A 
ATOM      6  N   UNL     1       4.446   5.239  17.618  0.00  0.00    +0.000 N 
ATOM      7  C   UNL     1       5.328   5.145  18.689  0.00  0.00    +0.000 A 
ATOM      8  C   UNL     1       6.620   4.813  18.577  0.00  0.00    +0.000 A 
ENDBRANCH   1   6
BRANCH   1   9
ATOM      9  C   UNL     1       2.207   4.711  18.550  0.00  0.00    +0.000 A 
ATOM     10  C   UNL     1       1.961   3.456  17.959  0.00  0.00    +0.000 A 
ATOM     11  C   UNL     1       1.168   2.498  18.593  0.00  0.00    +0.000 A 
ATOM     12  C   UNL     1       0.613   2.771  19.838  0.00  0.00    +0.000 A 
ATOM     13  C   UNL     1       0.865   3.996  20.454  0.00  0.00    +0.000 A 
ATOM     14  C   UNL     1       1.658   4.960  19.819  0.00  0.00    +0.000 A 
ATOM     15 CL   UNL     1       1.928   6.438  20.671  0.00  0.00    +0.000 Cl
ENDBRANCH   1   9
TORSDOF 2
ENDMDL
