MODEL 1
REMARK VINA RESULT:      -5.2      0.000      0.000
REMARK  Name = 
REMARK  6 active torsions:
REMARK  status: ('A' for Active; 'I' for Inactive)
REMARK    1  A    between atoms: C_1  and  C_2
REMARK    2  A    between atoms: CA_4  and  C_5
REMARK    3  A    between atoms: C_5  and  O_6
REMARK    4  A    between atoms: C_7  and  O_8
REMARK    5  A    between atoms: C_9  and  O_10
REMARK    6  A    between atoms: C_11  and  O_12
REMARK                            x       y       z     vdW  Elec       q    Type
REMARK                         _______ _______ _______ _____ _____    ______ ____
ROOT
ATOM      1  C   UNL     1       5.203   4.085  15.945  0.00  0.00    +0.000 C 
ATOM      2  C   UNL     1       4.383   3.808  17.208  0.00  0.00    +0.000 C 
ATOM      3  N   UNL     1       4.142   2.360  17.318  0.00  0.00    +0.000 NA
ATOM      4  CA  UNL     1       3.372   1.974  18.526  0.00  0.00    +0.000 C 
ATOM      5  C   UNL     1       4.020   2.507  19.824  0.00  0.00    +0.000 C 
ATOM      6  C   UNL     1       4.315   4.019  19.756  0.00  0.00    +0.000 C 
ATOM      7  C   UNL     1       5.067   4.406  18.464  0.00  0.00    +0.000 C 
ATOM      8  H   UNL     1       5.004   1.827  17.229  0.00  0.00    +0.000 HD
ENDROOT
BRANCH   5   9
ATOM      9  O   UNL     1       5.219   1.773  20.109  0.00  0.00    +0.000 OA
ATOM     10  H   UNL     1       5.925   2.400  20.335  0.00  0.00    +0.000 HD
ENDBRANCH   5   9
BRANCH   6  11
ATOM     11  O   UNL     1       3.088   4.752  19.903  0.00  0.00    +0.000 OA
ATOM     12  H   UNL     1       3.043   5.460  19.243  0.00  0.00    +0.000 HD
ENDBRANCH   6  11
BRANCH   7  13
ATOM     13  O   UNL     1       6.445   4.027  18.540  0.00  0.00    +0.000 OA
ATOM     14  H   UNL     1       6.789   3.921  17.644  0.00  0.00    +0.000 HD
ENDBRANCH   7  13
BRANCH   4  15
ATOM     15  C   UNL     1       1.869   2.345  18.431  0.00  0.00    +0.000 C 
BRANCH  15  16
ATOM     16  O   UNL     1       1.248   2.386  19.715  0.00  0.00    +0.000 OA
ATOM     17  H   UNL     1       0.366   1.995  19.628  0.00  0.00    +0.000 HD
ENDBRANCH  15  16
ENDBRANCH   4  15
TORSDOF 5
ENDMDL
MODEL 2
REMARK VINA RESULT:      -5.2      1.172      1.255
REMARK  Name = 
REMARK  6 active torsions:
REMARK  status: ('A' for Active; 'I' for Inactive)
REMARK    1  A    between atoms: C_1  and  C_2
REMARK    2  A    between atoms: CA_4  and  C_5
REMARK    3  A    between atoms: C_5  and  O_6
REMARK    4  A    between atoms: C_7  and  O_8
REMARK    5  A    between atoms: C_9  and  O_10
REMARK    6  A    between atoms: C_11  and  O_12
REMARK                            x       y       z     vdW  Elec       q    Type
REMARK                         _______ _______ _______ _____ _____    ______ ____
ROOT
ATOM      1  C   UNL     1       6.270   4.172  15.508  0.00  0.00    +0.000 C 
ATOM      2  C   UNL     1       5.275   4.279  16.667  0.00  0.00    +0.000 C 
ATOM      3  N   UNL     1       4.654   2.963  16.893  0.00  0.00    +0.000 NA
ATOM      4  CA  UNL     1       3.685   2.947  18.016  0.00  0.00    +0.000 C 
ATOM      5  C   UNL     1       4.306   3.478  19.328  0.00  0.00    +0.000 C 
ATOM      6  C   UNL     1       4.989   4.848  19.144  0.00  0.00    +0.000 C 
ATOM      7  C   UNL     1       5.951   4.857  17.935  0.00  0.00    +0.000 C 
ATOM      8  H   UNL     1       5.352   2.229  16.982  0.00  0.00    +0.000 HD
ENDROOT
BRANCH   5   9
ATOM      9  O   UNL     1       5.235   2.518  19.853  0.00  0.00    +0.000 OA
ATOM     10  H   UNL     1       5.804   2.206  19.131  0.00  0.00    +0.000 HD
ENDBRANCH   5   9
BRANCH   6  11
ATOM     11  O   UNL     1       3.987   5.871  19.041  0.00  0.00    +0.000 OA
ATOM     12  H   UNL     1       4.305   6.690  19.450  0.00  0.00    +0.000 HD
ENDBRANCH   6  11
BRANCH   7  13
ATOM     13  O   UNL     1       7.167   4.167  18.242  0.00  0.00    +0.000 OA
ATOM     14  H   UNL     1       7.157   3.308  17.800  0.00  0.00    +0.000 HD
ENDBRANCH   7  13
BRANCH   4  15
ATOM     15  C   UNL     1       2.350   3.659  17.675  0.00  0.00    +0.000 C 
BRANCH  15  16
ATOM     16  O   UNL     1       1.613   4.000  18.848  0.00  0.00    +0.000 OA
ATOM     17  H   UNL     1       1.929   4.865  19.153  0.00  0.00    +0.000 HD
ENDBRANCH  15  16
ENDBRANCH   4  15
TORSDOF 5
ENDMDL
MODEL 3
REMARK VINA RESULT:      -5.2      2.877      4.683
REMARK  Name = 
REMARK  6 active torsions:
REMARK  status: ('A' for Active; 'I' for Inactive)
REMARK    1  A    between atoms: C_1  and  C_2
REMARK    2  A    between atoms: CA_4  and  C_5
REMARK    3  A    between atoms: C_5  and  O_6
REMARK    4  A    between atoms: C_7  and  O_8
REMARK    5  A    between atoms: C_9  and  O_10
REMARK    6  A    between atoms: C_11  and  O_12
REMARK                            x       y       z     vdW  Elec       q    Type
REMARK                         _______ _______ _______ _____ _____    ______ ____
ROOT
ATOM      1  C   UNL     1       4.168   3.300  18.809  0.00  0.00    +0.000 C 
ATOM      2  C   UNL     1       5.122   4.430  18.412  0.00  0.00    +0.000 C 
ATOM      3  N   UNL     1       6.506   3.931  18.455  0.00  0.00    +0.000 NA
ATOM      4  CA  UNL     1       7.517   4.944  18.062  0.00  0.00    +0.000 C 
ATOM      5  C   UNL     1       7.215   5.562  16.678  0.00  0.00    +0.000 C 
ATOM      6  C   UNL     1       5.768   6.084  16.570  0.00  0.00    +0.000 C 
ATOM      7  C   UNL     1       4.736   5.033  17.038  0.00  0.00    +0.000 C 
ATOM      8  H   UNL     1       6.610   3.066  17.930  0.00  0.00    +0.000 HD
ENDROOT
BRANCH   5   9
ATOM      9  O   UNL     1       7.482   4.603  15.645  0.00  0.00    +0.000 OA
ATOM     10  H   UNL     1       6.962   3.802  15.819  0.00  0.00    +0.000 HD
ENDBRANCH   5   9
BRANCH   6  11
ATOM     11  O   UNL     1       5.648   7.315  17.302  0.00  0.00    +0.000 OA
ATOM     12  H   UNL     1       5.608   7.134  18.253  0.00  0.00    +0.000 HD
ENDBRANCH   6  11
BRANCH   7  13
ATOM     13  O   UNL     1       4.560   4.013  16.049  0.00  0.00    +0.000 OA
ATOM     14  H   UNL     1       5.355   3.969  15.502  0.00  0.00    +0.000 HD
ENDBRANCH   7  13
BRANCH   4  15
ATOM     15  C   UNL     1       7.741   6.028  19.147  0.00  0.00    +0.000 C 
BRANCH  15  16
ATOM     16  O   UNL     1       8.004   5.455  20.428  0.00  0.00    +0.000 OA
ATOM     17  H   UNL     1       7.507   5.965  21.086  0.00  0.00    +0.000 HD
ENDBRANCH  15  16
ENDBRANCH   4  15
TORSDOF 5
ENDMDL
MODEL 4
REMARK VINA RESULT:      -5.1      2.165      3.182
REMARK  Name = 
REMARK  6 active torsions:
REMARK  status: ('A' for Active; 'I' for Inactive)
REMARK    1  A    between atoms: C_1  and  C_2
REMARK    2  A    between atoms: CA_4  and  C_5
REMARK    3  A    between atoms: C_5  and  O_6
REMARK    4  A    between atoms: C_7  and  O_8
REMARK    5  A    between atoms: C_9  and  O_10
REMARK    6  A    between atoms: C_11  and  O_12
REMARK                            x       y       z     vdW  Elec       q    Type
REMARK                         _______ _______ _______ _____ _____    ______ ____
ROOT
ATOM      1  C   UNL     1       5.404   4.978  19.275  0.00  0.00    +0.000 C 
ATOM      2  C   UNL     1       4.248   3.975  19.249  0.00  0.00    +0.000 C 
ATOM      3  N   UNL     1       3.021   4.640  19.718  0.00  0.00    +0.000 NA
ATOM      4  CA  UNL     1       1.826   3.761  19.709  0.00  0.00    +0.000 C 
ATOM      5  C   UNL     1       1.588   3.116  18.325  0.00  0.00    +0.000 C 
ATOM      6  C   UNL     1       2.849   2.420  17.775  0.00  0.00    +0.000 C 
ATOM      7  C   UNL     1       4.092   3.334  17.846  0.00  0.00    +0.000 C 
ATOM      8  H   UNL     1       2.855   5.514  19.224  0.00  0.00    +0.000 HD
ENDROOT
BRANCH   5   9
ATOM      9  O   UNL     1       1.114   4.105  17.399  0.00  0.00    +0.000 OA
ATOM     10  H   UNL     1       1.859   4.407  16.855  0.00  0.00    +0.000 HD
ENDBRANCH   5   9
BRANCH   6  11
ATOM     11  O   UNL     1       3.054   1.181  18.472  0.00  0.00    +0.000 OA
ATOM     12  H   UNL     1       2.285   0.981  19.028  0.00  0.00    +0.000 HD
ENDBRANCH   6  11
BRANCH   7  13
ATOM     13  O   UNL     1       4.057   4.329  16.817  0.00  0.00    +0.000 OA
ATOM     14  H   UNL     1       3.268   4.191  16.278  0.00  0.00    +0.000 HD
ENDBRANCH   7  13
BRANCH   4  15
ATOM     15  C   UNL     1       1.840   2.708  20.847  0.00  0.00    +0.000 C 
BRANCH  15  16
ATOM     16  O   UNL     1       2.190   3.285  22.104  0.00  0.00    +0.000 OA
ATOM     17  H   UNL     1       2.898   3.929  21.946  0.00  0.00    +0.000 HD
ENDBRANCH  15  16
ENDBRANCH   4  15
TORSDOF 5
ENDMDL
MODEL 5
REMARK VINA RESULT:      -5.1      2.523      4.893
REMARK  Name = 
REMARK  6 active torsions:
REMARK  status: ('A' for Active; 'I' for Inactive)
REMARK    1  A    between atoms: C_1  and  C_2
REMARK    2  A    between atoms: CA_4  and  C_5
REMARK    3  A    between atoms: C_5  and  O_6
REMARK    4  A    between atoms: C_7  and  O_8
REMARK    5  A    between atoms: C_9  and  O_10
REMARK    6  A    between atoms: C_11  and  O_12
REMARK                            x       y       z     vdW  Elec       q    Type
REMARK                         _______ _______ _______ _____ _____    ______ ____
ROOT
ATOM      1  C   UNL     1       3.637   3.531  17.908  0.00  0.00    +0.000 C 
ATOM      2  C   UNL     1       4.949   4.052  17.316  0.00  0.00    +0.000 C 
ATOM      3  N   UNL     1       4.654   5.152  16.382  0.00  0.00    +0.000 NA
ATOM      4  CA  UNL     1       5.863   5.750  15.765  0.00  0.00    +0.000 C 
ATOM      5  C   UNL     1       6.890   6.210  16.824  0.00  0.00    +0.000 C 
ATOM      6  C   UNL     1       7.222   5.102  17.843  0.00  0.00    +0.000 C 
ATOM      7  C   UNL     1       5.948   4.454  18.430  0.00  0.00    +0.000 C 
ATOM      8  H   UNL     1       4.055   5.856  16.807  0.00  0.00    +0.000 HD
ENDROOT
BRANCH   5   9
ATOM      9  O   UNL     1       6.408   7.383  17.496  0.00  0.00    +0.000 OA
ATOM     10  H   UNL     1       5.482   7.241  17.748  0.00  0.00    +0.000 HD
ENDBRANCH   5   9
BRANCH   6  11
ATOM     11  O   UNL     1       8.082   4.130  17.228  0.00  0.00    +0.000 OA
ATOM     12  H   UNL     1       7.618   3.284  17.140  0.00  0.00    +0.000 HD
ENDBRANCH   6  11
BRANCH   7  13
ATOM     13  O   UNL     1       5.335   5.314  19.397  0.00  0.00    +0.000 OA
ATOM     14  H   UNL     1       4.775   4.782  19.977  0.00  0.00    +0.000 HD
ENDBRANCH   7  13
BRANCH   4  15
ATOM     15  C   UNL     1       6.507   4.840  14.688  0.00  0.00    +0.000 C 
BRANCH  15  16
ATOM     16  O   UNL     1       7.808   5.293  14.314  0.00  0.00    +0.000 OA
ATOM     17  H   UNL     1       7.731   5.730  13.452  0.00  0.00    +0.000 HD
ENDBRANCH  15  16
ENDBRANCH   4  15
TORSDOF 5
ENDMDL
MODEL 6
REMARK VINA RESULT:      -5.1      2.100      3.554
REMARK  Name = 
REMARK  6 active torsions:
REMARK  status: ('A' for Active; 'I' for Inactive)
REMARK    1  A    between atoms: C_1  and  C_2
REMARK    2  A    between atoms: CA_4  and  C_5
REMARK    3  A    between atoms: C_5  and  O_6
REMARK    4  A    between atoms: C_7  and  O_8
REMARK    5  A    between atoms: C_9  and  O_10
REMARK    6  A    between atoms: C_11  and  O_12
REMARK                            x       y       z     vdW  Elec       q    Type
REMARK                         _______ _______ _______ _____ _____    ______ ____
ROOT
ATOM      1  C   UNL     1       2.283   6.174  19.375  0.00  0.00    +0.000 C 
ATOM      2  C   UNL     1       2.920   4.802  19.139  0.00  0.00    +0.000 C 
ATOM      3  N   UNL     1       2.482   3.878  20.199  0.00  0.00    +0.000 NA
ATOM      4  CA  UNL     1       3.024   2.505  20.053  0.00  0.00    +0.000 C 
ATOM      5  C   UNL     1       2.721   1.904  18.662  0.00  0.00    +0.000 C 
ATOM      6  C   UNL     1       3.142   2.841  17.512  0.00  0.00    +0.000 C 
ATOM      7  C   UNL     1       2.615   4.278  17.713  0.00  0.00    +0.000 C 
ATOM      8  H   UNL     1       1.470   3.880  20.303  0.00  0.00    +0.000 HD
ENDROOT
BRANCH   5   9
ATOM      9  O   UNL     1       1.327   1.580  18.562  0.00  0.00    +0.000 OA
ATOM     10  H   UNL     1       1.220   0.621  18.668  0.00  0.00    +0.000 HD
ENDBRANCH   5   9
BRANCH   6  11
ATOM     11  O   UNL     1       4.571   2.809  17.369  0.00  0.00    +0.000 OA
ATOM     12  H   UNL     1       4.937   2.052  17.852  0.00  0.00    +0.000 HD
ENDBRANCH   6  11
BRANCH   7  13
ATOM     13  O   UNL     1       1.217   4.358  17.415  0.00  0.00    +0.000 OA
ATOM     14  H   UNL     1       1.109   4.510  16.467  0.00  0.00    +0.000 HD
ENDBRANCH   7  13
BRANCH   4  15
ATOM     15  C   UNL     1       4.528   2.405  20.415  0.00  0.00    +0.000 C 
BRANCH  15  16
ATOM     16  O   UNL     1       5.138   1.248  19.846  0.00  0.00    +0.000 OA
ATOM     17  H   UNL     1       4.431   0.687  19.491  0.00  0.00    +0.000 HD
ENDBRANCH  15  16
ENDBRANCH   4  15
TORSDOF 5
ENDMDL
MODEL 7
REMARK VINA RESULT:      -5.1      2.225      2.858
REMARK  Name = 
REMARK  6 active torsions:
REMARK  status: ('A' for Active; 'I' for Inactive)
REMARK    1  A    between atoms: C_1  and  C_2
REMARK    2  A    between atoms: CA_4  and  C_5
REMARK    3  A    between atoms: C_5  and  O_6
REMARK    4  A    between atoms: C_7  and  O_8
REMARK    5  A    between atoms: C_9  and  O_10
REMARK    6  A    between atoms: C_11  and  O_12
REMARK                            x       y       z     vdW  Elec       q    Type
REMARK                         _______ _______ _______ _____ _____    ______ ____
ROOT
ATOM      1  C   UNL     1       3.351   6.262  17.957  0.00  0.00    +0.000 C 
ATOM      2  C   UNL     1       3.332   5.009  18.837  0.00  0.00    +0.000 C 
ATOM      3  N   UNL     1       1.938   4.680  19.177  0.00  0.00    +0.000 NA
ATOM      4  CA  UNL     1       1.800   3.461  20.012  0.00  0.00    +0.000 C 
ATOM      5  C   UNL     1       2.498   2.237  19.375  0.00  0.00    +0.000 C 
ATOM      6  C   UNL     1       3.959   2.533  18.980  0.00  0.00    +0.000 C 
ATOM      7  C   UNL     1       4.085   3.836  18.160  0.00  0.00    +0.000 C 
ATOM      8  H   UNL     1       1.347   4.643  18.349  0.00  0.00    +0.000 HD
ENDROOT
BRANCH   5   9
ATOM      9  O   UNL     1       1.750   1.785  18.238  0.00  0.00    +0.000 OA
ATOM     10  H   UNL     1       1.735   2.491  17.571  0.00  0.00    +0.000 HD
ENDBRANCH   5   9
BRANCH   6  11
ATOM     11  O   UNL     1       4.777   2.561  20.160  0.00  0.00    +0.000 OA
ATOM     12  H   UNL     1       5.644   2.172  19.973  0.00  0.00    +0.000 HD
ENDBRANCH   6  11
BRANCH   7  13
ATOM     13  O   UNL     1       3.642   3.639  16.812  0.00  0.00    +0.000 OA
ATOM     14  H   UNL     1       4.310   3.991  16.211  0.00  0.00    +0.000 HD
ENDBRANCH   7  13
BRANCH   4  15
ATOM     15  C   UNL     1       2.239   3.681  21.482  0.00  0.00    +0.000 C 
BRANCH  15  16
ATOM     16  O   UNL     1       2.597   2.456  22.121  0.00  0.00    +0.000 OA
ATOM     17  H   UNL     1       3.227   1.997  21.545  0.00  0.00    +0.000 HD
ENDBRANCH  15  16
ENDBRANCH   4  15
TORSDOF 5
ENDMDL
MODEL 8
REMARK VINA RESULT:      -5.0      1.964      4.022
REMARK  Name = 
REMARK  6 active torsions:
REMARK  status: ('A' for Active; 'I' for Inactive)
REMARK    1  A    between atoms: C_1  and  C_2
REMARK    2  A    between atoms: CA_4  and  C_5
REMARK    3  A    between atoms: C_5  and  O_6
REMARK    4  A    between atoms: C_7  and  O_8
REMARK    5  A    between atoms: C_9  and  O_10
REMARK    6  A    between atoms: C_11  and  O_12
REMARK                            x       y       z     vdW  Elec       q    Type
REMARK                         _______ _______ _______ _____ _____    ______ ____
ROOT
ATOM      1  C   UNL     1       1.457   2.767  21.443  0.00  0.00    +0.000 C 
ATOM      2  C   UNL     1       2.265   3.339  20.275  0.00  0.00    +0.000 C 
ATOM      3  N   UNL     1       3.660   2.881  20.384  0.00  0.00    +0.000 NA
ATOM      4  CA  UNL     1       4.532   3.360  19.283  0.00  0.00    +0.000 C 
ATOM      5  C   UNL     1       3.960   3.005  17.892  0.00  0.00    +0.000 C 
ATOM      6  C   UNL     1       2.491   3.444  17.729  0.00  0.00    +0.000 C 
ATOM      7  C   UNL     1       1.614   2.983  18.915  0.00  0.00    +0.000 C 
ATOM      8  H   UNL     1       3.717   1.872  20.504  0.00  0.00    +0.000 HD
ENDROOT
BRANCH   5   9
ATOM      9  O   UNL     1       4.094   1.596  17.653  0.00  0.00    +0.000 OA
ATOM     10  H   UNL     1       5.024   1.398  17.459  0.00  0.00    +0.000 HD
ENDBRANCH   5   9
BRANCH   6  11
ATOM     11  O   UNL     1       2.436   4.867  17.543  0.00  0.00    +0.000 OA
ATOM     12  H   UNL     1       2.455   5.079  16.598  0.00  0.00    +0.000 HD
ENDBRANCH   6  11
BRANCH   7  13
ATOM     13  O   UNL     1       1.323   1.584  18.824  0.00  0.00    +0.000 OA
ATOM     14  H   UNL     1       0.743   1.338  19.555  0.00  0.00    +0.000 HD
ENDBRANCH   7  13
BRANCH   4  15
ATOM     15  C   UNL     1       4.883   4.866  19.400  0.00  0.00    +0.000 C 
BRANCH  15  16
ATOM     16  O   UNL     1       6.263   5.069  19.705  0.00  0.00    +0.000 OA
ATOM     17  H   UNL     1       6.648   4.205  19.916  0.00  0.00    +0.000 HD
ENDBRANCH  15  16
ENDBRANCH   4  15
TORSDOF 5
ENDMDL
MODEL 9
REMARK VINA RESULT:      -5.0      1.941      4.164
REMARK  Name = 
REMARK  6 active torsions:
REMARK  status: ('A' for Active; 'I' for Inactive)
REMARK    1  A    between atoms: C_1  and  C_2
REMARK    2  A    between atoms: CA_4  and  C_5
REMARK    3  A    between atoms: C_5  and  O_6
REMARK    4  A    between atoms: C_7  and  O_8
REMARK    5  A    between atoms: C_9  and  O_10
REMARK    6  A    between atoms: C_11  and  O_12
REMARK                            x       y       z     vdW  Elec       q    Type
REMARK                         _______ _______ _______ _____ _____    ______ ____
ROOT
ATOM      1  C   UNL     1       1.845   2.999  21.915  0.00  0.00    +0.000 C 
ATOM      2  C   UNL     1       2.363   3.515  20.569  0.00  0.00    +0.000 C 
ATOM      3  N   UNL     1       3.375   2.578  20.052  0.00  0.00    +0.000 NA
ATOM      4  CA  UNL     1       3.930   2.970  18.733  0.00  0.00    +0.000 C 
ATOM      5  C   UNL     1       2.822   3.196  17.679  0.00  0.00    +0.000 C 
ATOM      6  C   UNL     1       1.723   4.156  18.177  0.00  0.00    +0.000 C 
ATOM      7  C   UNL     1       1.200   3.761  19.576  0.00  0.00    +0.000 C 
ATOM      8  H   UNL     1       3.034   1.619  20.052  0.00  0.00    +0.000 HD
ENDROOT
BRANCH   5   9
ATOM      9  O   UNL     1       2.253   1.938  17.290  0.00  0.00    +0.000 OA
ATOM     10  H   UNL     1       1.460   2.105  16.755  0.00  0.00    +0.000 HD
ENDBRANCH   5   9
BRANCH   6  11
ATOM     11  O   UNL     1       2.218   5.504  18.151  0.00  0.00    +0.000 OA
ATOM     12  H   UNL     1       2.731   5.654  17.343  0.00  0.00    +0.000 HD
ENDBRANCH   6  11
BRANCH   7  13
ATOM     13  O   UNL     1       0.330   2.627  19.497  0.00  0.00    +0.000 OA
ATOM     14  H   UNL     1       0.843   1.828  19.675  0.00  0.00    +0.000 HD
ENDBRANCH   7  13
BRANCH   4  15
ATOM     15  C   UNL     1       4.905   4.173  18.819  0.00  0.00    +0.000 C 
BRANCH  15  16
ATOM     16  O   UNL     1       6.204   3.843  18.328  0.00  0.00    +0.000 OA
ATOM     17  H   UNL     1       6.109   3.083  17.734  0.00  0.00    +0.000 HD
ENDBRANCH  15  16
ENDBRANCH   4  15
TORSDOF 5
ENDMDL
