MODEL 1
REMARK VINA RESULT:      -7.1      0.000      0.000
REMARK  Name = 
REMARK  5 active torsions:
REMARK  status: ('A' for Active; 'I' for Inactive)
REMARK    1  A    between atoms: C_1  and  N_2
REMARK    2  A    between atoms: C_3  and  C_5
REMARK    3  A    between atoms: C_10  and  N_11
REMARK    4  A    between atoms: N_11  and  C_12
REMARK    5  A    between atoms: N_11  and  C_13
REMARK                            x       y       z     vdW  Elec       q    Type
REMARK                         _______ _______ _______ _____ _____    ______ ____
ROOT
ATOM      1  C   UNL     1       2.555   5.494  19.807  0.00  0.00    +0.000 A 
ATOM      2  C   UNL     1       2.050   6.526  20.614  0.00  0.00    +0.000 A 
ATOM      3  C   UNL     1       1.829   7.800  20.103  0.00  0.00    +0.000 A 
ATOM      4  C   UNL     1       2.080   8.005  18.754  0.00  0.00    +0.000 A 
ATOM      5  N   UNL     1       2.550   7.008  17.958  0.00  0.00    +0.000 NA
ATOM      6  C   UNL     1       2.820   5.759  18.454  0.00  0.00    +0.000 A 
ATOM      7  C   UNL     1       1.878   9.363  18.113  0.00  0.00    +0.000 C 
ATOM      8  C   UNL     1       0.435   9.894  18.162  0.00  0.00    +0.000 C 
ATOM      9  N   UNL     1       0.023  10.305  19.505  0.00  0.00    +0.000 N 
ATOM     10  C   UNL     1      -0.478  11.564  19.749  0.00  0.00    +0.000 A 
ATOM     11  N   UNL     1      -1.230  11.752  20.850  0.00  0.00    +0.000 NA
ATOM     12  C   UNL     1      -1.683  12.988  21.116  0.00  0.00    +0.000 A 
ATOM     13  C   UNL     1      -1.395  14.074  20.338  0.00  0.00    +0.000 A 
ATOM     14  C   UNL     1      -0.620  13.805  19.239  0.00  0.00    +0.000 A 
ATOM     15  N   UNL     1      -0.168  12.573  18.921  0.00  0.00    +0.000 NA
ATOM     16  C   UNL     1      -0.113   9.292  20.541  0.00  0.00    +0.000 C 
ATOM     17  C   UNL     1       1.277   8.866  21.007  0.00  0.00    +0.000 C 
ENDROOT
BRANCH   1  20
ATOM     18  C   UNL     1       1.399   2.457  21.747  0.00  0.00    +0.000 C 
ATOM     19  N   UNL     1       1.513   3.780  21.187  0.00  0.00    +0.000 N 
ATOM     20  C   UNL     1       2.637   4.159  20.466  0.00  0.00    +0.000 C 
ATOM     21  O   UNL     1       3.605   3.426  20.323  0.00  0.00    +0.000 OA
ATOM     22  H   UNL     1       0.744   4.424  21.312  0.00  0.00    +0.000 HD
ENDBRANCH   1  20
BRANCH   6  23
ATOM     23  N   UNL     1       3.421   4.899  17.554  0.00  0.00    +0.000 N 
ATOM     24  C   UNL     1       4.643   5.340  16.893  0.00  0.00    +0.000 C 
ATOM     25  C   UNL     1       2.780   3.719  17.007  0.00  0.00    +0.000 C 
ENDBRANCH   6  23
TORSDOF 2
ENDMDL
MODEL 2
REMARK VINA RESULT:      -7.0      2.027      3.463
REMARK  Name = 
REMARK  5 active torsions:
REMARK  status: ('A' for Active; 'I' for Inactive)
REMARK    1  A    between atoms: C_1  and  N_2
REMARK    2  A    between atoms: C_3  and  C_5
REMARK    3  A    between atoms: C_10  and  N_11
REMARK    4  A    between atoms: N_11  and  C_12
REMARK    5  A    between atoms: N_11  and  C_13
REMARK                            x       y       z     vdW  Elec       q    Type
REMARK                         _______ _______ _______ _____ _____    ______ ____
ROOT
ATOM      1  C   UNL     1       4.038   6.539  17.593  0.00  0.00    +0.000 A 
ATOM      2  C   UNL     1       3.163   7.593  17.280  0.00  0.00    +0.000 A 
ATOM      3  C   UNL     1       2.236   8.060  18.205  0.00  0.00    +0.000 A 
ATOM      4  C   UNL     1       2.235   7.481  19.466  0.00  0.00    +0.000 A 
ATOM      5  N   UNL     1       3.090   6.473  19.786  0.00  0.00    +0.000 NA
ATOM      6  C   UNL     1       3.979   5.966  18.873  0.00  0.00    +0.000 A 
ATOM      7  C   UNL     1       1.253   7.918  20.533  0.00  0.00    +0.000 C 
ATOM      8  C   UNL     1       1.371   9.391  20.957  0.00  0.00    +0.000 C 
ATOM      9  N   UNL     1       0.895  10.322  19.933  0.00  0.00    +0.000 N 
ATOM     10  C   UNL     1      -0.062  11.271  20.212  0.00  0.00    +0.000 A 
ATOM     11  N   UNL     1      -0.149  12.349  19.411  0.00  0.00    +0.000 NA
ATOM     12  C   UNL     1      -1.110  13.255  19.653  0.00  0.00    +0.000 A 
ATOM     13  C   UNL     1      -2.027  13.123  20.658  0.00  0.00    +0.000 A 
ATOM     14  C   UNL     1      -1.878  11.997  21.428  0.00  0.00    +0.000 A 
ATOM     15  N   UNL     1      -0.908  11.076  21.235  0.00  0.00    +0.000 NA
ATOM     16  C   UNL     1       1.629  10.426  18.681  0.00  0.00    +0.000 C 
ATOM     17  C   UNL     1       1.331   9.198  17.823  0.00  0.00    +0.000 C 
ENDROOT
BRANCH   1  20
ATOM     18  C   UNL     1       5.691   4.633  14.772  0.00  0.00    +0.000 C 
ATOM     19  N   UNL     1       4.881   4.999  15.906  0.00  0.00    +0.000 N 
ATOM     20  C   UNL     1       5.046   6.222  16.541  0.00  0.00    +0.000 C 
ATOM     21  O   UNL     1       5.918   7.017  16.222  0.00  0.00    +0.000 OA
ATOM     22  H   UNL     1       4.169   4.352  16.218  0.00  0.00    +0.000 HD
ENDBRANCH   1  20
BRANCH   6  23
ATOM     23  N   UNL     1       4.680   4.857  19.306  0.00  0.00    +0.000 N 
ATOM     24  C   UNL     1       6.133   4.948  19.380  0.00  0.00    +0.000 C 
ATOM     25  C   UNL     1       4.109   3.528  19.419  0.00  0.00    +0.000 C 
ENDBRANCH   6  23
TORSDOF 2
ENDMDL
MODEL 3
REMARK VINA RESULT:      -6.8      2.749      7.776
REMARK  Name = 
REMARK  5 active torsions:
REMARK  status: ('A' for Active; 'I' for Inactive)
REMARK    1  A    between atoms: C_1  and  N_2
REMARK    2  A    between atoms: C_3  and  C_5
REMARK    3  A    between atoms: C_10  and  N_11
REMARK    4  A    between atoms: N_11  and  C_12
REMARK    5  A    between atoms: N_11  and  C_13
REMARK                            x       y       z     vdW  Elec       q    Type
REMARK                         _______ _______ _______ _____ _____    ______ ____
ROOT
ATOM      1  C   UNL     1       0.513  12.299  20.716  0.00  0.00    +0.000 A 
ATOM      2  C   UNL     1       0.393  10.961  21.127  0.00  0.00    +0.000 A 
ATOM      3  C   UNL     1       0.662   9.911  20.257  0.00  0.00    +0.000 A 
ATOM      4  C   UNL     1       1.099  10.230  18.979  0.00  0.00    +0.000 A 
ATOM      5  N   UNL     1       1.237  11.521  18.575  0.00  0.00    +0.000 NA
ATOM      6  C   UNL     1       0.931  12.570  19.404  0.00  0.00    +0.000 A 
ATOM      7  C   UNL     1       1.404   9.152  17.960  0.00  0.00    +0.000 C 
ATOM      8  C   UNL     1       2.536   8.188  18.355  0.00  0.00    +0.000 C 
ATOM      9  N   UNL     1       2.155   7.269  19.428  0.00  0.00    +0.000 N 
ATOM     10  C   UNL     1       2.285   5.905  19.286  0.00  0.00    +0.000 A 
ATOM     11  N   UNL     1       2.345   5.149  20.398  0.00  0.00    +0.000 NA
ATOM     12  C   UNL     1       2.426   3.815  20.264  0.00  0.00    +0.000 A 
ATOM     13  C   UNL     1       2.421   3.182  19.052  0.00  0.00    +0.000 A 
ATOM     14  C   UNL     1       2.350   4.019  17.967  0.00  0.00    +0.000 A 
ATOM     15  N   UNL     1       2.296   5.366  18.058  0.00  0.00    +0.000 NA
ATOM     16  C   UNL     1       1.891   7.806  20.754  0.00  0.00    +0.000 C 
ATOM     17  C   UNL     1       0.530   8.498  20.751  0.00  0.00    +0.000 C 
ENDROOT
BRANCH   1  20
ATOM     18  C   UNL     1      -1.224  14.081  23.568  0.00  0.00    +0.000 C 
ATOM     19  N   UNL     1      -0.939  13.261  22.417  0.00  0.00    +0.000 N 
ATOM     20  C   UNL     1       0.297  13.311  21.789  0.00  0.00    +0.000 C 
ATOM     21  O   UNL     1       1.178  14.088  22.130  0.00  0.00    +0.000 OA
ATOM     22  H   UNL     1      -1.656  12.629  22.088  0.00  0.00    +0.000 HD
ENDBRANCH   1  20
BRANCH   6  23
ATOM     23  N   UNL     1       0.991  13.814  18.805  0.00  0.00    +0.000 N 
ATOM     24  C   UNL     1       2.304  14.407  18.583  0.00  0.00    +0.000 C 
ATOM     25  C   UNL     1      -0.151  14.692  18.641  0.00  0.00    +0.000 C 
ENDBRANCH   6  23
TORSDOF 2
ENDMDL
MODEL 4
REMARK VINA RESULT:      -6.7      0.904      1.137
REMARK  Name = 
REMARK  5 active torsions:
REMARK  status: ('A' for Active; 'I' for Inactive)
REMARK    1  A    between atoms: C_1  and  N_2
REMARK    2  A    between atoms: C_3  and  C_5
REMARK    3  A    between atoms: C_10  and  N_11
REMARK    4  A    between atoms: N_11  and  C_12
REMARK    5  A    between atoms: N_11  and  C_13
REMARK                            x       y       z     vdW  Elec       q    Type
REMARK                         _______ _______ _______ _____ _____    ______ ____
ROOT
ATOM      1  C   UNL     1       2.190   5.364  19.860  0.00  0.00    +0.000 A 
ATOM      2  C   UNL     1       1.722   6.453  20.612  0.00  0.00    +0.000 A 
ATOM      3  C   UNL     1       1.714   7.741  20.089  0.00  0.00    +0.000 A 
ATOM      4  C   UNL     1       2.140   7.907  18.779  0.00  0.00    +0.000 A 
ATOM      5  N   UNL     1       2.577   6.857  18.035  0.00  0.00    +0.000 NA
ATOM      6  C   UNL     1       2.637   5.587  18.549  0.00  0.00    +0.000 A 
ATOM      7  C   UNL     1       2.175   9.275  18.130  0.00  0.00    +0.000 C 
ATOM      8  C   UNL     1       0.810   9.975  18.017  0.00  0.00    +0.000 C 
ATOM      9  N   UNL     1       0.298  10.440  19.307  0.00  0.00    +0.000 N 
ATOM     10  C   UNL     1      -0.075  11.751  19.502  0.00  0.00    +0.000 A 
ATOM     11  N   UNL     1      -0.920  12.033  20.510  0.00  0.00    +0.000 NA
ATOM     12  C   UNL     1      -1.251  13.316  20.732  0.00  0.00    +0.000 A 
ATOM     13  C   UNL     1      -0.749  14.356  20.001  0.00  0.00    +0.000 A 
ATOM     14  C   UNL     1       0.110  13.990  18.996  0.00  0.00    +0.000 A 
ATOM     15  N   UNL     1       0.446  12.710  18.722  0.00  0.00    +0.000 NA
ATOM     16  C   UNL     1      -0.075   9.457  20.312  0.00  0.00    +0.000 C 
ATOM     17  C   UNL     1       1.192   8.871  20.932  0.00  0.00    +0.000 C 
ENDROOT
BRANCH   1  20
ATOM     18  C   UNL     1       3.228   2.104  21.479  0.00  0.00    +0.000 C 
ATOM     19  N   UNL     1       3.216   3.332  20.725  0.00  0.00    +0.000 N 
ATOM     20  C   UNL     1       2.036   4.032  20.514  0.00  0.00    +0.000 C 
ATOM     21  O   UNL     1       0.949   3.620  20.893  0.00  0.00    +0.000 OA
ATOM     22  H   UNL     1       4.093   3.687  20.369  0.00  0.00    +0.000 HD
ENDBRANCH   1  20
BRANCH   6  23
ATOM     23  N   UNL     1       3.231   4.656  17.717  0.00  0.00    +0.000 N 
ATOM     24  C   UNL     1       2.407   3.569  17.203  0.00  0.00    +0.000 C 
ATOM     25  C   UNL     1       4.665   4.517  17.547  0.00  0.00    +0.000 C 
ENDBRANCH   6  23
TORSDOF 2
ENDMDL
MODEL 5
REMARK VINA RESULT:      -6.5      1.959      3.811
REMARK  Name = 
REMARK  5 active torsions:
REMARK  status: ('A' for Active; 'I' for Inactive)
REMARK    1  A    between atoms: C_1  and  N_2
REMARK    2  A    between atoms: C_3  and  C_5
REMARK    3  A    between atoms: C_10  and  N_11
REMARK    4  A    between atoms: N_11  and  C_12
REMARK    5  A    between atoms: N_11  and  C_13
REMARK                            x       y       z     vdW  Elec       q    Type
REMARK                         _______ _______ _______ _____ _____    ______ ____
ROOT
ATOM      1  C   UNL     1       4.223   4.738  17.681  0.00  0.00    +0.000 A 
ATOM      2  C   UNL     1       3.689   6.010  17.420  0.00  0.00    +0.000 A 
ATOM      3  C   UNL     1       2.690   6.553  18.220  0.00  0.00    +0.000 A 
ATOM      4  C   UNL     1       2.270   5.813  19.317  0.00  0.00    +0.000 A 
ATOM      5  N   UNL     1       2.793   4.588  19.591  0.00  0.00    +0.000 NA
ATOM      6  C   UNL     1       3.745   4.016  18.787  0.00  0.00    +0.000 A 
ATOM      7  C   UNL     1       1.179   6.320  20.237  0.00  0.00    +0.000 C 
ATOM      8  C   UNL     1       1.502   7.638  20.960  0.00  0.00    +0.000 C 
ATOM      9  N   UNL     1       1.487   8.798  20.068  0.00  0.00    +0.000 N 
ATOM     10  C   UNL     1       0.713   9.904  20.338  0.00  0.00    +0.000 A 
ATOM     11  N   UNL     1       1.047  11.075  19.765  0.00  0.00    +0.000 NA
ATOM     12  C   UNL     1       0.268  12.146  19.990  0.00  0.00    +0.000 A 
ATOM     13  C   UNL     1      -0.866  12.100  20.751  0.00  0.00    +0.000 A 
ATOM     14  C   UNL     1      -1.143  10.872  21.296  0.00  0.00    +0.000 A 
ATOM     15  N   UNL     1      -0.372   9.778  21.117  0.00  0.00    +0.000 NA
ATOM     16  C   UNL     1       2.500   8.898  19.028  0.00  0.00    +0.000 C 
ATOM     17  C   UNL     1       2.161   7.923  17.903  0.00  0.00    +0.000 C 
ENDROOT
BRANCH   1  20
ATOM     18  C   UNL     1       6.086   3.959  14.481  0.00  0.00    +0.000 C 
ATOM     19  N   UNL     1       5.054   4.196  15.458  0.00  0.00    +0.000 N 
ATOM     20  C   UNL     1       5.360   4.338  16.805  0.00  0.00    +0.000 C 
ATOM     21  O   UNL     1       6.496   4.207  17.239  0.00  0.00    +0.000 OA
ATOM     22  H   UNL     1       4.098   4.278  15.139  0.00  0.00    +0.000 HD
ENDBRANCH   1  20
BRANCH   6  23
ATOM     23  N   UNL     1       4.074   2.716  19.119  0.00  0.00    +0.000 N 
ATOM     24  C   UNL     1       3.572   1.641  18.272  0.00  0.00    +0.000 C 
ATOM     25  C   UNL     1       4.637   2.322  20.396  0.00  0.00    +0.000 C 
ENDBRANCH   6  23
TORSDOF 2
ENDMDL
MODEL 6
REMARK VINA RESULT:      -6.2      1.636      3.388
REMARK  Name = 
REMARK  5 active torsions:
REMARK  status: ('A' for Active; 'I' for Inactive)
REMARK    1  A    between atoms: C_1  and  N_2
REMARK    2  A    between atoms: C_3  and  C_5
REMARK    3  A    between atoms: C_10  and  N_11
REMARK    4  A    between atoms: N_11  and  C_12
REMARK    5  A    between atoms: N_11  and  C_13
REMARK                            x       y       z     vdW  Elec       q    Type
REMARK                         _______ _______ _______ _____ _____    ______ ____
ROOT
ATOM      1  C   UNL     1       3.531   6.592  18.055  0.00  0.00    +0.000 A 
ATOM      2  C   UNL     1       2.968   7.806  17.631  0.00  0.00    +0.000 A 
ATOM      3  C   UNL     1       2.025   8.475  18.403  0.00  0.00    +0.000 A 
ATOM      4  C   UNL     1       1.693   7.925  19.633  0.00  0.00    +0.000 A 
ATOM      5  N   UNL     1       2.246   6.760  20.064  0.00  0.00    +0.000 NA
ATOM      6  C   UNL     1       3.142   6.062  19.296  0.00  0.00    +0.000 A 
ATOM      7  C   UNL     1       0.668   8.579  20.537  0.00  0.00    +0.000 C 
ATOM      8  C   UNL     1       1.031   9.996  21.010  0.00  0.00    +0.000 C 
ATOM      9  N   UNL     1       0.941  10.995  19.944  0.00  0.00    +0.000 N 
ATOM     10  C   UNL     1       0.179  12.133  20.087  0.00  0.00    +0.000 A 
ATOM     11  N   UNL     1       0.459  13.193  19.308  0.00  0.00    +0.000 NA
ATOM     12  C   UNL     1      -0.311  14.290  19.412  0.00  0.00    +0.000 A 
ATOM     13  C   UNL     1      -1.386  14.372  20.252  0.00  0.00    +0.000 A 
ATOM     14  C   UNL     1      -1.611  13.250  21.009  0.00  0.00    +0.000 A 
ATOM     15  N   UNL     1      -0.845  12.139  20.954  0.00  0.00    +0.000 NA
ATOM     16  C   UNL     1       1.874  10.922  18.830  0.00  0.00    +0.000 C 
ATOM     17  C   UNL     1       1.462   9.777  17.907  0.00  0.00    +0.000 C 
ENDROOT
BRANCH   1  20
ATOM     18  C   UNL     1       7.011   6.106  16.652  0.00  0.00    +0.000 C 
ATOM     19  N   UNL     1       5.855   6.633  17.330  0.00  0.00    +0.000 N 
ATOM     20  C   UNL     1       4.604   6.051  17.174  0.00  0.00    +0.000 C 
ATOM     21  O   UNL     1       4.405   5.115  16.413  0.00  0.00    +0.000 OA
ATOM     22  H   UNL     1       5.977   7.427  17.944  0.00  0.00    +0.000 HD
ENDBRANCH   1  20
BRANCH   6  23
ATOM     23  N   UNL     1       3.507   4.832  19.810  0.00  0.00    +0.000 N 
ATOM     24  C   UNL     1       2.571   4.155  20.700  0.00  0.00    +0.000 C 
ATOM     25  C   UNL     1       4.854   4.299  19.763  0.00  0.00    +0.000 C 
ENDBRANCH   6  23
TORSDOF 2
ENDMDL
MODEL 7
REMARK VINA RESULT:      -6.1      2.533      7.740
REMARK  Name = 
REMARK  5 active torsions:
REMARK  status: ('A' for Active; 'I' for Inactive)
REMARK    1  A    between atoms: C_1  and  N_2
REMARK    2  A    between atoms: C_3  and  C_5
REMARK    3  A    between atoms: C_10  and  N_11
REMARK    4  A    between atoms: N_11  and  C_12
REMARK    5  A    between atoms: N_11  and  C_13
REMARK                            x       y       z     vdW  Elec       q    Type
REMARK                         _______ _______ _______ _____ _____    ______ ____
ROOT
ATOM      1  C   UNL     1      -0.271  11.519  21.084  0.00  0.00    +0.000 A 
ATOM      2  C   UNL     1      -0.224  10.138  21.331  0.00  0.00    +0.000 A 
ATOM      3  C   UNL     1       0.323   9.257  20.405  0.00  0.00    +0.000 A 
ATOM      4  C   UNL     1       0.865   9.794  19.247  0.00  0.00    +0.000 A 
ATOM      5  N   UNL     1       0.843  11.132  19.005  0.00  0.00    +0.000 NA
ATOM      6  C   UNL     1       0.265  12.012  19.884  0.00  0.00    +0.000 A 
ATOM      7  C   UNL     1       1.473   8.910  18.177  0.00  0.00    +0.000 C 
ATOM      8  C   UNL     1       2.685   8.080  18.634  0.00  0.00    +0.000 C 
ATOM      9  N   UNL     1       2.322   6.987  19.537  0.00  0.00    +0.000 N 
ATOM     10  C   UNL     1       2.689   5.686  19.275  0.00  0.00    +0.000 A 
ATOM     11  N   UNL     1       2.726   4.812  20.298  0.00  0.00    +0.000 NA
ATOM     12  C   UNL     1       3.040   3.532  20.039  0.00  0.00    +0.000 A 
ATOM     13  C   UNL     1       3.295   3.064  18.781  0.00  0.00    +0.000 A 
ATOM     14  C   UNL     1       3.232   4.011  17.791  0.00  0.00    +0.000 A 
ATOM     15  N   UNL     1       2.948   5.313  18.012  0.00  0.00    +0.000 NA
ATOM     16  C   UNL     1       1.802   7.308  20.858  0.00  0.00    +0.000 C 
ATOM     17  C   UNL     1       0.359   7.788  20.724  0.00  0.00    +0.000 C 
ENDROOT
BRANCH   1  20
ATOM     18  C   UNL     1      -2.755  12.875  23.597  0.00  0.00    +0.000 C 
ATOM     19  N   UNL     1      -2.151  12.249  22.449  0.00  0.00    +0.000 N 
ATOM     20  C   UNL     1      -0.787  12.346  22.212  0.00  0.00    +0.000 C 
ATOM     21  O   UNL     1      -0.043  13.012  22.918  0.00  0.00    +0.000 OA
ATOM     22  H   UNL     1      -2.742  11.715  21.826  0.00  0.00    +0.000 HD
ENDBRANCH   1  20
BRANCH   6  23
ATOM     23  N   UNL     1       0.199  13.317  19.433  0.00  0.00    +0.000 N 
ATOM     24  C   UNL     1      -0.561  13.587  18.219  0.00  0.00    +0.000 C 
ATOM     25  C   UNL     1       1.057  14.385  19.910  0.00  0.00    +0.000 C 
ENDBRANCH   6  23
TORSDOF 2
ENDMDL
MODEL 8
REMARK VINA RESULT:      -6.1      2.415      7.680
REMARK  Name = 
REMARK  5 active torsions:
REMARK  status: ('A' for Active; 'I' for Inactive)
REMARK    1  A    between atoms: C_1  and  N_2
REMARK    2  A    between atoms: C_3  and  C_5
REMARK    3  A    between atoms: C_10  and  N_11
REMARK    4  A    between atoms: N_11  and  C_12
REMARK    5  A    between atoms: N_11  and  C_13
REMARK                            x       y       z     vdW  Elec       q    Type
REMARK                         _______ _______ _______ _____ _____    ______ ____
ROOT
ATOM      1  C   UNL     1       0.200   9.986  21.293  0.00  0.00    +0.000 A 
ATOM      2  C   UNL     1       0.236   8.585  21.370  0.00  0.00    +0.000 A 
ATOM      3  C   UNL     1       0.848   7.823  20.381  0.00  0.00    +0.000 A 
ATOM      4  C   UNL     1       1.465   8.498  19.337  0.00  0.00    +0.000 A 
ATOM      5  N   UNL     1       1.453   9.856  19.263  0.00  0.00    +0.000 NA
ATOM      6  C   UNL     1       0.814  10.622  20.203  0.00  0.00    +0.000 A 
ATOM      7  C   UNL     1       2.147   7.750  18.210  0.00  0.00    +0.000 C 
ATOM      8  C   UNL     1       3.329   6.865  18.642  0.00  0.00    +0.000 C 
ATOM      9  N   UNL     1       2.910   5.670  19.375  0.00  0.00    +0.000 N 
ATOM     10  C   UNL     1       3.300   4.410  18.979  0.00  0.00    +0.000 A 
ATOM     11  N   UNL     1       3.271   3.417  19.886  0.00  0.00    +0.000 NA
ATOM     12  C   UNL     1       3.607   2.177  19.493  0.00  0.00    +0.000 A 
ATOM     13  C   UNL     1       3.949   1.867  18.206  0.00  0.00    +0.000 A 
ATOM     14  C   UNL     1       3.949   2.930  17.339  0.00  0.00    +0.000 A 
ATOM     15  N   UNL     1       3.645   4.196  17.701  0.00  0.00    +0.000 NA
ATOM     16  C   UNL     1       2.302   5.827  20.688  0.00  0.00    +0.000 C 
ATOM     17  C   UNL     1       0.869   6.327  20.517  0.00  0.00    +0.000 C 
ENDROOT
BRANCH   1  20
ATOM     18  C   UNL     1      -2.162  12.200  23.255  0.00  0.00    +0.000 C 
ATOM     19  N   UNL     1      -1.402  11.582  22.198  0.00  0.00    +0.000 N 
ATOM     20  C   UNL     1      -0.394  10.669  22.478  0.00  0.00    +0.000 C 
ATOM     21  O   UNL     1      -0.057  10.392  23.620  0.00  0.00    +0.000 OA
ATOM     22  H   UNL     1      -1.633  11.812  21.241  0.00  0.00    +0.000 HD
ENDBRANCH   1  20
BRANCH   6  23
ATOM     23  N   UNL     1       0.773  11.973  19.914  0.00  0.00    +0.000 N 
ATOM     24  C   UNL     1      -0.082  12.417  18.820  0.00  0.00    +0.000 C 
ATOM     25  C   UNL     1       1.725  12.941  20.423  0.00  0.00    +0.000 C 
ENDBRANCH   6  23
TORSDOF 2
ENDMDL
MODEL 9
REMARK VINA RESULT:      -6.1      2.887      7.838
REMARK  Name = 
REMARK  5 active torsions:
REMARK  status: ('A' for Active; 'I' for Inactive)
REMARK    1  A    between atoms: C_1  and  N_2
REMARK    2  A    between atoms: C_3  and  C_5
REMARK    3  A    between atoms: C_10  and  N_11
REMARK    4  A    between atoms: N_11  and  C_12
REMARK    5  A    between atoms: N_11  and  C_13
REMARK                            x       y       z     vdW  Elec       q    Type
REMARK                         _______ _______ _______ _____ _____    ______ ____
ROOT
ATOM      1  C   UNL     1       0.546  12.227  20.651  0.00  0.00    +0.000 A 
ATOM      2  C   UNL     1       0.383  10.945  21.199  0.00  0.00    +0.000 A 
ATOM      3  C   UNL     1       0.616   9.801  20.443  0.00  0.00    +0.000 A 
ATOM      4  C   UNL     1       1.063   9.970  19.140  0.00  0.00    +0.000 A 
ATOM      5  N   UNL     1       1.244  11.207  18.605  0.00  0.00    +0.000 NA
ATOM      6  C   UNL     1       0.973  12.346  19.319  0.00  0.00    +0.000 A 
ATOM      7  C   UNL     1       1.333   8.783  18.240  0.00  0.00    +0.000 C 
ATOM      8  C   UNL     1       2.433   7.829  18.738  0.00  0.00    +0.000 C 
ATOM      9  N   UNL     1       2.022   7.039  19.899  0.00  0.00    +0.000 N 
ATOM     10  C   UNL     1       2.107   5.665  19.901  0.00  0.00    +0.000 A 
ATOM     11  N   UNL     1       2.142   5.027  21.085  0.00  0.00    +0.000 NA
ATOM     12  C   UNL     1       2.180   3.684  21.091  0.00  0.00    +0.000 A 
ATOM     13  C   UNL     1       2.153   2.930  19.953  0.00  0.00    +0.000 A 
ATOM     14  C   UNL     1       2.110   3.650  18.786  0.00  0.00    +0.000 A 
ATOM     15  N   UNL     1       2.100   5.000  18.736  0.00  0.00    +0.000 NA
ATOM     16  C   UNL     1       1.776   7.720  21.161  0.00  0.00    +0.000 C 
ATOM     17  C   UNL     1       0.438   8.453  21.081  0.00  0.00    +0.000 C 
ENDROOT
BRANCH   1  20
ATOM     18  C   UNL     1       1.277  15.497  22.410  0.00  0.00    +0.000 C 
ATOM     19  N   UNL     1       1.392  14.285  21.640  0.00  0.00    +0.000 N 
ATOM     20  C   UNL     1       0.364  13.353  21.611  0.00  0.00    +0.000 C 
ATOM     21  O   UNL     1      -0.653  13.474  22.280  0.00  0.00    +0.000 OA
ATOM     22  H   UNL     1       2.234  14.136  21.099  0.00  0.00    +0.000 HD
ENDBRANCH   1  20
BRANCH   6  23
ATOM     23  N   UNL     1       1.073  13.519  18.593  0.00  0.00    +0.000 N 
ATOM     24  C   UNL     1       2.405  13.998  18.244  0.00  0.00    +0.000 C 
ATOM     25  C   UNL     1      -0.021  14.451  18.400  0.00  0.00    +0.000 C 
ENDBRANCH   6  23
TORSDOF 2
ENDMDL
