MODEL 1
REMARK VINA RESULT:      -6.9      0.000      0.000
REMARK  Name = 
REMARK  10 active torsions:
REMARK  status: ('A' for Active; 'I' for Inactive)
REMARK    1  A    between atoms: C_1  and  C_2
REMARK    2  A    between atoms: C_2  and  C_3
REMARK    3  A    between atoms: C_3  and  C_4
REMARK    4  A    between atoms: C_4  and  C_5
REMARK    5  A    between atoms: C_5  and  C_6
REMARK    6  A    between atoms: C_6  and  C_7
REMARK    7  A    between atoms: C_7  and  C_8
REMARK    8  A    between atoms: C_8  and  N_9
REMARK    9  A    between atoms: N_12  and  C_13
REMARK   10  A    between atoms: C_24  and  C_25
REMARK                            x       y       z     vdW  Elec       q    Type
REMARK                         _______ _______ _______ _____ _____    ______ ____
ROOT
ATOM      1  N   UNL     1       2.583   6.348  20.061  0.00  0.00    +0.000 N 
ATOM      2  C   UNL     1       3.498   6.142  19.046  0.00  0.00    +0.000 A 
ATOM      3  C   UNL     1       3.279   7.128  18.108  0.00  0.00    +0.000 A 
ATOM      4  N   UNL     1       2.214   7.952  18.624  0.00  0.00    +0.000 N 
ATOM      5  C   UNL     1       1.899   7.491  19.866  0.00  0.00    +0.000 A 
ATOM      6  C   UNL     1       1.006   8.015  20.920  0.00  0.00    +0.000 C 
ATOM      7  C   UNL     1       4.041   7.202  16.885  0.00  0.00    +0.000 C 
ATOM      8  O   UNL     1       3.929   8.016  15.972  0.00  0.00    +0.000 OA
ATOM      9  C   UNL     1       5.123   6.153  16.766  0.00  0.00    +0.000 A 
ATOM     10  C   UNL     1       5.955   6.132  15.636  0.00  0.00    +0.000 A 
ATOM     11  C   UNL     1       6.977   5.177  15.521  0.00  0.00    +0.000 A 
ATOM     12  C   UNL     1       7.190   4.235  16.523  0.00  0.00    +0.000 A 
ATOM     13  C   UNL     1       6.365   4.239  17.640  0.00  0.00    +0.000 A 
ATOM     14  C   UNL     1       5.332   5.180  17.762  0.00  0.00    +0.000 A 
ATOM     15  C   UNL     1       4.482   5.108  18.966  0.00  0.00    +0.000 C 
ATOM     16  O   UNL     1       4.691   4.204  19.769  0.00  0.00    +0.000 OA
ENDROOT
BRANCH   4  17
ATOM     17  C   UNL     1       1.595   9.103  17.850  0.00  0.00    +0.000 C 
ATOM     18  C   UNL     1       0.081   9.235  17.983  0.00  0.00    +0.000 C 
ATOM     19  C   UNL     1      -0.382   9.932  19.253  0.00  0.00    +0.000 C 
ATOM     20  C   UNL     1       0.324  11.287  19.590  0.00  0.00    +0.000 C 
ATOM     21  C   UNL     1      -0.361  12.450  18.825  0.00  0.00    +0.000 C 
ATOM     22  C   UNL     1      -1.816  12.694  19.233  0.00  0.00    +0.000 C 
ATOM     23  C   UNL     1      -1.994  12.850  20.742  0.00  0.00    +0.000 C 
ATOM     24  C   UNL     1      -1.309  11.749  21.534  0.00  0.00    +0.000 C 
ATOM     25  C   UNL     1       0.151  11.606  21.114  0.00  0.00    +0.000 C 
ATOM     26  C   UNL     1       1.849  11.315  19.212  0.00  0.00    +0.000 C 
ATOM     27  C   UNL     1       2.263  10.470  18.003  0.00  0.00    +0.000 C 
ENDBRANCH   4  17
BRANCH   1  28
ATOM     28  C   UNL     1       2.395   5.476  21.238  0.00  0.00    +0.000 C 
BRANCH  28  29
ATOM     29  C   UNL     1       1.359   4.401  20.948  0.00  0.00    +0.000 C 
BRANCH  29  30
ATOM     30  C   UNL     1       1.777   3.076  21.556  0.00  0.00    +0.000 C 
BRANCH  30  31
ATOM     31  C   UNL     1       2.409   2.197  20.487  0.00  0.00    +0.000 C 
BRANCH  31  32
ATOM     32  C   UNL     1       1.589   2.261  19.211  0.00  0.00    +0.000 C 
BRANCH  32  33
ATOM     33  C   UNL     1       2.463   1.985  17.995  0.00  0.00    +0.000 C 
BRANCH  33  35
ATOM     34  C   UNL     1       1.303   4.123  17.389  0.00  0.00    +0.000 C 
ATOM     35  C   UNL     1       2.441   3.180  17.051  0.00  0.00    +0.000 C 
ENDBRANCH  33  35
ENDBRANCH  32  33
ENDBRANCH  31  32
ENDBRANCH  30  31
ENDBRANCH  29  30
ENDBRANCH  28  29
ENDBRANCH   1  28
TORSDOF 8
ENDMDL
MODEL 2
REMARK VINA RESULT:      -6.6      0.505      1.024
REMARK  Name = 
REMARK  10 active torsions:
REMARK  status: ('A' for Active; 'I' for Inactive)
REMARK    1  A    between atoms: C_1  and  C_2
REMARK    2  A    between atoms: C_2  and  C_3
REMARK    3  A    between atoms: C_3  and  C_4
REMARK    4  A    between atoms: C_4  and  C_5
REMARK    5  A    between atoms: C_5  and  C_6
REMARK    6  A    between atoms: C_6  and  C_7
REMARK    7  A    between atoms: C_7  and  C_8
REMARK    8  A    between atoms: C_8  and  N_9
REMARK    9  A    between atoms: N_12  and  C_13
REMARK   10  A    between atoms: C_24  and  C_25
REMARK                            x       y       z     vdW  Elec       q    Type
REMARK                         _______ _______ _______ _____ _____    ______ ____
ROOT
ATOM      1  N   UNL     1       2.588   6.362  20.166  0.00  0.00    +0.000 N 
ATOM      2  C   UNL     1       3.480   6.151  19.131  0.00  0.00    +0.000 A 
ATOM      3  C   UNL     1       3.220   7.115  18.181  0.00  0.00    +0.000 A 
ATOM      4  N   UNL     1       2.155   7.932  18.710  0.00  0.00    +0.000 N 
ATOM      5  C   UNL     1       1.881   7.490  19.968  0.00  0.00    +0.000 A 
ATOM      6  C   UNL     1       1.007   8.021  21.035  0.00  0.00    +0.000 C 
ATOM      7  C   UNL     1       3.948   7.178  16.937  0.00  0.00    +0.000 C 
ATOM      8  O   UNL     1       3.800   7.972  16.013  0.00  0.00    +0.000 OA
ATOM      9  C   UNL     1       5.043   6.143  16.810  0.00  0.00    +0.000 A 
ATOM     10  C   UNL     1       5.846   6.114  15.659  0.00  0.00    +0.000 A 
ATOM     11  C   UNL     1       6.880   5.173  15.535  0.00  0.00    +0.000 A 
ATOM     12  C   UNL     1       7.135   4.254  16.548  0.00  0.00    +0.000 A 
ATOM     13  C   UNL     1       6.339   4.266  17.686  0.00  0.00    +0.000 A 
ATOM     14  C   UNL     1       5.295   5.193  17.818  0.00  0.00    +0.000 A 
ATOM     15  C   UNL     1       4.477   5.131  19.045  0.00  0.00    +0.000 C 
ATOM     16  O   UNL     1       4.722   4.246  19.859  0.00  0.00    +0.000 OA
ENDROOT
BRANCH   4  17
ATOM     17  C   UNL     1       1.498   9.059  17.931  0.00  0.00    +0.000 C 
ATOM     18  C   UNL     1      -0.012   9.175  18.109  0.00  0.00    +0.000 C 
ATOM     19  C   UNL     1      -0.444   9.895  19.377  0.00  0.00    +0.000 C 
ATOM     20  C   UNL     1       0.255  11.265  19.663  0.00  0.00    +0.000 C 
ATOM     21  C   UNL     1      -0.469  12.402  18.895  0.00  0.00    +0.000 C 
ATOM     22  C   UNL     1      -1.913  12.638  19.342  0.00  0.00    +0.000 C 
ATOM     23  C   UNL     1      -2.045  12.825  20.853  0.00  0.00    +0.000 C 
ATOM     24  C   UNL     1      -1.322  11.750  21.647  0.00  0.00    +0.000 C 
ATOM     25  C   UNL     1       0.126  11.615  21.184  0.00  0.00    +0.000 C 
ATOM     26  C   UNL     1       1.767  11.302  19.236  0.00  0.00    +0.000 C 
ATOM     27  C   UNL     1       2.154  10.436  18.033  0.00  0.00    +0.000 C 
ENDBRANCH   4  17
BRANCH   1  28
ATOM     28  C   UNL     1       2.445   5.510  21.364  0.00  0.00    +0.000 C 
BRANCH  28  29
ATOM     29  C   UNL     1       2.027   4.101  20.972  0.00  0.00    +0.000 C 
BRANCH  29  30
ATOM     30  C   UNL     1       0.671   4.112  20.294  0.00  0.00    +0.000 C 
BRANCH  30  31
ATOM     31  C   UNL     1       0.658   3.103  19.156  0.00  0.00    +0.000 C 
BRANCH  31  32
ATOM     32  C   UNL     1       1.305   3.705  17.922  0.00  0.00    +0.000 C 
BRANCH  32  33
ATOM     33  C   UNL     1       2.433   2.816  17.417  0.00  0.00    +0.000 C 
BRANCH  33  35
ATOM     34  C   UNL     1       4.086   1.213  18.408  0.00  0.00    +0.000 C 
ATOM     35  C   UNL     1       2.629   1.633  18.357  0.00  0.00    +0.000 C 
ENDBRANCH  33  35
ENDBRANCH  32  33
ENDBRANCH  31  32
ENDBRANCH  30  31
ENDBRANCH  29  30
ENDBRANCH  28  29
ENDBRANCH   1  28
TORSDOF 8
ENDMDL
MODEL 3
REMARK VINA RESULT:      -6.5      5.852      8.591
REMARK  Name = 
REMARK  10 active torsions:
REMARK  status: ('A' for Active; 'I' for Inactive)
REMARK    1  A    between atoms: C_1  and  C_2
REMARK    2  A    between atoms: C_2  and  C_3
REMARK    3  A    between atoms: C_3  and  C_4
REMARK    4  A    between atoms: C_4  and  C_5
REMARK    5  A    between atoms: C_5  and  C_6
REMARK    6  A    between atoms: C_6  and  C_7
REMARK    7  A    between atoms: C_7  and  C_8
REMARK    8  A    between atoms: C_8  and  N_9
REMARK    9  A    between atoms: N_12  and  C_13
REMARK   10  A    between atoms: C_24  and  C_25
REMARK                            x       y       z     vdW  Elec       q    Type
REMARK                         _______ _______ _______ _____ _____    ______ ____
ROOT
ATOM      1  N   UNL     1       0.112  12.307  21.084  0.00  0.00    +0.000 N 
ATOM      2  C   UNL     1       0.587  13.373  20.344  0.00  0.00    +0.000 A 
ATOM      3  C   UNL     1      -0.208  14.456  20.653  0.00  0.00    +0.000 A 
ATOM      4  N   UNL     1      -1.158  13.997  21.636  0.00  0.00    +0.000 N 
ATOM      5  C   UNL     1      -0.849  12.707  21.938  0.00  0.00    +0.000 A 
ATOM      6  C   UNL     1      -1.366  11.779  22.966  0.00  0.00    +0.000 C 
ATOM      7  C   UNL     1      -0.017  15.745  20.033  0.00  0.00    +0.000 C 
ATOM      8  O   UNL     1      -0.664  16.773  20.211  0.00  0.00    +0.000 OA
ATOM      9  C   UNL     1       1.155  15.805  19.080  0.00  0.00    +0.000 A 
ATOM     10  C   UNL     1       1.467  17.010  18.432  0.00  0.00    +0.000 A 
ATOM     11  C   UNL     1       2.565  17.087  17.560  0.00  0.00    +0.000 A 
ATOM     12  C   UNL     1       3.368  15.975  17.323  0.00  0.00    +0.000 A 
ATOM     13  C   UNL     1       3.061  14.775  17.950  0.00  0.00    +0.000 A 
ATOM     14  C   UNL     1       1.960  14.681  18.814  0.00  0.00    +0.000 A 
ATOM     15  C   UNL     1       1.683  13.368  19.426  0.00  0.00    +0.000 C 
ATOM     16  O   UNL     1       2.397  12.420  19.111  0.00  0.00    +0.000 OA
ENDROOT
BRANCH   4  17
ATOM     17  C   UNL     1      -2.286  14.860  22.178  0.00  0.00    +0.000 C 
ATOM     18  C   UNL     1      -3.265  15.378  21.130  0.00  0.00    +0.000 C 
ATOM     19  C   UNL     1      -4.328  14.375  20.710  0.00  0.00    +0.000 C 
ATOM     20  C   UNL     1      -5.089  13.652  21.870  0.00  0.00    +0.000 C 
ATOM     21  C   UNL     1      -6.265  14.533  22.367  0.00  0.00    +0.000 C 
ATOM     22  C   UNL     1      -7.354  14.771  21.319  0.00  0.00    +0.000 C 
ATOM     23  C   UNL     1      -7.867  13.477  20.689  0.00  0.00    +0.000 C 
ATOM     24  C   UNL     1      -6.746  12.566  20.216  0.00  0.00    +0.000 C 
ATOM     25  C   UNL     1      -5.733  12.329  21.332  0.00  0.00    +0.000 C 
ATOM     26  C   UNL     1      -4.185  13.335  23.115  0.00  0.00    +0.000 C 
ATOM     27  C   UNL     1      -3.041  14.316  23.391  0.00  0.00    +0.000 C 
ENDBRANCH   4  17
BRANCH   1  28
ATOM     28  C   UNL     1       0.608  10.918  21.007  0.00  0.00    +0.000 C 
BRANCH  28  29
ATOM     29  C   UNL     1      -0.380  10.038  20.257  0.00  0.00    +0.000 C 
BRANCH  29  30
ATOM     30  C   UNL     1      -0.130  10.104  18.762  0.00  0.00    +0.000 C 
BRANCH  30  31
ATOM     31  C   UNL     1      -1.251  10.882  18.089  0.00  0.00    +0.000 C 
BRANCH  31  32
ATOM     32  C   UNL     1      -1.975   9.992  17.094  0.00  0.00    +0.000 C 
BRANCH  32  33
ATOM     33  C   UNL     1      -3.395   9.706  17.562  0.00  0.00    +0.000 C 
BRANCH  33  35
ATOM     34  C   UNL     1      -4.733  11.713  16.881  0.00  0.00    +0.000 C 
ATOM     35  C   UNL     1      -4.061  10.992  18.034  0.00  0.00    +0.000 C 
ENDBRANCH  33  35
ENDBRANCH  32  33
ENDBRANCH  31  32
ENDBRANCH  30  31
ENDBRANCH  29  30
ENDBRANCH  28  29
ENDBRANCH   1  28
TORSDOF 8
ENDMDL
MODEL 4
REMARK VINA RESULT:      -6.5      4.407      8.369
REMARK  Name = 
REMARK  10 active torsions:
REMARK  status: ('A' for Active; 'I' for Inactive)
REMARK    1  A    between atoms: C_1  and  C_2
REMARK    2  A    between atoms: C_2  and  C_3
REMARK    3  A    between atoms: C_3  and  C_4
REMARK    4  A    between atoms: C_4  and  C_5
REMARK    5  A    between atoms: C_5  and  C_6
REMARK    6  A    between atoms: C_6  and  C_7
REMARK    7  A    between atoms: C_7  and  C_8
REMARK    8  A    between atoms: C_8  and  N_9
REMARK    9  A    between atoms: N_12  and  C_13
REMARK   10  A    between atoms: C_24  and  C_25
REMARK                            x       y       z     vdW  Elec       q    Type
REMARK                         _______ _______ _______ _____ _____    ______ ____
ROOT
ATOM      1  N   UNL     1      -0.022  12.860  21.177  0.00  0.00    +0.000 N 
ATOM      2  C   UNL     1       0.541  13.818  20.354  0.00  0.00    +0.000 A 
ATOM      3  C   UNL     1      -0.159  14.986  20.568  0.00  0.00    +0.000 A 
ATOM      4  N   UNL     1      -1.143  14.692  21.581  0.00  0.00    +0.000 N 
ATOM      5  C   UNL     1      -0.944  13.409  21.990  0.00  0.00    +0.000 A 
ATOM      6  C   UNL     1      -1.536  12.617  23.088  0.00  0.00    +0.000 C 
ATOM      7  C   UNL     1       0.139  16.199  19.845  0.00  0.00    +0.000 C 
ATOM      8  O   UNL     1      -0.418  17.289  19.934  0.00  0.00    +0.000 OA
ATOM      9  C   UNL     1       1.311  16.080  18.897  0.00  0.00    +0.000 A 
ATOM     10  C   UNL     1       1.723  17.197  18.153  0.00  0.00    +0.000 A 
ATOM     11  C   UNL     1       2.822  17.108  17.284  0.00  0.00    +0.000 A 
ATOM     12  C   UNL     1       3.527  15.917  17.144  0.00  0.00    +0.000 A 
ATOM     13  C   UNL     1       3.121  14.803  17.866  0.00  0.00    +0.000 A 
ATOM     14  C   UNL     1       2.017  14.874  18.729  0.00  0.00    +0.000 A 
ATOM     15  C   UNL     1       1.631  13.644  19.446  0.00  0.00    +0.000 C 
ATOM     16  O   UNL     1       2.261  12.616  19.214  0.00  0.00    +0.000 OA
ENDROOT
BRANCH   4  17
ATOM     17  C   UNL     1      -2.193  15.688  22.043  0.00  0.00    +0.000 C 
ATOM     18  C   UNL     1      -3.577  15.501  21.432  0.00  0.00    +0.000 C 
ATOM     19  C   UNL     1      -4.416  14.418  22.091  0.00  0.00    +0.000 C 
ATOM     20  C   UNL     1      -4.502  14.469  23.653  0.00  0.00    +0.000 C 
ATOM     21  C   UNL     1      -5.616  15.454  24.094  0.00  0.00    +0.000 C 
ATOM     22  C   UNL     1      -7.026  15.034  23.672  0.00  0.00    +0.000 C 
ATOM     23  C   UNL     1      -7.367  13.603  24.081  0.00  0.00    +0.000 C 
ATOM     24  C   UNL     1      -6.287  12.605  23.698  0.00  0.00    +0.000 C 
ATOM     25  C   UNL     1      -4.921  13.063  24.203  0.00  0.00    +0.000 C 
ATOM     26  C   UNL     1      -3.168  14.932  24.342  0.00  0.00    +0.000 C 
ATOM     27  C   UNL     1      -2.302  15.917  23.551  0.00  0.00    +0.000 C 
ENDBRANCH   4  17
BRANCH   1  28
ATOM     28  C   UNL     1       0.354  11.433  21.217  0.00  0.00    +0.000 C 
BRANCH  28  29
ATOM     29  C   UNL     1      -0.677  10.587  20.487  0.00  0.00    +0.000 C 
BRANCH  29  30
ATOM     30  C   UNL     1      -0.167  10.182  19.118  0.00  0.00    +0.000 C 
BRANCH  30  31
ATOM     31  C   UNL     1       1.124   9.392  19.264  0.00  0.00    +0.000 C 
BRANCH  31  32
ATOM     32  C   UNL     1       1.899   9.417  17.959  0.00  0.00    +0.000 C 
BRANCH  32  33
ATOM     33  C   UNL     1       2.585   8.081  17.714  0.00  0.00    +0.000 C 
BRANCH  33  35
ATOM     34  C   UNL     1       2.471   5.721  18.551  0.00  0.00    +0.000 C 
ATOM     35  C   UNL     1       2.446   7.187  18.939  0.00  0.00    +0.000 C 
ENDBRANCH  33  35
ENDBRANCH  32  33
ENDBRANCH  31  32
ENDBRANCH  30  31
ENDBRANCH  29  30
ENDBRANCH  28  29
ENDBRANCH   1  28
TORSDOF 8
ENDMDL
MODEL 5
REMARK VINA RESULT:      -6.4      4.501      8.863
REMARK  Name = 
REMARK  10 active torsions:
REMARK  status: ('A' for Active; 'I' for Inactive)
REMARK    1  A    between atoms: C_1  and  C_2
REMARK    2  A    between atoms: C_2  and  C_3
REMARK    3  A    between atoms: C_3  and  C_4
REMARK    4  A    between atoms: C_4  and  C_5
REMARK    5  A    between atoms: C_5  and  C_6
REMARK    6  A    between atoms: C_6  and  C_7
REMARK    7  A    between atoms: C_7  and  C_8
REMARK    8  A    between atoms: C_8  and  N_9
REMARK    9  A    between atoms: N_12  and  C_13
REMARK   10  A    between atoms: C_24  and  C_25
REMARK                            x       y       z     vdW  Elec       q    Type
REMARK                         _______ _______ _______ _____ _____    ______ ____
ROOT
ATOM      1  N   UNL     1       0.971  12.096  20.339  0.00  0.00    +0.000 N 
ATOM      2  C   UNL     1       0.068  12.587  21.263  0.00  0.00    +0.000 A 
ATOM      3  C   UNL     1       0.351  13.926  21.424  0.00  0.00    +0.000 A 
ATOM      4  N   UNL     1       1.443  14.221  20.528  0.00  0.00    +0.000 N 
ATOM      5  C   UNL     1       1.710  13.093  19.816  0.00  0.00    +0.000 A 
ATOM      6  C   UNL     1       2.605  12.835  18.669  0.00  0.00    +0.000 C 
ATOM      7  C   UNL     1      -0.381  14.757  22.348  0.00  0.00    +0.000 C 
ATOM      8  O   UNL     1      -0.214  15.949  22.591  0.00  0.00    +0.000 OA
ATOM      9  C   UNL     1      -1.507  14.043  23.061  0.00  0.00    +0.000 A 
ATOM     10  C   UNL     1      -2.316  14.746  23.967  0.00  0.00    +0.000 A 
ATOM     11  C   UNL     1      -3.379  14.103  24.621  0.00  0.00    +0.000 A 
ATOM     12  C   UNL     1      -3.656  12.760  24.383  0.00  0.00    +0.000 A 
ATOM     13  C   UNL     1      -2.854  12.052  23.498  0.00  0.00    +0.000 A 
ATOM     14  C   UNL     1      -1.782  12.679  22.846  0.00  0.00    +0.000 A 
ATOM     15  C   UNL     1      -0.961  11.858  21.937  0.00  0.00    +0.000 C 
ATOM     16  O   UNL     1      -1.227  10.664  21.835  0.00  0.00    +0.000 OA
ENDROOT
BRANCH   4  17
ATOM     17  C   UNL     1       2.130  15.575  20.463  0.00  0.00    +0.000 C 
ATOM     18  C   UNL     1       3.522  15.625  21.084  0.00  0.00    +0.000 C 
ATOM     19  C   UNL     1       4.632  15.098  20.187  0.00  0.00    +0.000 C 
ATOM     20  C   UNL     1       4.657  15.652  18.724  0.00  0.00    +0.000 C 
ATOM     21  C   UNL     1       5.408  17.008  18.680  0.00  0.00    +0.000 C 
ATOM     22  C   UNL     1       6.890  16.914  19.052  0.00  0.00    +0.000 C 
ATOM     23  C   UNL     1       7.637  15.847  18.254  0.00  0.00    +0.000 C 
ATOM     24  C   UNL     1       6.919  14.508  18.241  0.00  0.00    +0.000 C 
ATOM     25  C   UNL     1       5.466  14.675  17.805  0.00  0.00    +0.000 C 
ATOM     26  C   UNL     1       3.227  15.890  18.117  0.00  0.00    +0.000 C 
ATOM     27  C   UNL     1       2.126  16.281  19.107  0.00  0.00    +0.000 C 
ENDBRANCH   4  17
BRANCH   1  28
ATOM     28  C   UNL     1       1.094  10.685  19.923  0.00  0.00    +0.000 C 
BRANCH  28  29
ATOM     29  C   UNL     1       0.133  10.376  18.786  0.00  0.00    +0.000 C 
BRANCH  29  30
ATOM     30  C   UNL     1       0.757   9.405  17.803  0.00  0.00    +0.000 C 
BRANCH  30  31
ATOM     31  C   UNL     1       2.149   9.016  18.280  0.00  0.00    +0.000 C 
BRANCH  31  32
ATOM     32  C   UNL     1       2.386   7.536  18.039  0.00  0.00    +0.000 C 
BRANCH  32  33
ATOM     33  C   UNL     1       2.529   6.792  19.359  0.00  0.00    +0.000 C 
BRANCH  33  35
ATOM     34  C   UNL     1       1.911   4.854  17.896  0.00  0.00    +0.000 C 
ATOM     35  C   UNL     1       2.709   5.301  19.105  0.00  0.00    +0.000 C 
ENDBRANCH  33  35
ENDBRANCH  32  33
ENDBRANCH  31  32
ENDBRANCH  30  31
ENDBRANCH  29  30
ENDBRANCH  28  29
ENDBRANCH   1  28
TORSDOF 8
ENDMDL
MODEL 6
REMARK VINA RESULT:      -6.4      6.061      8.905
REMARK  Name = 
REMARK  10 active torsions:
REMARK  status: ('A' for Active; 'I' for Inactive)
REMARK    1  A    between atoms: C_1  and  C_2
REMARK    2  A    between atoms: C_2  and  C_3
REMARK    3  A    between atoms: C_3  and  C_4
REMARK    4  A    between atoms: C_4  and  C_5
REMARK    5  A    between atoms: C_5  and  C_6
REMARK    6  A    between atoms: C_6  and  C_7
REMARK    7  A    between atoms: C_7  and  C_8
REMARK    8  A    between atoms: C_8  and  N_9
REMARK    9  A    between atoms: N_12  and  C_13
REMARK   10  A    between atoms: C_24  and  C_25
REMARK                            x       y       z     vdW  Elec       q    Type
REMARK                         _______ _______ _______ _____ _____    ______ ____
ROOT
ATOM      1  N   UNL     1      -0.130  12.652  21.102  0.00  0.00    +0.000 N 
ATOM      2  C   UNL     1       0.476  13.614  20.315  0.00  0.00    +0.000 A 
ATOM      3  C   UNL     1      -0.206  14.792  20.531  0.00  0.00    +0.000 A 
ATOM      4  N   UNL     1      -1.226  14.498  21.508  0.00  0.00    +0.000 N 
ATOM      5  C   UNL     1      -1.065  13.204  21.898  0.00  0.00    +0.000 A 
ATOM      6  C   UNL     1      -1.706  12.403  22.961  0.00  0.00    +0.000 C 
ATOM      7  C   UNL     1       0.137  16.012  19.841  0.00  0.00    +0.000 C 
ATOM      8  O   UNL     1      -0.401  17.111  19.935  0.00  0.00    +0.000 OA
ATOM      9  C   UNL     1       1.334  15.888  18.927  0.00  0.00    +0.000 A 
ATOM     10  C   UNL     1       1.790  17.010  18.218  0.00  0.00    +0.000 A 
ATOM     11  C   UNL     1       2.914  16.916  17.381  0.00  0.00    +0.000 A 
ATOM     12  C   UNL     1       3.600  15.714  17.238  0.00  0.00    +0.000 A 
ATOM     13  C   UNL     1       3.149  14.595  17.926  0.00  0.00    +0.000 A 
ATOM     14  C   UNL     1       2.022  14.671  18.756  0.00  0.00    +0.000 A 
ATOM     15  C   UNL     1       1.590  13.435  19.437  0.00  0.00    +0.000 C 
ATOM     16  O   UNL     1       2.207  12.400  19.204  0.00  0.00    +0.000 OA
ENDROOT
BRANCH   4  17
ATOM     17  C   UNL     1      -2.270  15.506  21.958  0.00  0.00    +0.000 C 
ATOM     18  C   UNL     1      -3.662  15.305  21.368  0.00  0.00    +0.000 C 
ATOM     19  C   UNL     1      -4.494  14.239  22.064  0.00  0.00    +0.000 C 
ATOM     20  C   UNL     1      -4.561  14.328  23.624  0.00  0.00    +0.000 C 
ATOM     21  C   UNL     1      -5.669  15.325  24.054  0.00  0.00    +0.000 C 
ATOM     22  C   UNL     1      -7.084  14.896  23.660  0.00  0.00    +0.000 C 
ATOM     23  C   UNL     1      -7.421  13.475  24.108  0.00  0.00    +0.000 C 
ATOM     24  C   UNL     1      -6.346  12.468  23.737  0.00  0.00    +0.000 C 
ATOM     25  C   UNL     1      -4.974  12.937  24.214  0.00  0.00    +0.000 C 
ATOM     26  C   UNL     1      -3.219  14.808  24.286  0.00  0.00    +0.000 C 
ATOM     27  C   UNL     1      -2.362  15.773  23.461  0.00  0.00    +0.000 C 
ENDBRANCH   4  17
BRANCH   1  28
ATOM     28  C   UNL     1       0.218  11.217  21.126  0.00  0.00    +0.000 C 
BRANCH  28  29
ATOM     29  C   UNL     1      -0.791  10.410  20.324  0.00  0.00    +0.000 C 
BRANCH  29  30
ATOM     30  C   UNL     1      -0.316  10.222  18.897  0.00  0.00    +0.000 C 
BRANCH  30  31
ATOM     31  C   UNL     1      -1.510  10.228  17.954  0.00  0.00    +0.000 C 
BRANCH  31  32
ATOM     32  C   UNL     1      -2.535  11.247  18.420  0.00  0.00    +0.000 C 
BRANCH  32  33
ATOM     33  C   UNL     1      -3.905  10.939  17.835  0.00  0.00    +0.000 C 
BRANCH  33  35
ATOM     34  C   UNL     1      -5.851  12.398  17.229  0.00  0.00    +0.000 C 
ATOM     35  C   UNL     1      -4.932  11.941  18.346  0.00  0.00    +0.000 C 
ENDBRANCH  33  35
ENDBRANCH  32  33
ENDBRANCH  31  32
ENDBRANCH  30  31
ENDBRANCH  29  30
ENDBRANCH  28  29
ENDBRANCH   1  28
TORSDOF 8
ENDMDL
MODEL 7
REMARK VINA RESULT:      -6.3      6.429      8.734
REMARK  Name = 
REMARK  10 active torsions:
REMARK  status: ('A' for Active; 'I' for Inactive)
REMARK    1  A    between atoms: C_1  and  C_2
REMARK    2  A    between atoms: C_2  and  C_3
REMARK    3  A    between atoms: C_3  and  C_4
REMARK    4  A    between atoms: C_4  and  C_5
REMARK    5  A    between atoms: C_5  and  C_6
REMARK    6  A    between atoms: C_6  and  C_7
REMARK    7  A    between atoms: C_7  and  C_8
REMARK    8  A    between atoms: C_8  and  N_9
REMARK    9  A    between atoms: N_12  and  C_13
REMARK   10  A    between atoms: C_24  and  C_25
REMARK                            x       y       z     vdW  Elec       q    Type
REMARK                         _______ _______ _______ _____ _____    ______ ____
ROOT
ATOM      1  N   UNL     1      -0.001  12.716  21.144  0.00  0.00    +0.000 N 
ATOM      2  C   UNL     1       0.599  13.672  20.346  0.00  0.00    +0.000 A 
ATOM      3  C   UNL     1      -0.025  14.869  20.622  0.00  0.00    +0.000 A 
ATOM      4  N   UNL     1      -1.003  14.592  21.646  0.00  0.00    +0.000 N 
ATOM      5  C   UNL     1      -0.871  13.284  22.000  0.00  0.00    +0.000 A 
ATOM      6  C   UNL     1      -1.486  12.484  23.080  0.00  0.00    +0.000 C 
ATOM      7  C   UNL     1       0.329  16.090  19.941  0.00  0.00    +0.000 C 
ATOM      8  O   UNL     1      -0.161  17.207  20.086  0.00  0.00    +0.000 OA
ATOM      9  C   UNL     1       1.470  15.942  18.961  0.00  0.00    +0.000 A 
ATOM     10  C   UNL     1       1.931  17.062  18.252  0.00  0.00    +0.000 A 
ATOM     11  C   UNL     1       3.004  16.945  17.354  0.00  0.00    +0.000 A 
ATOM     12  C   UNL     1       3.635  15.721  17.151  0.00  0.00    +0.000 A 
ATOM     13  C   UNL     1       3.178  14.605  17.838  0.00  0.00    +0.000 A 
ATOM     14  C   UNL     1       2.100  14.705  18.729  0.00  0.00    +0.000 A 
ATOM     15  C   UNL     1       1.657  13.471  19.406  0.00  0.00    +0.000 C 
ATOM     16  O   UNL     1       2.220  12.419  19.119  0.00  0.00    +0.000 OA
ENDROOT
BRANCH   4  17
ATOM     17  C   UNL     1      -1.982  15.628  22.172  0.00  0.00    +0.000 C 
ATOM     18  C   UNL     1      -3.370  15.587  21.542  0.00  0.00    +0.000 C 
ATOM     19  C   UNL     1      -4.293  14.525  22.118  0.00  0.00    +0.000 C 
ATOM     20  C   UNL     1      -4.392  14.472  23.679  0.00  0.00    +0.000 C 
ATOM     21  C   UNL     1      -5.434  15.504  24.182  0.00  0.00    +0.000 C 
ATOM     22  C   UNL     1      -6.867  15.220  23.724  0.00  0.00    +0.000 C 
ATOM     23  C   UNL     1      -7.317  13.793  24.029  0.00  0.00    +0.000 C 
ATOM     24  C   UNL     1      -6.308  12.747  23.582  0.00  0.00    +0.000 C 
ATOM     25  C   UNL     1      -4.919  13.066  24.125  0.00  0.00    +0.000 C 
ATOM     26  C   UNL     1      -3.035  14.786  24.407  0.00  0.00    +0.000 C 
ATOM     27  C   UNL     1      -2.090  15.758  23.692  0.00  0.00    +0.000 C 
ENDBRANCH   4  17
BRANCH   1  28
ATOM     28  C   UNL     1       0.290  11.268  21.119  0.00  0.00    +0.000 C 
BRANCH  28  29
ATOM     29  C   UNL     1      -0.740  10.529  20.281  0.00  0.00    +0.000 C 
BRANCH  29  30
ATOM     30  C   UNL     1      -1.179  11.375  19.101  0.00  0.00    +0.000 C 
BRANCH  30  31
ATOM     31  C   UNL     1      -2.347  10.703  18.394  0.00  0.00    +0.000 C 
BRANCH  31  32
ATOM     32  C   UNL     1      -1.846   9.921  17.193  0.00  0.00    +0.000 C 
BRANCH  32  33
ATOM     33  C   UNL     1      -2.984   9.638  16.223  0.00  0.00    +0.000 C 
BRANCH  33  35
ATOM     34  C   UNL     1      -3.493  10.010  13.797  0.00  0.00    +0.000 C 
ATOM     35  C   UNL     1      -2.951  10.632  15.070  0.00  0.00    +0.000 C 
ENDBRANCH  33  35
ENDBRANCH  32  33
ENDBRANCH  31  32
ENDBRANCH  30  31
ENDBRANCH  29  30
ENDBRANCH  28  29
ENDBRANCH   1  28
TORSDOF 8
ENDMDL
MODEL 8
REMARK VINA RESULT:      -6.3      5.749      9.787
REMARK  Name = 
REMARK  10 active torsions:
REMARK  status: ('A' for Active; 'I' for Inactive)
REMARK    1  A    between atoms: C_1  and  C_2
REMARK    2  A    between atoms: C_2  and  C_3
REMARK    3  A    between atoms: C_3  and  C_4
REMARK    4  A    between atoms: C_4  and  C_5
REMARK    5  A    between atoms: C_5  and  C_6
REMARK    6  A    between atoms: C_6  and  C_7
REMARK    7  A    between atoms: C_7  and  C_8
REMARK    8  A    between atoms: C_8  and  N_9
REMARK    9  A    between atoms: N_12  and  C_13
REMARK   10  A    between atoms: C_24  and  C_25
REMARK                            x       y       z     vdW  Elec       q    Type
REMARK                         _______ _______ _______ _____ _____    ______ ____
ROOT
ATOM      1  N   UNL     1      -1.324  12.779  19.160  0.00  0.00    +0.000 N 
ATOM      2  C   UNL     1      -2.227  13.108  20.154  0.00  0.00    +0.000 A 
ATOM      3  C   UNL     1      -1.565  13.940  21.031  0.00  0.00    +0.000 A 
ATOM      4  N   UNL     1      -0.237  14.120  20.499  0.00  0.00    +0.000 N 
ATOM      5  C   UNL     1      -0.180  13.473  19.303  0.00  0.00    +0.000 A 
ATOM      6  C   UNL     1       0.854  13.432  18.248  0.00  0.00    +0.000 C 
ATOM      7  C   UNL     1      -2.200  14.458  22.219  0.00  0.00    +0.000 C 
ATOM      8  O   UNL     1      -1.715  15.188  23.079  0.00  0.00    +0.000 OA
ATOM      9  C   UNL     1      -3.650  14.057  22.370  0.00  0.00    +0.000 A 
ATOM     10  C   UNL     1      -4.391  14.518  23.469  0.00  0.00    +0.000 A 
ATOM     11  C   UNL     1      -5.744  14.172  23.611  0.00  0.00    +0.000 A 
ATOM     12  C   UNL     1      -6.379  13.370  22.668  0.00  0.00    +0.000 A 
ATOM     13  C   UNL     1      -5.652  12.899  21.583  0.00  0.00    +0.000 A 
ATOM     14  C   UNL     1      -4.297  13.228  21.434  0.00  0.00    +0.000 A 
ATOM     15  C   UNL     1      -3.583  12.672  20.268  0.00  0.00    +0.000 C 
ATOM     16  O   UNL     1      -4.197  11.916  19.520  0.00  0.00    +0.000 OA
ENDROOT
BRANCH   4  17
ATOM     17  C   UNL     1       0.855  14.896  21.216  0.00  0.00    +0.000 C 
ATOM     18  C   UNL     1       2.180  14.157  21.371  0.00  0.00    +0.000 C 
ATOM     19  C   UNL     1       3.067  14.187  20.136  0.00  0.00    +0.000 C 
ATOM     20  C   UNL     1       3.289  15.591  19.482  0.00  0.00    +0.000 C 
ATOM     21  C   UNL     1       4.442  16.338  20.201  0.00  0.00    +0.000 C 
ATOM     22  C   UNL     1       5.808  15.660  20.064  0.00  0.00    +0.000 C 
ATOM     23  C   UNL     1       6.175  15.351  18.614  0.00  0.00    +0.000 C 
ATOM     24  C   UNL     1       5.060  14.647  17.860  0.00  0.00    +0.000 C 
ATOM     25  C   UNL     1       3.746  15.412  17.994  0.00  0.00    +0.000 C 
ATOM     26  C   UNL     1       2.023  16.520  19.540  0.00  0.00    +0.000 C 
ATOM     27  C   UNL     1       1.097  16.331  20.746  0.00  0.00    +0.000 C 
ENDBRANCH   4  17
BRANCH   1  28
ATOM     28  C   UNL     1      -1.573  11.836  18.051  0.00  0.00    +0.000 C 
BRANCH  28  29
ATOM     29  C   UNL     1      -1.326  10.404  18.500  0.00  0.00    +0.000 C 
BRANCH  29  30
ATOM     30  C   UNL     1       0.047   9.933  18.062  0.00  0.00    +0.000 C 
BRANCH  30  31
ATOM     31  C   UNL     1       0.979   9.883  19.263  0.00  0.00    +0.000 C 
BRANCH  31  32
ATOM     32  C   UNL     1       0.203   9.486  20.506  0.00  0.00    +0.000 C 
BRANCH  32  33
ATOM     33  C   UNL     1       0.379  10.524  21.605  0.00  0.00    +0.000 C 
BRANCH  33  35
ATOM     34  C   UNL     1      -1.470  11.049  23.213  0.00  0.00    +0.000 C 
ATOM     35  C   UNL     1      -0.353  10.084  22.866  0.00  0.00    +0.000 C 
ENDBRANCH  33  35
ENDBRANCH  32  33
ENDBRANCH  31  32
ENDBRANCH  30  31
ENDBRANCH  29  30
ENDBRANCH  28  29
ENDBRANCH   1  28
TORSDOF 8
ENDMDL
MODEL 9
REMARK VINA RESULT:      -6.2      5.729      8.369
REMARK  Name = 
REMARK  10 active torsions:
REMARK  status: ('A' for Active; 'I' for Inactive)
REMARK    1  A    between atoms: C_1  and  C_2
REMARK    2  A    between atoms: C_2  and  C_3
REMARK    3  A    between atoms: C_3  and  C_4
REMARK    4  A    between atoms: C_4  and  C_5
REMARK    5  A    between atoms: C_5  and  C_6
REMARK    6  A    between atoms: C_6  and  C_7
REMARK    7  A    between atoms: C_7  and  C_8
REMARK    8  A    between atoms: C_8  and  N_9
REMARK    9  A    between atoms: N_12  and  C_13
REMARK   10  A    between atoms: C_24  and  C_25
REMARK                            x       y       z     vdW  Elec       q    Type
REMARK                         _______ _______ _______ _____ _____    ______ ____
ROOT
ATOM      1  N   UNL     1       0.380  11.823  20.553  0.00  0.00    +0.000 N 
ATOM      2  C   UNL     1       0.912  12.972  19.999  0.00  0.00    +0.000 A 
ATOM      3  C   UNL     1       0.268  14.035  20.596  0.00  0.00    +0.000 A 
ATOM      4  N   UNL     1      -0.649  13.469  21.556  0.00  0.00    +0.000 N 
ATOM      5  C   UNL     1      -0.462  12.121  21.560  0.00  0.00    +0.000 A 
ATOM      6  C   UNL     1      -0.998  11.050  22.427  0.00  0.00    +0.000 C 
ATOM      7  C   UNL     1       0.552  15.402  20.232  0.00  0.00    +0.000 C 
ATOM      8  O   UNL     1       0.038  16.425  20.676  0.00  0.00    +0.000 OA
ATOM      9  C   UNL     1       1.646  15.552  19.200  0.00  0.00    +0.000 A 
ATOM     10  C   UNL     1       2.038  16.833  18.780  0.00  0.00    +0.000 A 
ATOM     11  C   UNL     1       3.068  16.989  17.838  0.00  0.00    +0.000 A 
ATOM     12  C   UNL     1       3.722  15.883  17.304  0.00  0.00    +0.000 A 
ATOM     13  C   UNL     1       3.333  14.611  17.704  0.00  0.00    +0.000 A 
ATOM     14  C   UNL     1       2.299  14.440  18.636  0.00  0.00    +0.000 A 
ATOM     15  C   UNL     1       1.926  13.058  18.996  0.00  0.00    +0.000 C 
ATOM     16  O   UNL     1       2.504  12.136  18.429  0.00  0.00    +0.000 OA
ENDROOT
BRANCH   4  17
ATOM     17  C   UNL     1      -1.629  14.299  22.367  0.00  0.00    +0.000 C 
ATOM     18  C   UNL     1      -2.591  15.152  21.547  0.00  0.00    +0.000 C 
ATOM     19  C   UNL     1      -3.792  14.396  20.999  0.00  0.00    +0.000 C 
ATOM     20  C   UNL     1      -4.574  13.510  22.024  0.00  0.00    +0.000 C 
ATOM     21  C   UNL     1      -5.602  14.373  22.802  0.00  0.00    +0.000 C 
ATOM     22  C   UNL     1      -6.708  14.966  21.926  0.00  0.00    +0.000 C 
ATOM     23  C   UNL     1      -7.411  13.919  21.065  0.00  0.00    +0.000 C 
ATOM     24  C   UNL     1      -6.441  13.027  20.310  0.00  0.00    +0.000 C 
ATOM     25  C   UNL     1      -5.406  12.427  21.257  0.00  0.00    +0.000 C 
ATOM     26  C   UNL     1      -3.650  12.814  23.088  0.00  0.00    +0.000 C 
ATOM     27  C   UNL     1      -2.380  13.573  23.484  0.00  0.00    +0.000 C 
ENDBRANCH   4  17
BRANCH   1  28
ATOM     28  C   UNL     1       0.712  10.441  20.150  0.00  0.00    +0.000 C 
BRANCH  28  29
ATOM     29  C   UNL     1       0.074  10.107  18.810  0.00  0.00    +0.000 C 
BRANCH  29  30
ATOM     30  C   UNL     1      -1.436  10.205  18.895  0.00  0.00    +0.000 C 
BRANCH  30  31
ATOM     31  C   UNL     1      -1.917  11.418  18.112  0.00  0.00    +0.000 C 
BRANCH  31  32
ATOM     32  C   UNL     1      -3.430  11.515  18.184  0.00  0.00    +0.000 C 
BRANCH  32  33
ATOM     33  C   UNL     1      -4.076  10.637  17.122  0.00  0.00    +0.000 C 
BRANCH  33  35
ATOM     34  C   UNL     1      -3.019   9.977  14.947  0.00  0.00    +0.000 C 
ATOM     35  C   UNL     1      -3.664  11.103  15.732  0.00  0.00    +0.000 C 
ENDBRANCH  33  35
ENDBRANCH  32  33
ENDBRANCH  31  32
ENDBRANCH  30  31
ENDBRANCH  29  30
ENDBRANCH  28  29
ENDBRANCH   1  28
TORSDOF 8
ENDMDL
