MODEL 1
REMARK VINA RESULT:      -7.6      0.000      0.000
REMARK  Name = 
REMARK  5 active torsions:
REMARK  status: ('A' for Active; 'I' for Inactive)
REMARK    1  A    between atoms: C_1  and  C_2
REMARK    2  A    between atoms: C_2  and  C_3
REMARK    3  A    between atoms: C_2  and  N_12
REMARK    4  A    between atoms: N_5  and  C_6
REMARK    5  A    between atoms: C_6  and  C_7
REMARK                            x       y       z     vdW  Elec       q    Type
REMARK                         _______ _______ _______ _____ _____    ______ ____
ROOT
ATOM      1  N   UNL     1       5.629   6.303  17.873  0.00  0.00    +0.000 N 
ATOM      2  C   UNL     1       4.343   6.684  17.617  0.00  0.00    +0.000 C 
ATOM      3  O   UNL     1       3.919   7.204  16.598  0.00  0.00    +0.000 OA
ATOM      4  C   UNL     1       3.510   6.369  18.822  0.00  0.00    +0.000 C 
ATOM      5  C   UNL     1       2.289   5.494  18.519  0.00  0.00    +0.000 C 
ATOM      6  C   UNL     1       2.961   4.119  18.313  0.00  0.00    +0.000 C 
ATOM      7  C   UNL     1       3.594   4.113  19.708  0.00  0.00    +0.000 C 
ATOM      8  C   UNL     1       2.331   4.262  20.595  0.00  0.00    +0.000 C 
ATOM      9 BR   UNL     1       1.380   2.542  20.741  0.00  0.00    +0.000 Br
ATOM     10  C   UNL     1       1.460   5.250  19.804  0.00  0.00    +0.000 C 
ATOM     11 BR   UNL     1       1.127   6.857  20.862  0.00  0.00    +0.000 Br
ATOM     12  C   UNL     1       4.384   5.455  19.688  0.00  0.00    +0.000 C 
ATOM     13  C   UNL     1       5.715   5.456  18.951  0.00  0.00    +0.000 C 
ATOM     14  O   UNL     1       6.674   4.800  19.298  0.00  0.00    +0.000 OA
ENDROOT
BRANCH   1  16
ATOM     15  C   UNL     1       7.859   7.340  17.442  0.00  0.00    +0.000 C 
ATOM     16  C   UNL     1       6.679   6.556  16.884  0.00  0.00    +0.000 C 
BRANCH  16  17
ATOM     17  C   UNL     1       7.089   5.243  16.200  0.00  0.00    +0.000 C 
ATOM     18  O   UNL     1       7.942   4.482  16.670  0.00  0.00    +0.000 OA
ATOM     19  N   UNL     1       6.403   4.946  15.041  0.00  0.00    +0.000 N 
ATOM     20  H   UNL     1       5.695   5.574  14.675  0.00  0.00    +0.000 HD
BRANCH  19  21
ATOM     21  C   UNL     1       6.596   3.701  14.312  0.00  0.00    +0.000 C 
BRANCH  21  22
ATOM     22  C   UNL     1       6.070   3.772  12.878  0.00  0.00    +0.000 C 
ATOM     23  C   UNL     1       4.556   3.721  12.754  0.00  0.00    +0.000 C 
ATOM     24  C   UNL     1       4.377   3.155  11.368  0.00  0.00    +0.000 C 
ATOM     25  C   UNL     1       5.527   2.176  11.266  0.00  0.00    +0.000 C 
ATOM     26  O   UNL     1       6.580   2.663  12.107  0.00  0.00    +0.000 OA
ENDBRANCH  21  22
ENDBRANCH  19  21
ENDBRANCH  16  17
ENDBRANCH   1  16
TORSDOF 4
ENDMDL
MODEL 2
REMARK VINA RESULT:      -7.1      3.903      6.877
REMARK  Name = 
REMARK  5 active torsions:
REMARK  status: ('A' for Active; 'I' for Inactive)
REMARK    1  A    between atoms: C_1  and  C_2
REMARK    2  A    between atoms: C_2  and  C_3
REMARK    3  A    between atoms: C_2  and  N_12
REMARK    4  A    between atoms: N_5  and  C_6
REMARK    5  A    between atoms: C_6  and  C_7
REMARK                            x       y       z     vdW  Elec       q    Type
REMARK                         _______ _______ _______ _____ _____    ______ ____
ROOT
ATOM      1  N   UNL     1       3.263   3.294  18.592  0.00  0.00    +0.000 N 
ATOM      2  C   UNL     1       3.107   3.922  17.390  0.00  0.00    +0.000 C 
ATOM      3  O   UNL     1       2.056   4.182  16.827  0.00  0.00    +0.000 OA
ATOM      4  C   UNL     1       4.465   4.241  16.846  0.00  0.00    +0.000 C 
ATOM      5  C   UNL     1       4.662   5.722  16.502  0.00  0.00    +0.000 C 
ATOM      6  C   UNL     1       4.808   6.332  17.913  0.00  0.00    +0.000 C 
ATOM      7  C   UNL     1       6.009   5.451  18.272  0.00  0.00    +0.000 C 
ATOM      8  C   UNL     1       6.990   5.827  17.132  0.00  0.00    +0.000 C 
ATOM      9 BR   UNL     1       7.836   7.571  17.493  0.00  0.00    +0.000 Br
ATOM     10  C   UNL     1       6.072   5.961  15.908  0.00  0.00    +0.000 C 
ATOM     11 BR   UNL     1       6.591   4.679  14.528  0.00  0.00    +0.000 Br
ATOM     12  C   UNL     1       5.430   4.029  18.019  0.00  0.00    +0.000 C 
ATOM     13  C   UNL     1       4.529   3.453  19.101  0.00  0.00    +0.000 C 
ATOM     14  O   UNL     1       4.911   3.188  20.221  0.00  0.00    +0.000 OA
ENDROOT
BRANCH   1  16
ATOM     15  C   UNL     1       2.238   1.372  19.814  0.00  0.00    +0.000 C 
ATOM     16  C   UNL     1       2.091   2.806  19.323  0.00  0.00    +0.000 C 
BRANCH  16  17
ATOM     17  C   UNL     1       1.711   3.795  20.435  0.00  0.00    +0.000 C 
ATOM     18  O   UNL     1       1.510   3.444  21.602  0.00  0.00    +0.000 OA
ATOM     19  N   UNL     1       1.654   5.118  20.049  0.00  0.00    +0.000 N 
ATOM     20  H   UNL     1       1.835   5.392  19.088  0.00  0.00    +0.000 HD
BRANCH  19  21
ATOM     21  C   UNL     1       1.400   6.200  20.989  0.00  0.00    +0.000 C 
BRANCH  21  22
ATOM     22  C   UNL     1       1.856   7.559  20.458  0.00  0.00    +0.000 C 
ATOM     23  C   UNL     1       0.861   8.689  20.667  0.00  0.00    +0.000 C 
ATOM     24  C   UNL     1       1.223   9.632  19.548  0.00  0.00    +0.000 C 
ATOM     25  C   UNL     1       1.596   8.683  18.430  0.00  0.00    +0.000 C 
ATOM     26  O   UNL     1       2.093   7.483  19.036  0.00  0.00    +0.000 OA
ENDBRANCH  21  22
ENDBRANCH  19  21
ENDBRANCH  16  17
ENDBRANCH   1  16
TORSDOF 4
ENDMDL
MODEL 3
REMARK VINA RESULT:      -6.8      1.008      1.159
REMARK  Name = 
REMARK  5 active torsions:
REMARK  status: ('A' for Active; 'I' for Inactive)
REMARK    1  A    between atoms: C_1  and  C_2
REMARK    2  A    between atoms: C_2  and  C_3
REMARK    3  A    between atoms: C_2  and  N_12
REMARK    4  A    between atoms: N_5  and  C_6
REMARK    5  A    between atoms: C_6  and  C_7
REMARK                            x       y       z     vdW  Elec       q    Type
REMARK                         _______ _______ _______ _____ _____    ______ ____
ROOT
ATOM      1  N   UNL     1       5.738   6.046  17.739  0.00  0.00    +0.000 N 
ATOM      2  C   UNL     1       4.457   6.484  17.566  0.00  0.00    +0.000 C 
ATOM      3  O   UNL     1       4.058   7.280  16.732  0.00  0.00    +0.000 OA
ATOM      4  C   UNL     1       3.591   5.829  18.598  0.00  0.00    +0.000 C 
ATOM      5  C   UNL     1       2.389   5.080  18.013  0.00  0.00    +0.000 C 
ATOM      6  C   UNL     1       3.080   3.827  17.433  0.00  0.00    +0.000 C 
ATOM      7  C   UNL     1       3.671   3.412  18.784  0.00  0.00    +0.000 C 
ATOM      8  C   UNL     1       2.381   3.293  19.635  0.00  0.00    +0.000 C 
ATOM      9 BR   UNL     1       1.443   1.605  19.239  0.00  0.00    +0.000 Br
ATOM     10  C   UNL     1       1.524   4.468  19.142  0.00  0.00    +0.000 C 
ATOM     11 BR   UNL     1       1.144   5.693  20.615  0.00  0.00    +0.000 Br
ATOM     12  C   UNL     1       4.448   4.700  19.184  0.00  0.00    +0.000 C 
ATOM     13  C   UNL     1       5.801   4.920  18.522  0.00  0.00    +0.000 C 
ATOM     14  O   UNL     1       6.756   4.192  18.692  0.00  0.00    +0.000 OA
ENDROOT
BRANCH   1  16
ATOM     15  C   UNL     1       7.895   7.305  17.694  0.00  0.00    +0.000 C 
ATOM     16  C   UNL     1       6.815   6.579  16.902  0.00  0.00    +0.000 C 
BRANCH  16  17
ATOM     17  C   UNL     1       7.368   5.477  15.986  0.00  0.00    +0.000 C 
ATOM     18  O   UNL     1       7.961   4.483  16.419  0.00  0.00    +0.000 OA
ATOM     19  N   UNL     1       7.118   5.650  14.641  0.00  0.00    +0.000 N 
ATOM     20  H   UNL     1       6.618   6.466  14.302  0.00  0.00    +0.000 HD
BRANCH  19  21
ATOM     21  C   UNL     1       7.488   4.662  13.640  0.00  0.00    +0.000 C 
BRANCH  21  22
ATOM     22  C   UNL     1       6.359   3.674  13.344  0.00  0.00    +0.000 C 
ATOM     23  C   UNL     1       6.595   2.782  12.135  0.00  0.00    +0.000 C 
ATOM     24  C   UNL     1       5.186   2.453  11.713  0.00  0.00    +0.000 C 
ATOM     25  C   UNL     1       4.448   3.742  12.008  0.00  0.00    +0.000 C 
ATOM     26  O   UNL     1       5.129   4.386  13.092  0.00  0.00    +0.000 OA
ENDBRANCH  21  22
ENDBRANCH  19  21
ENDBRANCH  16  17
ENDBRANCH   1  16
TORSDOF 4
ENDMDL
MODEL 4
REMARK VINA RESULT:      -6.5      1.523      2.028
REMARK  Name = 
REMARK  5 active torsions:
REMARK  status: ('A' for Active; 'I' for Inactive)
REMARK    1  A    between atoms: C_1  and  C_2
REMARK    2  A    between atoms: C_2  and  C_3
REMARK    3  A    between atoms: C_2  and  N_12
REMARK    4  A    between atoms: N_5  and  C_6
REMARK    5  A    between atoms: C_6  and  C_7
REMARK                            x       y       z     vdW  Elec       q    Type
REMARK                         _______ _______ _______ _____ _____    ______ ____
ROOT
ATOM      1  N   UNL     1       5.284   5.586  17.938  0.00  0.00    +0.000 N 
ATOM      2  C   UNL     1       4.264   6.042  18.722  0.00  0.00    +0.000 C 
ATOM      3  O   UNL     1       3.910   7.200  18.868  0.00  0.00    +0.000 OA
ATOM      4  C   UNL     1       3.636   4.868  19.408  0.00  0.00    +0.000 C 
ATOM      5  C   UNL     1       2.124   4.755  19.182  0.00  0.00    +0.000 C 
ATOM      6  C   UNL     1       2.085   4.245  17.726  0.00  0.00    +0.000 C 
ATOM      7  C   UNL     1       2.918   2.999  18.040  0.00  0.00    +0.000 C 
ATOM      8  C   UNL     1       2.047   2.343  19.142  0.00  0.00    +0.000 C 
ATOM      9 BR   UNL     1       0.500   1.418  18.343  0.00  0.00    +0.000 Br
ATOM     10  C   UNL     1       1.545   3.545  19.956  0.00  0.00    +0.000 C 
ATOM     11 BR   UNL     1       2.153   3.410  21.807  0.00  0.00    +0.000 Br
ATOM     12  C   UNL     1       4.186   3.635  18.681  0.00  0.00    +0.000 C 
ATOM     13  C   UNL     1       5.212   4.230  17.728  0.00  0.00    +0.000 C 
ATOM     14  O   UNL     1       5.845   3.573  16.929  0.00  0.00    +0.000 OA
ENDROOT
BRANCH   1  16
ATOM     15  C   UNL     1       7.555   6.598  17.705  0.00  0.00    +0.000 C 
ATOM     16  C   UNL     1       6.121   6.533  17.198  0.00  0.00    +0.000 C 
BRANCH  16  17
ATOM     17  C   UNL     1       6.019   6.262  15.689  0.00  0.00    +0.000 C 
ATOM     18  O   UNL     1       5.151   6.775  14.975  0.00  0.00    +0.000 OA
ATOM     19  N   UNL     1       6.996   5.435  15.174  0.00  0.00    +0.000 N 
ATOM     20  H   UNL     1       7.710   5.032  15.772  0.00  0.00    +0.000 HD
BRANCH  19  21
ATOM     21  C   UNL     1       7.108   5.144  13.753  0.00  0.00    +0.000 C 
BRANCH  21  22
ATOM     22  C   UNL     1       6.425   3.832  13.366  0.00  0.00    +0.000 C 
ATOM     23  C   UNL     1       6.980   3.171  12.115  0.00  0.00    +0.000 C 
ATOM     24  C   UNL     1       5.794   2.376  11.632  0.00  0.00    +0.000 C 
ATOM     25  C   UNL     1       4.631   3.281  11.980  0.00  0.00    +0.000 C 
ATOM     26  O   UNL     1       5.020   4.058  13.119  0.00  0.00    +0.000 OA
ENDBRANCH  21  22
ENDBRANCH  19  21
ENDBRANCH  16  17
ENDBRANCH   1  16
TORSDOF 4
ENDMDL
MODEL 5
REMARK VINA RESULT:      -6.4      3.737      5.267
REMARK  Name = 
REMARK  5 active torsions:
REMARK  status: ('A' for Active; 'I' for Inactive)
REMARK    1  A    between atoms: C_1  and  C_2
REMARK    2  A    between atoms: C_2  and  C_3
REMARK    3  A    between atoms: C_2  and  N_12
REMARK    4  A    between atoms: N_5  and  C_6
REMARK    5  A    between atoms: C_6  and  C_7
REMARK                            x       y       z     vdW  Elec       q    Type
REMARK                         _______ _______ _______ _____ _____    ______ ____
ROOT
ATOM      1  N   UNL     1       2.174   7.480  19.328  0.00  0.00    +0.000 N 
ATOM      2  C   UNL     1       2.226   8.394  18.314  0.00  0.00    +0.000 C 
ATOM      3  O   UNL     1       2.490   8.178  17.143  0.00  0.00    +0.000 OA
ATOM      4  C   UNL     1       1.914   9.744  18.881  0.00  0.00    +0.000 C 
ATOM      5  C   UNL     1       0.760  10.461  18.172  0.00  0.00    +0.000 C 
ATOM      6  C   UNL     1      -0.451   9.674  18.718  0.00  0.00    +0.000 C 
ATOM      7  C   UNL     1      -0.120   9.993  20.179  0.00  0.00    +0.000 C 
ATOM      8  C   UNL     1      -0.123  11.543  20.141  0.00  0.00    +0.000 C 
ATOM      9 BR   UNL     1      -1.970  12.232  20.144  0.00  0.00    +0.000 Br
ATOM     10  C   UNL     1       0.528  11.863  18.787  0.00  0.00    +0.000 C 
ATOM     11 BR   UNL     1       2.159  12.905  19.050  0.00  0.00    +0.000 Br
ATOM     12  C   UNL     1       1.344   9.473  20.278  0.00  0.00    +0.000 C 
ATOM     13  C   UNL     1       1.529   7.971  20.437  0.00  0.00    +0.000 C 
ATOM     14  O   UNL     1       1.154   7.347  21.407  0.00  0.00    +0.000 OA
ENDROOT
BRANCH   1  16
ATOM     15  C   UNL     1       1.633   5.438  17.995  0.00  0.00    +0.000 C 
ATOM     16  C   UNL     1       2.505   6.077  19.068  0.00  0.00    +0.000 C 
BRANCH  16  17
ATOM     17  C   UNL     1       4.010   5.930  18.798  0.00  0.00    +0.000 C 
ATOM     18  O   UNL     1       4.824   5.649  19.685  0.00  0.00    +0.000 OA
ATOM     19  N   UNL     1       4.388   6.089  17.481  0.00  0.00    +0.000 N 
ATOM     20  H   UNL     1       3.705   6.306  16.763  0.00  0.00    +0.000 HD
BRANCH  19  21
ATOM     21  C   UNL     1       5.758   5.894  17.030  0.00  0.00    +0.000 C 
BRANCH  21  22
ATOM     22  C   UNL     1       5.846   5.599  15.532  0.00  0.00    +0.000 C 
ATOM     23  C   UNL     1       5.375   4.211  15.129  0.00  0.00    +0.000 C 
ATOM     24  C   UNL     1       6.152   3.977  13.858  0.00  0.00    +0.000 C 
ATOM     25  C   UNL     1       7.474   4.652  14.156  0.00  0.00    +0.000 C 
ATOM     26  O   UNL     1       7.214   5.712  15.084  0.00  0.00    +0.000 OA
ENDBRANCH  21  22
ENDBRANCH  19  21
ENDBRANCH  16  17
ENDBRANCH   1  16
TORSDOF 4
ENDMDL
MODEL 6
REMARK VINA RESULT:      -6.1      4.725      7.057
REMARK  Name = 
REMARK  5 active torsions:
REMARK  status: ('A' for Active; 'I' for Inactive)
REMARK    1  A    between atoms: C_1  and  C_2
REMARK    2  A    between atoms: C_2  and  C_3
REMARK    3  A    between atoms: C_2  and  N_12
REMARK    4  A    between atoms: N_5  and  C_6
REMARK    5  A    between atoms: C_6  and  C_7
REMARK                            x       y       z     vdW  Elec       q    Type
REMARK                         _______ _______ _______ _____ _____    ______ ____
ROOT
ATOM      1  N   UNL     1       1.305   8.683  19.540  0.00  0.00    +0.000 N 
ATOM      2  C   UNL     1       0.479   9.189  20.503  0.00  0.00    +0.000 C 
ATOM      3  O   UNL     1       0.375   8.807  21.657  0.00  0.00    +0.000 OA
ATOM      4  C   UNL     1      -0.312  10.311  19.903  0.00  0.00    +0.000 C 
ATOM      5  C   UNL     1      -0.196  11.630  20.673  0.00  0.00    +0.000 C 
ATOM      6  C   UNL     1       1.223  12.081  20.268  0.00  0.00    +0.000 C 
ATOM      7  C   UNL     1       0.898  12.081  18.771  0.00  0.00    +0.000 C 
ATOM      8  C   UNL     1      -0.296  13.070  18.738  0.00  0.00    +0.000 C 
ATOM      9 BR   UNL     1       0.343  14.931  18.858  0.00  0.00    +0.000 Br
ATOM     10  C   UNL     1      -1.074  12.725  20.016  0.00  0.00    +0.000 C 
ATOM     11 BR   UNL     1      -2.884  12.142  19.571  0.00  0.00    +0.000 Br
ATOM     12  C   UNL     1       0.381  10.626  18.573  0.00  0.00    +0.000 C 
ATOM     13  C   UNL     1       1.433   9.532  18.468  0.00  0.00    +0.000 C 
ATOM     14  O   UNL     1       2.236   9.458  17.562  0.00  0.00    +0.000 OA
ENDROOT
BRANCH   1  16
ATOM     15  C   UNL     1       1.508   6.532  20.793  0.00  0.00    +0.000 C 
ATOM     16  C   UNL     1       2.152   7.526  19.835  0.00  0.00    +0.000 C 
BRANCH  16  17
ATOM     17  C   UNL     1       2.642   6.882  18.528  0.00  0.00    +0.000 C 
ATOM     18  O   UNL     1       1.935   6.132  17.847  0.00  0.00    +0.000 OA
ATOM     19  N   UNL     1       3.917   7.238  18.140  0.00  0.00    +0.000 N 
ATOM     20  H   UNL     1       4.479   7.868  18.704  0.00  0.00    +0.000 HD
BRANCH  19  21
ATOM     21  C   UNL     1       4.507   6.798  16.886  0.00  0.00    +0.000 C 
BRANCH  21  22
ATOM     22  C   UNL     1       5.961   6.353  17.044  0.00  0.00    +0.000 C 
ATOM     23  C   UNL     1       6.269   5.642  18.352  0.00  0.00    +0.000 C 
ATOM     24  C   UNL     1       7.740   5.925  18.520  0.00  0.00    +0.000 C 
ATOM     25  C   UNL     1       7.866   7.330  17.971  0.00  0.00    +0.000 C 
ATOM     26  O   UNL     1       6.839   7.498  16.986  0.00  0.00    +0.000 OA
ENDBRANCH  21  22
ENDBRANCH  19  21
ENDBRANCH  16  17
ENDBRANCH   1  16
TORSDOF 4
ENDMDL
MODEL 7
REMARK VINA RESULT:      -6.1      4.519      7.825
REMARK  Name = 
REMARK  5 active torsions:
REMARK  status: ('A' for Active; 'I' for Inactive)
REMARK    1  A    between atoms: C_1  and  C_2
REMARK    2  A    between atoms: C_2  and  C_3
REMARK    3  A    between atoms: C_2  and  N_12
REMARK    4  A    between atoms: N_5  and  C_6
REMARK    5  A    between atoms: C_6  and  C_7
REMARK                            x       y       z     vdW  Elec       q    Type
REMARK                         _______ _______ _______ _____ _____    ______ ____
ROOT
ATOM      1  N   UNL     1       2.869   6.492  19.225  0.00  0.00    +0.000 N 
ATOM      2  C   UNL     1       3.654   5.424  19.556  0.00  0.00    +0.000 C 
ATOM      3  O   UNL     1       3.373   4.514  20.318  0.00  0.00    +0.000 OA
ATOM      4  C   UNL     1       4.957   5.554  18.828  0.00  0.00    +0.000 C 
ATOM      5  C   UNL     1       5.319   4.327  17.984  0.00  0.00    +0.000 C 
ATOM      6  C   UNL     1       4.350   4.497  16.794  0.00  0.00    +0.000 C 
ATOM      7  C   UNL     1       4.894   5.881  16.427  0.00  0.00    +0.000 C 
ATOM      8  C   UNL     1       6.391   5.548  16.199  0.00  0.00    +0.000 C 
ATOM      9 BR   UNL     1       6.652   4.698  14.440  0.00  0.00    +0.000 Br
ATOM     10  C   UNL     1       6.695   4.522  17.300  0.00  0.00    +0.000 C 
ATOM     11 BR   UNL     1       8.093   5.195  18.486  0.00  0.00    +0.000 Br
ATOM     12  C   UNL     1       4.724   6.642  17.774  0.00  0.00    +0.000 C 
ATOM     13  C   UNL     1       3.326   7.145  18.106  0.00  0.00    +0.000 C 
ATOM     14  O   UNL     1       2.747   7.992  17.459  0.00  0.00    +0.000 OA
ENDROOT
BRANCH   1  16
ATOM     15  C   UNL     1       1.160   5.493  20.747  0.00  0.00    +0.000 C 
ATOM     16  C   UNL     1       1.554   6.657  19.847  0.00  0.00    +0.000 C 
BRANCH  16  17
ATOM     17  C   UNL     1       1.466   8.023  20.543  0.00  0.00    +0.000 C 
ATOM     18  O   UNL     1       1.810   8.199  21.717  0.00  0.00    +0.000 OA
ATOM     19  N   UNL     1       1.015   9.058  19.750  0.00  0.00    +0.000 N 
ATOM     20  H   UNL     1       0.749   8.900  18.784  0.00  0.00    +0.000 HD
BRANCH  19  21
ATOM     21  C   UNL     1       0.955  10.435  20.217  0.00  0.00    +0.000 C 
BRANCH  21  22
ATOM     22  C   UNL     1      -0.316  11.154  19.762  0.00  0.00    +0.000 C 
ATOM     23  C   UNL     1      -0.963  10.574  18.515  0.00  0.00    +0.000 C 
ATOM     24  C   UNL     1      -1.693  11.770  17.959  0.00  0.00    +0.000 C 
ATOM     25  C   UNL     1      -0.749  12.908  18.286  0.00  0.00    +0.000 C 
ATOM     26  O   UNL     1      -0.023  12.536  19.464  0.00  0.00    +0.000 OA
ENDBRANCH  21  22
ENDBRANCH  19  21
ENDBRANCH  16  17
ENDBRANCH   1  16
TORSDOF 4
ENDMDL
MODEL 8
REMARK VINA RESULT:      -6.1      7.079      9.592
REMARK  Name = 
REMARK  5 active torsions:
REMARK  status: ('A' for Active; 'I' for Inactive)
REMARK    1  A    between atoms: C_1  and  C_2
REMARK    2  A    between atoms: C_2  and  C_3
REMARK    3  A    between atoms: C_2  and  N_12
REMARK    4  A    between atoms: N_5  and  C_6
REMARK    5  A    between atoms: C_6  and  C_7
REMARK                            x       y       z     vdW  Elec       q    Type
REMARK                         _______ _______ _______ _____ _____    ______ ____
ROOT
ATOM      1  N   UNL     1       0.410  12.391  19.135  0.00  0.00    +0.000 N 
ATOM      2  C   UNL     1       0.121  13.646  19.589  0.00  0.00    +0.000 C 
ATOM      3  O   UNL     1      -0.741  13.956  20.395  0.00  0.00    +0.000 OA
ATOM      4  C   UNL     1       1.042  14.615  18.914  0.00  0.00    +0.000 C 
ATOM      5  C   UNL     1       1.837  15.494  19.887  0.00  0.00    +0.000 C 
ATOM      6  C   UNL     1       2.878  14.481  20.410  0.00  0.00    +0.000 C 
ATOM      7  C   UNL     1       3.426  14.178  19.011  0.00  0.00    +0.000 C 
ATOM      8  C   UNL     1       3.849  15.599  18.557  0.00  0.00    +0.000 C 
ATOM      9 BR   UNL     1       5.558  16.113  19.393  0.00  0.00    +0.000 Br
ATOM     10  C   UNL     1       2.731  16.494  19.113  0.00  0.00    +0.000 C 
ATOM     11 BR   UNL     1       1.822  17.424  17.657  0.00  0.00    +0.000 Br
ATOM     12  C   UNL     1       2.129  13.751  18.263  0.00  0.00    +0.000 C 
ATOM     13  C   UNL     1       1.631  12.335  18.508  0.00  0.00    +0.000 C 
ATOM     14  O   UNL     1       2.245  11.342  18.180  0.00  0.00    +0.000 OA
ENDROOT
BRANCH   1  16
ATOM     15  C   UNL     1      -1.015  10.463  18.438  0.00  0.00    +0.000 C 
ATOM     16  C   UNL     1      -0.387  11.247  19.583  0.00  0.00    +0.000 C 
BRANCH  16  17
ATOM     17  C   UNL     1       0.433  10.373  20.543  0.00  0.00    +0.000 C 
ATOM     18  O   UNL     1       0.752  10.745  21.677  0.00  0.00    +0.000 OA
ATOM     19  N   UNL     1       0.753   9.119  20.067  0.00  0.00    +0.000 N 
ATOM     20  H   UNL     1       0.472   8.824  19.137  0.00  0.00    +0.000 HD
BRANCH  19  21
ATOM     21  C   UNL     1       1.446   8.126  20.874  0.00  0.00    +0.000 C 
BRANCH  21  22
ATOM     22  C   UNL     1       2.383   7.246  20.046  0.00  0.00    +0.000 C 
ATOM     23  C   UNL     1       2.362   7.525  18.552  0.00  0.00    +0.000 C 
ATOM     24  C   UNL     1       2.788   6.195  17.983  0.00  0.00    +0.000 C 
ATOM     25  C   UNL     1       2.137   5.211  18.931  0.00  0.00    +0.000 C 
ATOM     26  O   UNL     1       2.027   5.856  20.207  0.00  0.00    +0.000 OA
ENDBRANCH  21  22
ENDBRANCH  19  21
ENDBRANCH  16  17
ENDBRANCH   1  16
TORSDOF 4
ENDMDL
MODEL 9
REMARK VINA RESULT:      -6.0      3.660      7.162
REMARK  Name = 
REMARK  5 active torsions:
REMARK  status: ('A' for Active; 'I' for Inactive)
REMARK    1  A    between atoms: C_1  and  C_2
REMARK    2  A    between atoms: C_2  and  C_3
REMARK    3  A    between atoms: C_2  and  N_12
REMARK    4  A    between atoms: N_5  and  C_6
REMARK    5  A    between atoms: C_6  and  C_7
REMARK                            x       y       z     vdW  Elec       q    Type
REMARK                         _______ _______ _______ _____ _____    ______ ____
ROOT
ATOM      1  N   UNL     1       3.478   4.073  18.787  0.00  0.00    +0.000 N 
ATOM      2  C   UNL     1       4.810   4.239  19.041  0.00  0.00    +0.000 C 
ATOM      3  O   UNL     1       5.444   3.772  19.973  0.00  0.00    +0.000 OA
ATOM      4  C   UNL     1       5.386   5.119  17.975  0.00  0.00    +0.000 C 
ATOM      5  C   UNL     1       6.588   4.505  17.249  0.00  0.00    +0.000 C 
ATOM      6  C   UNL     1       5.885   3.459  16.356  0.00  0.00    +0.000 C 
ATOM      7  C   UNL     1       5.007   4.504  15.660  0.00  0.00    +0.000 C 
ATOM      8  C   UNL     1       6.092   5.450  15.083  0.00  0.00    +0.000 C 
ATOM      9 BR   UNL     1       6.896   4.672  13.460  0.00  0.00    +0.000 Br
ATOM     10  C   UNL     1       7.151   5.491  16.195  0.00  0.00    +0.000 C 
ATOM     11 BR   UNL     1       7.378   7.318  16.846  0.00  0.00    +0.000 Br
ATOM     12  C   UNL     1       4.315   5.180  16.880  0.00  0.00    +0.000 C 
ATOM     13  C   UNL     1       3.145   4.435  17.505  0.00  0.00    +0.000 C 
ATOM     14  O   UNL     1       2.101   4.221  16.926  0.00  0.00    +0.000 OA
ENDROOT
BRANCH   1  16
ATOM     15  C   UNL     1       3.340   2.071  20.273  0.00  0.00    +0.000 C 
ATOM     16  C   UNL     1       2.644   3.305  19.714  0.00  0.00    +0.000 C 
BRANCH  16  17
ATOM     17  C   UNL     1       2.074   4.228  20.802  0.00  0.00    +0.000 C 
ATOM     18  O   UNL     1       1.984   3.889  21.987  0.00  0.00    +0.000 OA
ATOM     19  N   UNL     1       1.709   5.487  20.372  0.00  0.00    +0.000 N 
ATOM     20  H   UNL     1       1.802   5.754  19.397  0.00  0.00    +0.000 HD
BRANCH  19  21
ATOM     21  C   UNL     1       1.236   6.520  21.280  0.00  0.00    +0.000 C 
BRANCH  21  22
ATOM     22  C   UNL     1       1.608   7.928  20.814  0.00  0.00    +0.000 C 
ATOM     23  C   UNL     1       0.482   8.944  20.902  0.00  0.00    +0.000 C 
ATOM     24  C   UNL     1       0.876   9.938  19.839  0.00  0.00    +0.000 C 
ATOM     25  C   UNL     1       1.481   9.050  18.772  0.00  0.00    +0.000 C 
ATOM     26  O   UNL     1       2.024   7.899  19.432  0.00  0.00    +0.000 OA
ENDBRANCH  21  22
ENDBRANCH  19  21
ENDBRANCH  16  17
ENDBRANCH   1  16
TORSDOF 4
ENDMDL
