MODEL 1
REMARK VINA RESULT:      -7.9      0.000      0.000
REMARK  Name = 
REMARK  7 active torsions:
REMARK  status: ('A' for Active; 'I' for Inactive)
REMARK    1  A    between atoms: C_1  and  O_2
REMARK    2  A    between atoms: O_2  and  C_3
REMARK    3  A    between atoms: C_8  and  N_9
REMARK    4  A    between atoms: C_13  and  C_15
REMARK    5  A    between atoms: C_18  and  C_19
REMARK    6  A    between atoms: C_19  and  S_20
REMARK    7  A    between atoms: S_20  and  C_21
REMARK                            x       y       z     vdW  Elec       q    Type
REMARK                         _______ _______ _______ _____ _____    ______ ____
ROOT
ATOM      1  N   UNL     1      -3.450  11.870  18.956  0.00  0.00    +0.000 N 
ATOM      2  C   UNL     1      -2.593  12.812  19.705  0.00  0.00    +0.000 C 
ATOM      3  C   UNL     1      -1.683  12.045  20.683  0.00  0.00    +0.000 C 
ATOM      4  N   UNL     1      -0.956  10.950  20.022  0.00  0.00    +0.000 N 
ATOM      5  C   UNL     1       0.305  10.625  20.518  0.00  0.00    +0.000 C 
ATOM      6  O   UNL     1       0.796  11.176  21.508  0.00  0.00    +0.000 OA
ATOM      7  C   UNL     1      -1.837  10.046  19.243  0.00  0.00    +0.000 C 
ATOM      8  C   UNL     1      -2.704  10.827  18.240  0.00  0.00    +0.000 C 
ENDROOT
BRANCH   1  14
ATOM      9  C   UNL     1      -5.763  12.184  19.799  0.00  0.00    +0.000 A 
ATOM     10  C   UNL     1      -7.109  12.452  19.510  0.00  0.00    +0.000 A 
ATOM     11  C   UNL     1      -7.539  12.658  18.204  0.00  0.00    +0.000 A 
ATOM     12  C   UNL     1      -6.627  12.572  17.167  0.00  0.00    +0.000 A 
ATOM     13  C   UNL     1      -5.288  12.284  17.440  0.00  0.00    +0.000 A 
ATOM     14  C   UNL     1      -4.804  12.088  18.752  0.00  0.00    +0.000 A 
BRANCH   9  16
ATOM     15  C   UNL     1      -5.804  12.976  22.048  0.00  0.00    +0.000 C 
ATOM     16  O   UNL     1      -5.323  12.030  21.098  0.00  0.00    +0.000 OA
ENDBRANCH   9  16
ENDBRANCH   1  14
BRANCH   5  17
ATOM     17  C   UNL     1       1.128   9.616  19.808  0.00  0.00    +0.000 A 
ATOM     18  C   UNL     1       1.470   8.408  20.422  0.00  0.00    +0.000 A 
ATOM     19  C   UNL     1       2.278   7.487  19.762  0.00  0.00    +0.000 A 
ATOM     20  C   UNL     1       2.632   7.673  18.420  0.00  0.00    +0.000 A 
ATOM     21  C   UNL     1       2.256   8.871  17.791  0.00  0.00    +0.000 A 
ATOM     22  C   UNL     1       1.514   9.839  18.486  0.00  0.00    +0.000 A 
BRANCH  20  23
ATOM     23  C   UNL     1       3.413   6.612  17.666  0.00  0.00    +0.000 C 
BRANCH  23  24
ATOM     24  S   UNL     1       4.207   5.390  18.794  0.00  0.00    +0.000 S 
BRANCH  24  25
ATOM     25  C   UNL     1       2.863   4.317  19.249  0.00  0.00    +0.000 A 
ATOM     26  C   UNL     1       2.076   3.782  18.220  0.00  0.00    +0.000 A 
ATOM     27  C   UNL     1       1.021   2.915  18.510  0.00  0.00    +0.000 A 
ATOM     28  C   UNL     1       0.752   2.569  19.833  0.00  0.00    +0.000 A 
ATOM     29  C   UNL     1       1.550   3.073  20.857  0.00  0.00    +0.000 A 
ATOM     30  C   UNL     1       2.604   3.941  20.565  0.00  0.00    +0.000 A 
ENDBRANCH  24  25
ENDBRANCH  23  24
ENDBRANCH  20  23
ENDBRANCH   5  17
TORSDOF 6
ENDMDL
MODEL 2
REMARK VINA RESULT:      -7.6      0.918      1.410
REMARK  Name = 
REMARK  7 active torsions:
REMARK  status: ('A' for Active; 'I' for Inactive)
REMARK    1  A    between atoms: C_1  and  O_2
REMARK    2  A    between atoms: O_2  and  C_3
REMARK    3  A    between atoms: C_8  and  N_9
REMARK    4  A    between atoms: C_13  and  C_15
REMARK    5  A    between atoms: C_18  and  C_19
REMARK    6  A    between atoms: C_19  and  S_20
REMARK    7  A    between atoms: S_20  and  C_21
REMARK                            x       y       z     vdW  Elec       q    Type
REMARK                         _______ _______ _______ _____ _____    ______ ____
ROOT
ATOM      1  N   UNL     1      -2.873  11.603  18.784  0.00  0.00    +0.000 N 
ATOM      2  C   UNL     1      -1.935  12.467  19.531  0.00  0.00    +0.000 C 
ATOM      3  C   UNL     1      -1.107  11.626  20.521  0.00  0.00    +0.000 C 
ATOM      4  N   UNL     1      -0.482  10.462  19.873  0.00  0.00    +0.000 N 
ATOM      5  C   UNL     1       0.741  10.025  20.380  0.00  0.00    +0.000 C 
ATOM      6  O   UNL     1       1.275  10.536  21.369  0.00  0.00    +0.000 OA
ATOM      7  C   UNL     1      -1.439   9.639  19.096  0.00  0.00    +0.000 C 
ATOM      8  C   UNL     1      -2.223  10.488  18.081  0.00  0.00    +0.000 C 
ENDROOT
BRANCH   1  14
ATOM      9  C   UNL     1      -5.090  12.366  19.596  0.00  0.00    +0.000 A 
ATOM     10  C   UNL     1      -6.406  12.739  19.288  0.00  0.00    +0.000 A 
ATOM     11  C   UNL     1      -6.869  12.736  17.976  0.00  0.00    +0.000 A 
ATOM     12  C   UNL     1      -6.023  12.333  16.958  0.00  0.00    +0.000 A 
ATOM     13  C   UNL     1      -4.716  11.938  17.255  0.00  0.00    +0.000 A 
ATOM     14  C   UNL     1      -4.199  11.945  18.569  0.00  0.00    +0.000 A 
BRANCH   9  16
ATOM     15  C   UNL     1      -5.569  12.684  21.909  0.00  0.00    +0.000 C 
ATOM     16  O   UNL     1      -4.612  12.416  20.890  0.00  0.00    +0.000 OA
ENDBRANCH   9  16
ENDBRANCH   1  14
BRANCH   5  17
ATOM     17  C   UNL     1       1.469   8.938  19.683  0.00  0.00    +0.000 A 
ATOM     18  C   UNL     1       1.884   9.088  18.357  0.00  0.00    +0.000 A 
ATOM     19  C   UNL     1       2.530   8.045  17.699  0.00  0.00    +0.000 A 
ATOM     20  C   UNL     1       2.920   6.891  18.390  0.00  0.00    +0.000 A 
ATOM     21  C   UNL     1       2.536   6.757  19.734  0.00  0.00    +0.000 A 
ATOM     22  C   UNL     1       1.808   7.773  20.372  0.00  0.00    +0.000 A 
BRANCH  20  23
ATOM     23  C   UNL     1       3.728   5.806  17.701  0.00  0.00    +0.000 C 
BRANCH  23  24
ATOM     24  S   UNL     1       2.750   4.269  17.427  0.00  0.00    +0.000 S 
BRANCH  24  25
ATOM     25  C   UNL     1       2.506   3.638  19.072  0.00  0.00    +0.000 A 
ATOM     26  C   UNL     1       1.195   3.583  19.564  0.00  0.00    +0.000 A 
ATOM     27  C   UNL     1       0.934   3.076  20.838  0.00  0.00    +0.000 A 
ATOM     28  C   UNL     1       1.984   2.611  21.627  0.00  0.00    +0.000 A 
ATOM     29  C   UNL     1       3.286   2.634  21.132  0.00  0.00    +0.000 A 
ATOM     30  C   UNL     1       3.545   3.143  19.857  0.00  0.00    +0.000 A 
ENDBRANCH  24  25
ENDBRANCH  23  24
ENDBRANCH  20  23
ENDBRANCH   5  17
TORSDOF 6
ENDMDL
MODEL 3
REMARK VINA RESULT:      -7.5      1.853      3.104
REMARK  Name = 
REMARK  7 active torsions:
REMARK  status: ('A' for Active; 'I' for Inactive)
REMARK    1  A    between atoms: C_1  and  O_2
REMARK    2  A    between atoms: O_2  and  C_3
REMARK    3  A    between atoms: C_8  and  N_9
REMARK    4  A    between atoms: C_13  and  C_15
REMARK    5  A    between atoms: C_18  and  C_19
REMARK    6  A    between atoms: C_19  and  S_20
REMARK    7  A    between atoms: S_20  and  C_21
REMARK                            x       y       z     vdW  Elec       q    Type
REMARK                         _______ _______ _______ _____ _____    ______ ____
ROOT
ATOM      1  N   UNL     1      -2.967  11.612  18.718  0.00  0.00    +0.000 N 
ATOM      2  C   UNL     1      -1.904  12.578  19.062  0.00  0.00    +0.000 C 
ATOM      3  C   UNL     1      -1.008  12.011  20.180  0.00  0.00    +0.000 C 
ATOM      4  N   UNL     1      -0.525  10.656  19.870  0.00  0.00    +0.000 N 
ATOM      5  C   UNL     1       0.725  10.291  20.366  0.00  0.00    +0.000 C 
ATOM      6  O   UNL     1       1.399  11.031  21.089  0.00  0.00    +0.000 OA
ATOM      7  C   UNL     1      -1.609   9.721  19.486  0.00  0.00    +0.000 C 
ATOM      8  C   UNL     1      -2.465  10.285  18.338  0.00  0.00    +0.000 C 
ENDROOT
BRANCH   1  14
ATOM      9  C   UNL     1      -5.136  12.451  19.582  0.00  0.00    +0.000 A 
ATOM     10  C   UNL     1      -6.452  12.853  19.308  0.00  0.00    +0.000 A 
ATOM     11  C   UNL     1      -6.957  12.834  18.012  0.00  0.00    +0.000 A 
ATOM     12  C   UNL     1      -6.155  12.386  16.977  0.00  0.00    +0.000 A 
ATOM     13  C   UNL     1      -4.850  11.963  17.241  0.00  0.00    +0.000 A 
ATOM     14  C   UNL     1      -4.290  11.984  18.537  0.00  0.00    +0.000 A 
BRANCH   9  16
ATOM     15  C   UNL     1      -5.538  12.801  21.906  0.00  0.00    +0.000 C 
ATOM     16  O   UNL     1      -4.616  12.517  20.859  0.00  0.00    +0.000 OA
ENDBRANCH   9  16
ENDBRANCH   1  14
BRANCH   5  17
ATOM     17  C   UNL     1       1.309   8.985  19.975  0.00  0.00    +0.000 A 
ATOM     18  C   UNL     1       1.894   8.808  18.718  0.00  0.00    +0.000 A 
ATOM     19  C   UNL     1       2.400   7.567  18.346  0.00  0.00    +0.000 A 
ATOM     20  C   UNL     1       2.482   6.517  19.270  0.00  0.00    +0.000 A 
ATOM     21  C   UNL     1       1.928   6.708  20.546  0.00  0.00    +0.000 A 
ATOM     22  C   UNL     1       1.338   7.934  20.892  0.00  0.00    +0.000 A 
BRANCH  20  23
ATOM     23  C   UNL     1       3.143   5.202  18.899  0.00  0.00    +0.000 C 
BRANCH  23  24
ATOM     24  S   UNL     1       4.082   5.309  17.317  0.00  0.00    +0.000 S 
BRANCH  24  25
ATOM     25  C   UNL     1       5.688   5.877  17.830  0.00  0.00    +0.000 A 
ATOM     26  C   UNL     1       6.233   6.983  17.164  0.00  0.00    +0.000 A 
ATOM     27  C   UNL     1       7.479   7.493  17.535  0.00  0.00    +0.000 A 
ATOM     28  C   UNL     1       8.184   6.903  18.582  0.00  0.00    +0.000 A 
ATOM     29  C   UNL     1       7.634   5.823  19.267  0.00  0.00    +0.000 A 
ATOM     30  C   UNL     1       6.388   5.314  18.894  0.00  0.00    +0.000 A 
ENDBRANCH  24  25
ENDBRANCH  23  24
ENDBRANCH  20  23
ENDBRANCH   5  17
TORSDOF 6
ENDMDL
MODEL 4
REMARK VINA RESULT:      -7.5      2.023      2.785
REMARK  Name = 
REMARK  7 active torsions:
REMARK  status: ('A' for Active; 'I' for Inactive)
REMARK    1  A    between atoms: C_1  and  O_2
REMARK    2  A    between atoms: O_2  and  C_3
REMARK    3  A    between atoms: C_8  and  N_9
REMARK    4  A    between atoms: C_13  and  C_15
REMARK    5  A    between atoms: C_18  and  C_19
REMARK    6  A    between atoms: C_19  and  S_20
REMARK    7  A    between atoms: S_20  and  C_21
REMARK                            x       y       z     vdW  Elec       q    Type
REMARK                         _______ _______ _______ _____ _____    ______ ____
ROOT
ATOM      1  N   UNL     1      -2.954  11.402  18.120  0.00  0.00    +0.000 N 
ATOM      2  C   UNL     1      -1.897  12.232  17.506  0.00  0.00    +0.000 C 
ATOM      3  C   UNL     1      -0.612  12.172  18.353  0.00  0.00    +0.000 C 
ATOM      4  N   UNL     1      -0.208  10.790  18.652  0.00  0.00    +0.000 N 
ATOM      5  C   UNL     1       1.156  10.534  18.787  0.00  0.00    +0.000 C 
ATOM      6  O   UNL     1       2.012  11.422  18.722  0.00  0.00    +0.000 OA
ATOM      7  C   UNL     1      -1.301   9.969  19.226  0.00  0.00    +0.000 C 
ATOM      8  C   UNL     1      -2.560  10.004  18.343  0.00  0.00    +0.000 C 
ENDROOT
BRANCH   1  14
ATOM      9  C   UNL     1      -4.804  12.393  19.444  0.00  0.00    +0.000 A 
ATOM     10  C   UNL     1      -6.130  12.849  19.482  0.00  0.00    +0.000 A 
ATOM     11  C   UNL     1      -6.944  12.794  18.356  0.00  0.00    +0.000 A 
ATOM     12  C   UNL     1      -6.445  12.256  17.183  0.00  0.00    +0.000 A 
ATOM     13  C   UNL     1      -5.133  11.779  17.138  0.00  0.00    +0.000 A 
ATOM     14  C   UNL     1      -4.265  11.834  18.251  0.00  0.00    +0.000 A 
BRANCH   9  16
ATOM     15  C   UNL     1      -4.581  12.948  21.752  0.00  0.00    +0.000 C 
ATOM     16  O   UNL     1      -3.977  12.494  20.545  0.00  0.00    +0.000 OA
ENDBRANCH   9  16
ENDBRANCH   1  14
BRANCH   5  17
ATOM     17  C   UNL     1       1.620   9.137  18.962  0.00  0.00    +0.000 A 
ATOM     18  C   UNL     1       1.487   8.486  20.192  0.00  0.00    +0.000 A 
ATOM     19  C   UNL     1       1.964   7.189  20.357  0.00  0.00    +0.000 A 
ATOM     20  C   UNL     1       2.438   6.453  19.264  0.00  0.00    +0.000 A 
ATOM     21  C   UNL     1       2.536   7.095  18.019  0.00  0.00    +0.000 A 
ATOM     22  C   UNL     1       2.135   8.433  17.874  0.00  0.00    +0.000 A 
BRANCH  20  23
ATOM     23  C   UNL     1       2.847   4.999  19.421  0.00  0.00    +0.000 C 
BRANCH  23  24
ATOM     24  S   UNL     1       3.014   4.137  17.801  0.00  0.00    +0.000 S 
BRANCH  24  25
ATOM     25  C   UNL     1       4.745   4.303  17.424  0.00  0.00    +0.000 A 
ATOM     26  C   UNL     1       5.153   4.060  16.105  0.00  0.00    +0.000 A 
ATOM     27  C   UNL     1       6.493   4.195  15.739  0.00  0.00    +0.000 A 
ATOM     28  C   UNL     1       7.434   4.586  16.689  0.00  0.00    +0.000 A 
ATOM     29  C   UNL     1       7.030   4.859  17.994  0.00  0.00    +0.000 A 
ATOM     30  C   UNL     1       5.689   4.721  18.358  0.00  0.00    +0.000 A 
ENDBRANCH  24  25
ENDBRANCH  23  24
ENDBRANCH  20  23
ENDBRANCH   5  17
TORSDOF 6
ENDMDL
MODEL 5
REMARK VINA RESULT:      -7.4      1.838      3.043
REMARK  Name = 
REMARK  7 active torsions:
REMARK  status: ('A' for Active; 'I' for Inactive)
REMARK    1  A    between atoms: C_1  and  O_2
REMARK    2  A    between atoms: O_2  and  C_3
REMARK    3  A    between atoms: C_8  and  N_9
REMARK    4  A    between atoms: C_13  and  C_15
REMARK    5  A    between atoms: C_18  and  C_19
REMARK    6  A    between atoms: C_19  and  S_20
REMARK    7  A    between atoms: S_20  and  C_21
REMARK                            x       y       z     vdW  Elec       q    Type
REMARK                         _______ _______ _______ _____ _____    ______ ____
ROOT
ATOM      1  N   UNL     1      -2.935  11.626  18.779  0.00  0.00    +0.000 N 
ATOM      2  C   UNL     1      -1.885  12.552  19.252  0.00  0.00    +0.000 C 
ATOM      3  C   UNL     1      -0.996  11.859  20.302  0.00  0.00    +0.000 C 
ATOM      4  N   UNL     1      -0.497  10.557  19.835  0.00  0.00    +0.000 N 
ATOM      5  C   UNL     1       0.751  10.144  20.298  0.00  0.00    +0.000 C 
ATOM      6  O   UNL     1       1.410  10.795  21.113  0.00  0.00    +0.000 OA
ATOM      7  C   UNL     1      -1.568   9.666  19.326  0.00  0.00    +0.000 C 
ATOM      8  C   UNL     1      -2.416  10.359  18.246  0.00  0.00    +0.000 C 
ENDROOT
BRANCH   1  14
ATOM      9  C   UNL     1      -5.096  12.421  19.704  0.00  0.00    +0.000 A 
ATOM     10  C   UNL     1      -6.414  12.836  19.463  0.00  0.00    +0.000 A 
ATOM     11  C   UNL     1      -6.931  12.881  18.173  0.00  0.00    +0.000 A 
ATOM     12  C   UNL     1      -6.139  12.485  17.109  0.00  0.00    +0.000 A 
ATOM     13  C   UNL     1      -4.831  12.050  17.339  0.00  0.00    +0.000 A 
ATOM     14  C   UNL     1      -4.260  12.007  18.630  0.00  0.00    +0.000 A 
BRANCH   9  16
ATOM     15  C   UNL     1      -4.774  13.601  21.751  0.00  0.00    +0.000 C 
ATOM     16  O   UNL     1      -4.563  12.424  20.978  0.00  0.00    +0.000 OA
ENDBRANCH   9  16
ENDBRANCH   1  14
BRANCH   5  17
ATOM     17  C   UNL     1       1.352   8.900  19.758  0.00  0.00    +0.000 A 
ATOM     18  C   UNL     1       1.421   7.741  20.535  0.00  0.00    +0.000 A 
ATOM     19  C   UNL     1       2.025   6.591  20.033  0.00  0.00    +0.000 A 
ATOM     20  C   UNL     1       2.429   6.518  18.695  0.00  0.00    +0.000 A 
ATOM     21  C   UNL     1       2.324   7.672  17.902  0.00  0.00    +0.000 A 
ATOM     22  C   UNL     1       1.795   8.858  18.436  0.00  0.00    +0.000 A 
BRANCH  20  23
ATOM     23  C   UNL     1       2.978   5.226  18.116  0.00  0.00    +0.000 C 
BRANCH  23  24
ATOM     24  S   UNL     1       4.395   4.566  19.091  0.00  0.00    +0.000 S 
BRANCH  24  25
ATOM     25  C   UNL     1       5.743   5.631  18.628  0.00  0.00    +0.000 A 
ATOM     26  C   UNL     1       6.933   5.537  19.364  0.00  0.00    +0.000 A 
ATOM     27  C   UNL     1       8.036   6.328  19.037  0.00  0.00    +0.000 A 
ATOM     28  C   UNL     1       7.959   7.212  17.963  0.00  0.00    +0.000 A 
ATOM     29  C   UNL     1       6.791   7.288  17.209  0.00  0.00    +0.000 A 
ATOM     30  C   UNL     1       5.688   6.497  17.540  0.00  0.00    +0.000 A 
ENDBRANCH  24  25
ENDBRANCH  23  24
ENDBRANCH  20  23
ENDBRANCH   5  17
TORSDOF 6
ENDMDL
MODEL 6
REMARK VINA RESULT:      -7.3      2.001      2.940
REMARK  Name = 
REMARK  7 active torsions:
REMARK  status: ('A' for Active; 'I' for Inactive)
REMARK    1  A    between atoms: C_1  and  O_2
REMARK    2  A    between atoms: O_2  and  C_3
REMARK    3  A    between atoms: C_8  and  N_9
REMARK    4  A    between atoms: C_13  and  C_15
REMARK    5  A    between atoms: C_18  and  C_19
REMARK    6  A    between atoms: C_19  and  S_20
REMARK    7  A    between atoms: S_20  and  C_21
REMARK                            x       y       z     vdW  Elec       q    Type
REMARK                         _______ _______ _______ _____ _____    ______ ____
ROOT
ATOM      1  N   UNL     1      -2.916  11.473  18.168  0.00  0.00    +0.000 N 
ATOM      2  C   UNL     1      -1.832  12.380  17.737  0.00  0.00    +0.000 C 
ATOM      3  C   UNL     1      -0.603  12.215  18.652  0.00  0.00    +0.000 C 
ATOM      4  N   UNL     1      -0.201  10.807  18.794  0.00  0.00    +0.000 N 
ATOM      5  C   UNL     1       1.154  10.542  18.983  0.00  0.00    +0.000 C 
ATOM      6  O   UNL     1       2.001  11.434  19.090  0.00  0.00    +0.000 OA
ATOM      7  C   UNL     1      -1.319   9.915  19.184  0.00  0.00    +0.000 C 
ATOM      8  C   UNL     1      -2.519  10.060  18.232  0.00  0.00    +0.000 C 
ENDROOT
BRANCH   1  14
ATOM      9  C   UNL     1      -4.806  12.460  19.437  0.00  0.00    +0.000 A 
ATOM     10  C   UNL     1      -6.142  12.886  19.443  0.00  0.00    +0.000 A 
ATOM     11  C   UNL     1      -6.938  12.780  18.308  0.00  0.00    +0.000 A 
ATOM     12  C   UNL     1      -6.410  12.220  17.158  0.00  0.00    +0.000 A 
ATOM     13  C   UNL     1      -5.087  11.772  17.146  0.00  0.00    +0.000 A 
ATOM     14  C   UNL     1      -4.238  11.878  18.269  0.00  0.00    +0.000 A 
BRANCH   9  16
ATOM     15  C   UNL     1      -3.645  13.945  20.898  0.00  0.00    +0.000 C 
ATOM     16  O   UNL     1      -3.998  12.610  20.546  0.00  0.00    +0.000 OA
ENDBRANCH   9  16
ENDBRANCH   1  14
BRANCH   5  17
ATOM     17  C   UNL     1       1.623   9.136  19.005  0.00  0.00    +0.000 A 
ATOM     18  C   UNL     1       1.619   8.396  20.192  0.00  0.00    +0.000 A 
ATOM     19  C   UNL     1       2.101   7.091  20.210  0.00  0.00    +0.000 A 
ATOM     20  C   UNL     1       2.448   6.437  19.021  0.00  0.00    +0.000 A 
ATOM     21  C   UNL     1       2.416   7.168  17.823  0.00  0.00    +0.000 A 
ATOM     22  C   UNL     1       2.012   8.513  17.819  0.00  0.00    +0.000 A 
BRANCH  20  23
ATOM     23  C   UNL     1       2.861   4.976  19.027  0.00  0.00    +0.000 C 
BRANCH  23  24
ATOM     24  S   UNL     1       4.654   4.753  19.388  0.00  0.00    +0.000 S 
BRANCH  24  25
ATOM     25  C   UNL     1       5.395   4.700  17.772  0.00  0.00    +0.000 A 
ATOM     26  C   UNL     1       6.794   4.741  17.692  0.00  0.00    +0.000 A 
ATOM     27  C   UNL     1       7.438   4.679  16.455  0.00  0.00    +0.000 A 
ATOM     28  C   UNL     1       6.685   4.566  15.288  0.00  0.00    +0.000 A 
ATOM     29  C   UNL     1       5.296   4.494  15.362  0.00  0.00    +0.000 A 
ATOM     30  C   UNL     1       4.654   4.557  16.601  0.00  0.00    +0.000 A 
ENDBRANCH  24  25
ENDBRANCH  23  24
ENDBRANCH  20  23
ENDBRANCH   5  17
TORSDOF 6
ENDMDL
MODEL 7
REMARK VINA RESULT:      -7.3      3.110      4.674
REMARK  Name = 
REMARK  7 active torsions:
REMARK  status: ('A' for Active; 'I' for Inactive)
REMARK    1  A    between atoms: C_1  and  O_2
REMARK    2  A    between atoms: O_2  and  C_3
REMARK    3  A    between atoms: C_8  and  N_9
REMARK    4  A    between atoms: C_13  and  C_15
REMARK    5  A    between atoms: C_18  and  C_19
REMARK    6  A    between atoms: C_19  and  S_20
REMARK    7  A    between atoms: S_20  and  C_21
REMARK                            x       y       z     vdW  Elec       q    Type
REMARK                         _______ _______ _______ _____ _____    ______ ____
ROOT
ATOM      1  N   UNL     1      -0.913  11.543  21.267  0.00  0.00    +0.000 N 
ATOM      2  C   UNL     1      -0.885  11.900  19.834  0.00  0.00    +0.000 C 
ATOM      3  C   UNL     1       0.488  11.558  19.224  0.00  0.00    +0.000 C 
ATOM      4  N   UNL     1       0.896  10.176  19.517  0.00  0.00    +0.000 N 
ATOM      5  C   UNL     1       1.684   9.525  18.570  0.00  0.00    +0.000 C 
ATOM      6  O   UNL     1       2.089  10.078  17.543  0.00  0.00    +0.000 OA
ATOM      7  C   UNL     1       0.817   9.834  20.958  0.00  0.00    +0.000 C 
ATOM      8  C   UNL     1      -0.575  10.139  21.537  0.00  0.00    +0.000 C 
ENDROOT
BRANCH   1  14
ATOM      9  C   UNL     1      -0.743  13.496  22.789  0.00  0.00    +0.000 A 
ATOM     10  C   UNL     1      -1.362  14.323  23.737  0.00  0.00    +0.000 A 
ATOM     11  C   UNL     1      -2.672  14.097  24.146  0.00  0.00    +0.000 A 
ATOM     12  C   UNL     1      -3.370  13.021  23.626  0.00  0.00    +0.000 A 
ATOM     13  C   UNL     1      -2.757  12.177  22.697  0.00  0.00    +0.000 A 
ATOM     14  C   UNL     1      -1.437  12.381  22.239  0.00  0.00    +0.000 A 
BRANCH   9  16
ATOM     15  C   UNL     1       0.743  14.981  21.663  0.00  0.00    +0.000 C 
ATOM     16  O   UNL     1       0.539  13.747  22.343  0.00  0.00    +0.000 OA
ENDBRANCH   9  16
ENDBRANCH   1  14
BRANCH   5  17
ATOM     17  C   UNL     1       2.015   8.092  18.761  0.00  0.00    +0.000 A 
ATOM     18  C   UNL     1       2.118   7.544  20.043  0.00  0.00    +0.000 A 
ATOM     19  C   UNL     1       2.470   6.209  20.211  0.00  0.00    +0.000 A 
ATOM     20  C   UNL     1       2.573   5.348  19.111  0.00  0.00    +0.000 A 
ATOM     21  C   UNL     1       2.432   5.891  17.824  0.00  0.00    +0.000 A 
ATOM     22  C   UNL     1       2.162   7.258  17.653  0.00  0.00    +0.000 A 
BRANCH  20  23
ATOM     23  C   UNL     1       2.840   3.866  19.304  0.00  0.00    +0.000 C 
BRANCH  23  24
ATOM     24  S   UNL     1       3.977   3.185  18.023  0.00  0.00    +0.000 S 
BRANCH  24  25
ATOM     25  C   UNL     1       5.323   4.348  18.008  0.00  0.00    +0.000 A 
ATOM     26  C   UNL     1       5.694   4.902  16.775  0.00  0.00    +0.000 A 
ATOM     27  C   UNL     1       6.727   5.839  16.698  0.00  0.00    +0.000 A 
ATOM     28  C   UNL     1       7.389   6.235  17.858  0.00  0.00    +0.000 A 
ATOM     29  C   UNL     1       7.004   5.711  19.090  0.00  0.00    +0.000 A 
ATOM     30  C   UNL     1       5.972   4.774  19.164  0.00  0.00    +0.000 A 
ENDBRANCH  24  25
ENDBRANCH  23  24
ENDBRANCH  20  23
ENDBRANCH   5  17
TORSDOF 6
ENDMDL
MODEL 8
REMARK VINA RESULT:      -7.3      3.168      4.709
REMARK  Name = 
REMARK  7 active torsions:
REMARK  status: ('A' for Active; 'I' for Inactive)
REMARK    1  A    between atoms: C_1  and  O_2
REMARK    2  A    between atoms: O_2  and  C_3
REMARK    3  A    between atoms: C_8  and  N_9
REMARK    4  A    between atoms: C_13  and  C_15
REMARK    5  A    between atoms: C_18  and  C_19
REMARK    6  A    between atoms: C_19  and  S_20
REMARK    7  A    between atoms: S_20  and  C_21
REMARK                            x       y       z     vdW  Elec       q    Type
REMARK                         _______ _______ _______ _____ _____    ______ ____
ROOT
ATOM      1  N   UNL     1      -1.275  11.966  21.911  0.00  0.00    +0.000 N 
ATOM      2  C   UNL     1      -1.604  12.155  20.483  0.00  0.00    +0.000 C 
ATOM      3  C   UNL     1      -0.342  11.980  19.617  0.00  0.00    +0.000 C 
ATOM      4  N   UNL     1       0.370  10.728  19.920  0.00  0.00    +0.000 N 
ATOM      5  C   UNL     1       1.060  10.114  18.876  0.00  0.00    +0.000 C 
ATOM      6  O   UNL     1       1.138  10.605  17.747  0.00  0.00    +0.000 OA
ATOM      7  C   UNL     1       0.647  10.546  21.365  0.00  0.00    +0.000 C 
ATOM      8  C   UNL     1      -0.633  10.679  22.209  0.00  0.00    +0.000 C 
ENDROOT
BRANCH   1  14
ATOM      9  C   UNL     1      -1.068  13.990  23.331  0.00  0.00    +0.000 A 
ATOM     10  C   UNL     1      -1.631  14.817  24.315  0.00  0.00    +0.000 A 
ATOM     11  C   UNL     1      -2.867  14.526  24.881  0.00  0.00    +0.000 A 
ATOM     12  C   UNL     1      -3.544  13.386  24.485  0.00  0.00    +0.000 A 
ATOM     13  C   UNL     1      -2.985  12.543  23.522  0.00  0.00    +0.000 A 
ATOM     14  C   UNL     1      -1.742  12.810  22.907  0.00  0.00    +0.000 A 
BRANCH   9  16
ATOM     15  C   UNL     1       0.423  15.688  22.571  0.00  0.00    +0.000 C 
ATOM     16  O   UNL     1       0.135  14.303  22.730  0.00  0.00    +0.000 OA
ENDBRANCH   9  16
ENDBRANCH   1  14
BRANCH   5  17
ATOM     17  C   UNL     1       1.686   8.788  19.101  0.00  0.00    +0.000 A 
ATOM     18  C   UNL     1       1.462   8.081  20.285  0.00  0.00    +0.000 A 
ATOM     19  C   UNL     1       2.089   6.857  20.503  0.00  0.00    +0.000 A 
ATOM     20  C   UNL     1       2.823   6.234  19.486  0.00  0.00    +0.000 A 
ATOM     21  C   UNL     1       3.015   6.929  18.281  0.00  0.00    +0.000 A 
ATOM     22  C   UNL     1       2.455   8.203  18.095  0.00  0.00    +0.000 A 
BRANCH  20  23
ATOM     23  C   UNL     1       3.406   4.847  19.684  0.00  0.00    +0.000 C 
BRANCH  23  24
ATOM     24  S   UNL     1       3.340   3.832  18.147  0.00  0.00    +0.000 S 
BRANCH  24  25
ATOM     25  C   UNL     1       4.920   4.133  17.388  0.00  0.00    +0.000 A 
ATOM     26  C   UNL     1       4.999   4.057  15.990  0.00  0.00    +0.000 A 
ATOM     27  C   UNL     1       6.205   4.306  15.332  0.00  0.00    +0.000 A 
ATOM     28  C   UNL     1       7.339   4.643  16.068  0.00  0.00    +0.000 A 
ATOM     29  C   UNL     1       7.260   4.750  17.454  0.00  0.00    +0.000 A 
ATOM     30  C   UNL     1       6.053   4.499  18.111  0.00  0.00    +0.000 A 
ENDBRANCH  24  25
ENDBRANCH  23  24
ENDBRANCH  20  23
ENDBRANCH   5  17
TORSDOF 6
ENDMDL
MODEL 9
REMARK VINA RESULT:      -7.3      4.215      6.504
REMARK  Name = 
REMARK  7 active torsions:
REMARK  status: ('A' for Active; 'I' for Inactive)
REMARK    1  A    between atoms: C_1  and  O_2
REMARK    2  A    between atoms: O_2  and  C_3
REMARK    3  A    between atoms: C_8  and  N_9
REMARK    4  A    between atoms: C_13  and  C_15
REMARK    5  A    between atoms: C_18  and  C_19
REMARK    6  A    between atoms: C_19  and  S_20
REMARK    7  A    between atoms: S_20  and  C_21
REMARK                            x       y       z     vdW  Elec       q    Type
REMARK                         _______ _______ _______ _____ _____    ______ ____
ROOT
ATOM      1  N   UNL     1       1.185   9.490  19.208  0.00  0.00    +0.000 N 
ATOM      2  C   UNL     1       1.439   8.908  20.543  0.00  0.00    +0.000 C 
ATOM      3  C   UNL     1       1.457   7.370  20.460  0.00  0.00    +0.000 C 
ATOM      4  N   UNL     1       2.352   6.881  19.400  0.00  0.00    +0.000 N 
ATOM      5  C   UNL     1       2.980   5.654  19.606  0.00  0.00    +0.000 C 
ATOM      6  O   UNL     1       2.769   4.954  20.600  0.00  0.00    +0.000 OA
ATOM      7  C   UNL     1       2.102   7.514  18.083  0.00  0.00    +0.000 C 
ATOM      8  C   UNL     1       2.134   9.050  18.177  0.00  0.00    +0.000 C 
ENDROOT
BRANCH   1  14
ATOM      9  C   UNL     1       0.678  11.891  18.842  0.00  0.00    +0.000 A 
ATOM     10  C   UNL     1      -0.284  12.879  18.588  0.00  0.00    +0.000 A 
ATOM     11  C   UNL     1      -1.631  12.558  18.458  0.00  0.00    +0.000 A 
ATOM     12  C   UNL     1      -2.033  11.242  18.606  0.00  0.00    +0.000 A 
ATOM     13  C   UNL     1      -1.087  10.252  18.880  0.00  0.00    +0.000 A 
ATOM     14  C   UNL     1       0.292  10.530  19.001  0.00  0.00    +0.000 A 
BRANCH   9  16
ATOM     15  C   UNL     1       2.387  13.534  18.590  0.00  0.00    +0.000 C 
ATOM     16  O   UNL     1       2.021  12.198  18.921  0.00  0.00    +0.000 OA
ENDBRANCH   9  16
ENDBRANCH   1  14
BRANCH   5  17
ATOM     17  C   UNL     1       3.987   5.180  18.625  0.00  0.00    +0.000 A 
ATOM     18  C   UNL     1       3.620   4.339  17.571  0.00  0.00    +0.000 A 
ATOM     19  C   UNL     1       4.580   3.866  16.681  0.00  0.00    +0.000 A 
ATOM     20  C   UNL     1       5.896   4.343  16.723  0.00  0.00    +0.000 A 
ATOM     21  C   UNL     1       6.255   5.219  17.761  0.00  0.00    +0.000 A 
ATOM     22  C   UNL     1       5.305   5.627  18.710  0.00  0.00    +0.000 A 
BRANCH  20  23
ATOM     23  C   UNL     1       6.914   3.918  15.680  0.00  0.00    +0.000 C 
BRANCH  23  24
ATOM     24  S   UNL     1       6.873   4.989  14.181  0.00  0.00    +0.000 S 
BRANCH  24  25
ATOM     25  C   UNL     1       6.226   3.911  12.923  0.00  0.00    +0.000 A 
ATOM     26  C   UNL     1       7.124   3.056  12.270  0.00  0.00    +0.000 A 
ATOM     27  C   UNL     1       6.675   2.169  11.289  0.00  0.00    +0.000 A 
ATOM     28  C   UNL     1       5.321   2.125  10.962  0.00  0.00    +0.000 A 
ATOM     29  C   UNL     1       4.420   2.951  11.629  0.00  0.00    +0.000 A 
ATOM     30  C   UNL     1       4.871   3.838  12.609  0.00  0.00    +0.000 A 
ENDBRANCH  24  25
ENDBRANCH  23  24
ENDBRANCH  20  23
ENDBRANCH   5  17
TORSDOF 6
ENDMDL
