MODEL 1
REMARK VINA RESULT:      -5.4      0.000      0.000
REMARK  Name = 
REMARK  12 active torsions:
REMARK  status: ('A' for Active; 'I' for Inactive)
REMARK    1  A    between atoms: C_1  and  C_2
REMARK    2  A    between atoms: C_2  and  C_3
REMARK    3  A    between atoms: C_3  and  C_4
REMARK    4  A    between atoms: C_4  and  C_5
REMARK    5  A    between atoms: C_5  and  C_6
REMARK    6  A    between atoms: C_6  and  C_7
REMARK    7  A    between atoms: C_7  and  C_8
REMARK    8  A    between atoms: C_7  and  O_13
REMARK    9  A    between atoms: C_8  and  C_9
REMARK   10  A    between atoms: C_9  and  C_10
REMARK   11  A    between atoms: C_10  and  O_12
REMARK   12  A    between atoms: O_13  and  C_14
REMARK                            x       y       z     vdW  Elec       q    Type
REMARK                         _______ _______ _______ _____ _____    ______ ____
ROOT
ATOM      1  C   UNL     1       4.529   3.696  17.920  0.00  0.00    +0.000 C 
ENDROOT
BRANCH   1   2
ATOM      2  O   UNL     1       3.352   2.875  17.912  0.00  0.00    +0.000 OA
ATOM      3  C   UNL     1       3.563   1.536  18.344  0.00  0.00    +0.000 C 
ENDBRANCH   1   2
BRANCH   1   4
ATOM      4  C   UNL     1       4.346   4.741  19.041  0.00  0.00    +0.000 C 
BRANCH   4   5
ATOM      5  C   UNL     1       2.952   5.375  19.122  0.00  0.00    +0.000 C 
BRANCH   5   6
ATOM      6  C   UNL     1       2.286   5.185  20.484  0.00  0.00    +0.000 C 
BRANCH   6   7
ATOM      7  C   UNL     1       0.988   4.384  20.356  0.00  0.00    +0.000 C 
BRANCH   7   9
ATOM      8  C   UNL     1       2.337   2.762  21.725  0.00  0.00    +0.000 C 
ATOM      9  C   UNL     1       1.203   2.916  20.724  0.00  0.00    +0.000 C 
ENDBRANCH   7   9
ENDBRANCH   6   7
ENDBRANCH   5   6
ENDBRANCH   4   5
ENDBRANCH   1   4
BRANCH   1  10
ATOM     10  C   UNL     1       4.733   4.371  16.551  0.00  0.00    +0.000 C 
BRANCH  10  11
ATOM     11  C   UNL     1       6.041   3.984  15.860  0.00  0.00    +0.000 C 
BRANCH  11  12
ATOM     12  C   UNL     1       7.201   4.816  16.357  0.00  0.00    +0.000 C 
ATOM     13  O   UNL     1       7.415   5.981  16.065  0.00  0.00    +0.000 OA
BRANCH  12  14
ATOM     14  O   UNL     1       8.007   4.118  17.189  0.00  0.00    +0.000 OA
ATOM     15  H   UNL     1       8.956   4.187  16.973  0.00  0.00    +0.000 HD
ENDBRANCH  12  14
ENDBRANCH  11  12
ENDBRANCH  10  11
ENDBRANCH   1  10
TORSDOF 10
ENDMDL
MODEL 2
REMARK VINA RESULT:      -5.3      2.087      2.439
REMARK  Name = 
REMARK  12 active torsions:
REMARK  status: ('A' for Active; 'I' for Inactive)
REMARK    1  A    between atoms: C_1  and  C_2
REMARK    2  A    between atoms: C_2  and  C_3
REMARK    3  A    between atoms: C_3  and  C_4
REMARK    4  A    between atoms: C_4  and  C_5
REMARK    5  A    between atoms: C_5  and  C_6
REMARK    6  A    between atoms: C_6  and  C_7
REMARK    7  A    between atoms: C_7  and  C_8
REMARK    8  A    between atoms: C_7  and  O_13
REMARK    9  A    between atoms: C_8  and  C_9
REMARK   10  A    between atoms: C_9  and  C_10
REMARK   11  A    between atoms: C_10  and  O_12
REMARK   12  A    between atoms: O_13  and  C_14
REMARK                            x       y       z     vdW  Elec       q    Type
REMARK                         _______ _______ _______ _____ _____    ______ ____
ROOT
ATOM      1  C   UNL     1       4.492   4.036  18.957  0.00  0.00    +0.000 C 
ENDROOT
BRANCH   1   2
ATOM      2  O   UNL     1       5.255   2.930  19.463  0.00  0.00    +0.000 OA
ATOM      3  C   UNL     1       4.526   2.044  20.303  0.00  0.00    +0.000 C 
ENDBRANCH   1   2
BRANCH   1   4
ATOM      4  C   UNL     1       4.077   3.679  17.514  0.00  0.00    +0.000 C 
BRANCH   4   5
ATOM      5  C   UNL     1       2.687   3.049  17.370  0.00  0.00    +0.000 C 
BRANCH   5   6
ATOM      6  C   UNL     1       1.578   3.895  17.996  0.00  0.00    +0.000 C 
BRANCH   6   7
ATOM      7  C   UNL     1       0.869   3.133  19.118  0.00  0.00    +0.000 C 
BRANCH   7   9
ATOM      8  C   UNL     1       1.314   2.757  21.564  0.00  0.00    +0.000 C 
ATOM      9  C   UNL     1       1.103   3.796  20.474  0.00  0.00    +0.000 C 
ENDBRANCH   7   9
ENDBRANCH   6   7
ENDBRANCH   5   6
ENDBRANCH   4   5
ENDBRANCH   1   4
BRANCH   1  10
ATOM     10  C   UNL     1       5.317   5.335  19.000  0.00  0.00    +0.000 C 
BRANCH  10  11
ATOM     11  C   UNL     1       6.702   5.209  18.367  0.00  0.00    +0.000 C 
BRANCH  11  12
ATOM     12  C   UNL     1       7.739   5.998  19.132  0.00  0.00    +0.000 C 
ATOM     13  O   UNL     1       8.295   7.009  18.737  0.00  0.00    +0.000 OA
BRANCH  12  14
ATOM     14  O   UNL     1       7.999   5.456  20.344  0.00  0.00    +0.000 OA
ATOM     15  H   UNL     1       8.946   5.440  20.578  0.00  0.00    +0.000 HD
ENDBRANCH  12  14
ENDBRANCH  11  12
ENDBRANCH  10  11
ENDBRANCH   1  10
TORSDOF 10
ENDMDL
MODEL 3
REMARK VINA RESULT:      -5.2      1.853      2.877
REMARK  Name = 
REMARK  12 active torsions:
REMARK  status: ('A' for Active; 'I' for Inactive)
REMARK    1  A    between atoms: C_1  and  C_2
REMARK    2  A    between atoms: C_2  and  C_3
REMARK    3  A    between atoms: C_3  and  C_4
REMARK    4  A    between atoms: C_4  and  C_5
REMARK    5  A    between atoms: C_5  and  C_6
REMARK    6  A    between atoms: C_6  and  C_7
REMARK    7  A    between atoms: C_7  and  C_8
REMARK    8  A    between atoms: C_7  and  O_13
REMARK    9  A    between atoms: C_8  and  C_9
REMARK   10  A    between atoms: C_9  and  C_10
REMARK   11  A    between atoms: C_10  and  O_12
REMARK   12  A    between atoms: O_13  and  C_14
REMARK                            x       y       z     vdW  Elec       q    Type
REMARK                         _______ _______ _______ _____ _____    ______ ____
ROOT
ATOM      1  C   UNL     1       2.786   5.624  17.952  0.00  0.00    +0.000 C 
ENDROOT
BRANCH   1   2
ATOM      2  O   UNL     1       2.938   5.886  19.355  0.00  0.00    +0.000 OA
ATOM      3  C   UNL     1       2.279   7.062  19.811  0.00  0.00    +0.000 C 
ENDBRANCH   1   2
BRANCH   1   4
ATOM      4  C   UNL     1       1.697   4.541  17.809  0.00  0.00    +0.000 C 
BRANCH   4   5
ATOM      5  C   UNL     1       2.215   3.101  17.712  0.00  0.00    +0.000 C 
BRANCH   5   6
ATOM      6  C   UNL     1       1.780   2.226  18.887  0.00  0.00    +0.000 C 
BRANCH   6   7
ATOM      7  C   UNL     1       0.869   3.000  19.843  0.00  0.00    +0.000 C 
BRANCH   7   9
ATOM      8  C   UNL     1       2.806   2.732  21.424  0.00  0.00    +0.000 C 
ATOM      9  C   UNL     1       1.293   2.800  21.298  0.00  0.00    +0.000 C 
ENDBRANCH   7   9
ENDBRANCH   6   7
ENDBRANCH   5   6
ENDBRANCH   4   5
ENDBRANCH   1   4
BRANCH   1  10
ATOM     10  C   UNL     1       4.119   5.165  17.334  0.00  0.00    +0.000 C 
BRANCH  10  11
ATOM     11  C   UNL     1       5.353   5.670  18.081  0.00  0.00    +0.000 C 
BRANCH  11  12
ATOM     12  C   UNL     1       6.256   4.532  18.500  0.00  0.00    +0.000 C 
ATOM     13  O   UNL     1       7.463   4.488  18.338  0.00  0.00    +0.000 OA
BRANCH  12  14
ATOM     14  O   UNL     1       5.568   3.533  19.098  0.00  0.00    +0.000 OA
ATOM     15  H   UNL     1       6.078   3.051  19.777  0.00  0.00    +0.000 HD
ENDBRANCH  12  14
ENDBRANCH  11  12
ENDBRANCH  10  11
ENDBRANCH   1  10
TORSDOF 10
ENDMDL
MODEL 4
REMARK VINA RESULT:      -5.1      1.832      1.956
REMARK  Name = 
REMARK  12 active torsions:
REMARK  status: ('A' for Active; 'I' for Inactive)
REMARK    1  A    between atoms: C_1  and  C_2
REMARK    2  A    between atoms: C_2  and  C_3
REMARK    3  A    between atoms: C_3  and  C_4
REMARK    4  A    between atoms: C_4  and  C_5
REMARK    5  A    between atoms: C_5  and  C_6
REMARK    6  A    between atoms: C_6  and  C_7
REMARK    7  A    between atoms: C_7  and  C_8
REMARK    8  A    between atoms: C_7  and  O_13
REMARK    9  A    between atoms: C_8  and  C_9
REMARK   10  A    between atoms: C_9  and  C_10
REMARK   11  A    between atoms: C_10  and  O_12
REMARK   12  A    between atoms: O_13  and  C_14
REMARK                            x       y       z     vdW  Elec       q    Type
REMARK                         _______ _______ _______ _____ _____    ______ ____
ROOT
ATOM      1  C   UNL     1       5.065   4.640  18.666  0.00  0.00    +0.000 C 
ENDROOT
BRANCH   1   2
ATOM      2  O   UNL     1       5.260   3.478  19.486  0.00  0.00    +0.000 OA
ATOM      3  C   UNL     1       4.416   2.379  19.163  0.00  0.00    +0.000 C 
ENDBRANCH   1   2
BRANCH   1   4
ATOM      4  C   UNL     1       3.665   4.517  18.030  0.00  0.00    +0.000 C 
BRANCH   4   5
ATOM      5  C   UNL     1       2.602   5.463  18.600  0.00  0.00    +0.000 C 
BRANCH   5   6
ATOM      6  C   UNL     1       2.450   5.349  20.117  0.00  0.00    +0.000 C 
BRANCH   6   7
ATOM      7  C   UNL     1       1.062   4.828  20.494  0.00  0.00    +0.000 C 
BRANCH   7   9
ATOM      8  C   UNL     1       1.671   2.658  21.609  0.00  0.00    +0.000 C 
ATOM      9  C   UNL     1       0.999   3.303  20.408  0.00  0.00    +0.000 C 
ENDBRANCH   7   9
ENDBRANCH   6   7
ENDBRANCH   5   6
ENDBRANCH   4   5
ENDBRANCH   1   4
BRANCH   1  10
ATOM     10  C   UNL     1       6.164   4.741  17.591  0.00  0.00    +0.000 C 
BRANCH  10  11
ATOM     11  C   UNL     1       7.584   4.668  18.150  0.00  0.00    +0.000 C 
BRANCH  11  12
ATOM     12  C   UNL     1       7.899   5.857  19.029  0.00  0.00    +0.000 C 
ATOM     13  O   UNL     1       8.099   6.995  18.640  0.00  0.00    +0.000 OA
BRANCH  12  14
ATOM     14  O   UNL     1       7.936   5.523  20.340  0.00  0.00    +0.000 OA
ATOM     15  H   UNL     1       8.718   5.864  20.814  0.00  0.00    +0.000 HD
ENDBRANCH  12  14
ENDBRANCH  11  12
ENDBRANCH  10  11
ENDBRANCH   1  10
TORSDOF 10
ENDMDL
MODEL 5
REMARK VINA RESULT:      -5.1      2.839      5.900
REMARK  Name = 
REMARK  12 active torsions:
REMARK  status: ('A' for Active; 'I' for Inactive)
REMARK    1  A    between atoms: C_1  and  C_2
REMARK    2  A    between atoms: C_2  and  C_3
REMARK    3  A    between atoms: C_3  and  C_4
REMARK    4  A    between atoms: C_4  and  C_5
REMARK    5  A    between atoms: C_5  and  C_6
REMARK    6  A    between atoms: C_6  and  C_7
REMARK    7  A    between atoms: C_7  and  C_8
REMARK    8  A    between atoms: C_7  and  O_13
REMARK    9  A    between atoms: C_8  and  C_9
REMARK   10  A    between atoms: C_9  and  C_10
REMARK   11  A    between atoms: C_10  and  O_12
REMARK   12  A    between atoms: O_13  and  C_14
REMARK                            x       y       z     vdW  Elec       q    Type
REMARK                         _______ _______ _______ _____ _____    ______ ____
ROOT
ATOM      1  C   UNL     1       4.952   5.724  16.315  0.00  0.00    +0.000 C 
ENDROOT
BRANCH   1   2
ATOM      2  O   UNL     1       4.401   4.471  16.749  0.00  0.00    +0.000 OA
ATOM      3  C   UNL     1       3.295   4.588  17.637  0.00  0.00    +0.000 C 
ENDBRANCH   1   2
BRANCH   1   4
ATOM      4  C   UNL     1       6.100   5.400  15.337  0.00  0.00    +0.000 C 
BRANCH   4   5
ATOM      5  C   UNL     1       5.894   4.146  14.479  0.00  0.00    +0.000 C 
BRANCH   5   6
ATOM      6  C   UNL     1       6.813   4.097  13.259  0.00  0.00    +0.000 C 
BRANCH   6   7
ATOM      7  C   UNL     1       6.124   3.412  12.076  0.00  0.00    +0.000 C 
BRANCH   7   9
ATOM      8  C   UNL     1       3.910   3.194  10.905  0.00  0.00    +0.000 C 
ATOM      9  C   UNL     1       4.605   3.421  12.238  0.00  0.00    +0.000 C 
ENDBRANCH   7   9
ENDBRANCH   6   7
ENDBRANCH   5   6
ENDBRANCH   4   5
ENDBRANCH   1   4
BRANCH   1  10
ATOM     10  C   UNL     1       5.453   6.546  17.517  0.00  0.00    +0.000 C 
BRANCH  10  11
ATOM     11  C   UNL     1       6.923   6.309  17.860  0.00  0.00    +0.000 C 
BRANCH  11  12
ATOM     12  C   UNL     1       7.080   5.289  18.965  0.00  0.00    +0.000 C 
ATOM     13  O   UNL     1       7.445   5.527  20.104  0.00  0.00    +0.000 OA
BRANCH  12  14
ATOM     14  O   UNL     1       6.761   4.041  18.553  0.00  0.00    +0.000 OA
ATOM     15  H   UNL     1       6.730   3.938  17.583  0.00  0.00    +0.000 HD
ENDBRANCH  12  14
ENDBRANCH  11  12
ENDBRANCH  10  11
ENDBRANCH   1  10
TORSDOF 10
ENDMDL
MODEL 6
REMARK VINA RESULT:      -5.1      1.477      1.811
REMARK  Name = 
REMARK  12 active torsions:
REMARK  status: ('A' for Active; 'I' for Inactive)
REMARK    1  A    between atoms: C_1  and  C_2
REMARK    2  A    between atoms: C_2  and  C_3
REMARK    3  A    between atoms: C_3  and  C_4
REMARK    4  A    between atoms: C_4  and  C_5
REMARK    5  A    between atoms: C_5  and  C_6
REMARK    6  A    between atoms: C_6  and  C_7
REMARK    7  A    between atoms: C_7  and  C_8
REMARK    8  A    between atoms: C_7  and  O_13
REMARK    9  A    between atoms: C_8  and  C_9
REMARK   10  A    between atoms: C_9  and  C_10
REMARK   11  A    between atoms: C_10  and  O_12
REMARK   12  A    between atoms: O_13  and  C_14
REMARK                            x       y       z     vdW  Elec       q    Type
REMARK                         _______ _______ _______ _____ _____    ______ ____
ROOT
ATOM      1  C   UNL     1       4.602   3.992  18.678  0.00  0.00    +0.000 C 
ENDROOT
BRANCH   1   2
ATOM      2  O   UNL     1       5.310   3.225  19.664  0.00  0.00    +0.000 OA
ATOM      3  C   UNL     1       4.606   2.085  20.143  0.00  0.00    +0.000 C 
ENDBRANCH   1   2
BRANCH   1   4
ATOM      4  C   UNL     1       4.004   2.991  17.668  0.00  0.00    +0.000 C 
BRANCH   4   5
ATOM      5  C   UNL     1       2.551   3.262  17.260  0.00  0.00    +0.000 C 
BRANCH   5   6
ATOM      6  C   UNL     1       1.569   3.144  18.426  0.00  0.00    +0.000 C 
BRANCH   6   7
ATOM      7  C   UNL     1       1.378   4.492  19.125  0.00  0.00    +0.000 C 
BRANCH   7   9
ATOM      8  C   UNL     1       1.199   2.846  21.017  0.00  0.00    +0.000 C 
ATOM      9  C   UNL     1       1.114   4.311  20.619  0.00  0.00    +0.000 C 
ENDBRANCH   7   9
ENDBRANCH   6   7
ENDBRANCH   5   6
ENDBRANCH   4   5
ENDBRANCH   1   4
BRANCH   1  10
ATOM     10  C   UNL     1       5.544   4.994  17.986  0.00  0.00    +0.000 C 
BRANCH  10  11
ATOM     11  C   UNL     1       5.685   4.772  16.480  0.00  0.00    +0.000 C 
BRANCH  11  12
ATOM     12  C   UNL     1       7.135   4.740  16.055  0.00  0.00    +0.000 C 
ATOM     13  O   UNL     1       7.584   5.224  15.030  0.00  0.00    +0.000 OA
BRANCH  12  14
ATOM     14  O   UNL     1       7.915   4.102  16.957  0.00  0.00    +0.000 OA
ATOM     15  H   UNL     1       7.422   3.529  17.574  0.00  0.00    +0.000 HD
ENDBRANCH  12  14
ENDBRANCH  11  12
ENDBRANCH  10  11
ENDBRANCH   1  10
TORSDOF 10
ENDMDL
MODEL 7
REMARK VINA RESULT:      -5.1      1.514      2.380
REMARK  Name = 
REMARK  12 active torsions:
REMARK  status: ('A' for Active; 'I' for Inactive)
REMARK    1  A    between atoms: C_1  and  C_2
REMARK    2  A    between atoms: C_2  and  C_3
REMARK    3  A    between atoms: C_3  and  C_4
REMARK    4  A    between atoms: C_4  and  C_5
REMARK    5  A    between atoms: C_5  and  C_6
REMARK    6  A    between atoms: C_6  and  C_7
REMARK    7  A    between atoms: C_7  and  C_8
REMARK    8  A    between atoms: C_7  and  O_13
REMARK    9  A    between atoms: C_8  and  C_9
REMARK   10  A    between atoms: C_9  and  C_10
REMARK   11  A    between atoms: C_10  and  O_12
REMARK   12  A    between atoms: O_13  and  C_14
REMARK                            x       y       z     vdW  Elec       q    Type
REMARK                         _______ _______ _______ _____ _____    ______ ____
ROOT
ATOM      1  C   UNL     1       4.351   4.283  16.609  0.00  0.00    +0.000 C 
ENDROOT
BRANCH   1   2
ATOM      2  O   UNL     1       4.491   5.674  16.933  0.00  0.00    +0.000 OA
ATOM      3  C   UNL     1       3.953   6.043  18.197  0.00  0.00    +0.000 C 
ENDBRANCH   1   2
BRANCH   1   4
ATOM      4  C   UNL     1       3.845   3.569  17.880  0.00  0.00    +0.000 C 
BRANCH   4   5
ATOM      5  C   UNL     1       2.860   2.420  17.637  0.00  0.00    +0.000 C 
BRANCH   5   6
ATOM      6  C   UNL     1       1.944   2.153  18.831  0.00  0.00    +0.000 C 
BRANCH   6   7
ATOM      7  C   UNL     1       1.261   3.440  19.300  0.00  0.00    +0.000 C 
BRANCH   7   9
ATOM      8  C   UNL     1       2.334   2.876  21.503  0.00  0.00    +0.000 C 
ATOM      9  C   UNL     1       1.110   3.465  20.821  0.00  0.00    +0.000 C 
ENDBRANCH   7   9
ENDBRANCH   6   7
ENDBRANCH   5   6
ENDBRANCH   4   5
ENDBRANCH   1   4
BRANCH   1  10
ATOM     10  C   UNL     1       5.691   3.696  16.130  0.00  0.00    +0.000 C 
BRANCH  10  11
ATOM     11  C   UNL     1       6.013   4.001  14.667  0.00  0.00    +0.000 C 
BRANCH  11  12
ATOM     12  C   UNL     1       7.069   5.075  14.541  0.00  0.00    +0.000 C 
ATOM     13  O   UNL     1       7.620   5.410  13.507  0.00  0.00    +0.000 OA
BRANCH  12  14
ATOM     14  O   UNL     1       7.351   5.652  15.732  0.00  0.00    +0.000 OA
ATOM     15  H   UNL     1       6.751   6.385  15.970  0.00  0.00    +0.000 HD
ENDBRANCH  12  14
ENDBRANCH  11  12
ENDBRANCH  10  11
ENDBRANCH   1  10
TORSDOF 10
ENDMDL
MODEL 8
REMARK VINA RESULT:      -5.1      1.567      2.074
REMARK  Name = 
REMARK  12 active torsions:
REMARK  status: ('A' for Active; 'I' for Inactive)
REMARK    1  A    between atoms: C_1  and  C_2
REMARK    2  A    between atoms: C_2  and  C_3
REMARK    3  A    between atoms: C_3  and  C_4
REMARK    4  A    between atoms: C_4  and  C_5
REMARK    5  A    between atoms: C_5  and  C_6
REMARK    6  A    between atoms: C_6  and  C_7
REMARK    7  A    between atoms: C_7  and  C_8
REMARK    8  A    between atoms: C_7  and  O_13
REMARK    9  A    between atoms: C_8  and  C_9
REMARK   10  A    between atoms: C_9  and  C_10
REMARK   11  A    between atoms: C_10  and  O_12
REMARK   12  A    between atoms: O_13  and  C_14
REMARK                            x       y       z     vdW  Elec       q    Type
REMARK                         _______ _______ _______ _____ _____    ______ ____
ROOT
ATOM      1  C   UNL     1       4.331   5.227  17.996  0.00  0.00    +0.000 C 
ENDROOT
BRANCH   1   2
ATOM      2  O   UNL     1       5.190   4.570  18.940  0.00  0.00    +0.000 OA
ATOM      3  C   UNL     1       6.366   5.298  19.275  0.00  0.00    +0.000 C 
ENDBRANCH   1   2
BRANCH   1   4
ATOM      4  C   UNL     1       2.885   5.066  18.510  0.00  0.00    +0.000 C 
BRANCH   4   5
ATOM      5  C   UNL     1       2.052   3.995  17.796  0.00  0.00    +0.000 C 
BRANCH   5   6
ATOM      6  C   UNL     1       0.968   3.387  18.685  0.00  0.00    +0.000 C 
BRANCH   6   7
ATOM      7  C   UNL     1       1.035   3.957  20.104  0.00  0.00    +0.000 C 
BRANCH   7   9
ATOM      8  C   UNL     1       2.741   2.727  21.483  0.00  0.00    +0.000 C 
ATOM      9  C   UNL     1       1.267   2.853  21.135  0.00  0.00    +0.000 C 
ENDBRANCH   7   9
ENDBRANCH   6   7
ENDBRANCH   5   6
ENDBRANCH   4   5
ENDBRANCH   1   4
BRANCH   1  10
ATOM     10  C   UNL     1       4.498   4.620  16.591  0.00  0.00    +0.000 C 
BRANCH  10  11
ATOM     11  C   UNL     1       5.373   5.456  15.657  0.00  0.00    +0.000 C 
BRANCH  11  12
ATOM     12  C   UNL     1       6.643   4.727  15.282  0.00  0.00    +0.000 C 
ATOM     13  O   UNL     1       7.648   5.243  14.824  0.00  0.00    +0.000 OA
BRANCH  12  14
ATOM     14  O   UNL     1       6.555   3.398  15.518  0.00  0.00    +0.000 OA
ATOM     15  H   UNL     1       7.283   2.877  15.130  0.00  0.00    +0.000 HD
ENDBRANCH  12  14
ENDBRANCH  11  12
ENDBRANCH  10  11
ENDBRANCH   1  10
TORSDOF 10
ENDMDL
MODEL 9
REMARK VINA RESULT:      -5.1      1.465      1.684
REMARK  Name = 
REMARK  12 active torsions:
REMARK  status: ('A' for Active; 'I' for Inactive)
REMARK    1  A    between atoms: C_1  and  C_2
REMARK    2  A    between atoms: C_2  and  C_3
REMARK    3  A    between atoms: C_3  and  C_4
REMARK    4  A    between atoms: C_4  and  C_5
REMARK    5  A    between atoms: C_5  and  C_6
REMARK    6  A    between atoms: C_6  and  C_7
REMARK    7  A    between atoms: C_7  and  C_8
REMARK    8  A    between atoms: C_7  and  O_13
REMARK    9  A    between atoms: C_8  and  C_9
REMARK   10  A    between atoms: C_9  and  C_10
REMARK   11  A    between atoms: C_10  and  O_12
REMARK   12  A    between atoms: O_13  and  C_14
REMARK                            x       y       z     vdW  Elec       q    Type
REMARK                         _______ _______ _______ _____ _____    ______ ____
ROOT
ATOM      1  C   UNL     1       3.970   3.744  17.678  0.00  0.00    +0.000 C 
ENDROOT
BRANCH   1   2
ATOM      2  O   UNL     1       4.332   2.811  18.707  0.00  0.00    +0.000 OA
ATOM      3  C   UNL     1       3.711   1.536  18.594  0.00  0.00    +0.000 C 
ENDBRANCH   1   2
BRANCH   1   4
ATOM      4  C   UNL     1       2.507   3.447  17.290  0.00  0.00    +0.000 C 
BRANCH   4   5
ATOM      5  C   UNL     1       1.460   4.359  17.941  0.00  0.00    +0.000 C 
BRANCH   5   6
ATOM      6  C   UNL     1       0.998   3.859  19.309  0.00  0.00    +0.000 C 
BRANCH   6   7
ATOM      7  C   UNL     1       1.553   4.737  20.433  0.00  0.00    +0.000 C 
BRANCH   7   9
ATOM      8  C   UNL     1       1.597   2.531  21.640  0.00  0.00    +0.000 C 
ATOM      9  C   UNL     1       2.252   3.896  21.501  0.00  0.00    +0.000 C 
ENDBRANCH   7   9
ENDBRANCH   6   7
ENDBRANCH   5   6
ENDBRANCH   4   5
ENDBRANCH   1   4
BRANCH   1  10
ATOM     10  C   UNL     1       4.911   3.611  16.466  0.00  0.00    +0.000 C 
BRANCH  10  11
ATOM     11  C   UNL     1       5.933   4.741  16.350  0.00  0.00    +0.000 C 
BRANCH  11  12
ATOM     12  C   UNL     1       6.759   4.619  15.090  0.00  0.00    +0.000 C 
ATOM     13  O   UNL     1       7.648   5.379  14.747  0.00  0.00    +0.000 OA
BRANCH  12  14
ATOM     14  O   UNL     1       6.405   3.541  14.353  0.00  0.00    +0.000 OA
ATOM     15  H   UNL     1       6.514   3.664  13.391  0.00  0.00    +0.000 HD
ENDBRANCH  12  14
ENDBRANCH  11  12
ENDBRANCH  10  11
ENDBRANCH   1  10
TORSDOF 10
ENDMDL
