MODEL 1
REMARK VINA RESULT:      -7.2      0.000      0.000
REMARK  Name = 
REMARK  1 active torsions:
REMARK  status: ('A' for Active; 'I' for Inactive)
REMARK    1  A    between atoms: N_11  and  C_12
REMARK                            x       y       z     vdW  Elec       q    Type
REMARK                         _______ _______ _______ _____ _____    ______ ____
ROOT
ATOM      1  O   UNL     1       1.435   7.128  21.387  0.00  0.00    +0.000 OA
ATOM      2  C   UNL     1       1.668   7.661  20.311  0.00  0.00    +0.000 A 
ATOM      3  C   UNL     1       1.091   8.920  20.024  0.00  0.00    +0.000 A 
ATOM      4  C   UNL     1       0.248   9.588  20.941  0.00  0.00    +0.000 A 
ATOM      5  C   UNL     1      -0.352  10.804  20.589  0.00  0.00    +0.000 A 
ATOM      6  C   UNL     1      -0.118  11.370  19.336  0.00  0.00    +0.000 A 
ATOM      7  C   UNL     1       0.731  10.733  18.428  0.00  0.00    +0.000 A 
ATOM      8  C   UNL     1       1.333   9.513  18.768  0.00  0.00    +0.000 A 
ATOM      9  C   UNL     1       2.153   8.865  17.852  0.00  0.00    +0.000 A 
ATOM     10  C   UNL     1       2.683   7.619  18.157  0.00  0.00    +0.000 A 
ATOM     11  N   UNL     1       2.434   6.999  19.358  0.00  0.00    +0.000 N 
ENDROOT
BRANCH  11  12
ATOM     12  C   UNL     1       2.873   5.594  19.611  0.00  0.00    +0.000 C 
ATOM     13  C   UNL     1       4.247   5.210  18.976  0.00  0.00    +0.000 C 
ATOM     14  N   UNL     1       4.227   3.816  18.456  0.00  0.00    +0.000 NA
ATOM     15  C   UNL     1       3.772   2.863  19.505  0.00  0.00    +0.000 C 
ATOM     16  C   UNL     1       2.334   3.194  19.978  0.00  0.00    +0.000 C 
ATOM     17  C   UNL     1       1.852   4.469  19.259  0.00  0.00    +0.000 C 
ATOM     18  C   UNL     1       1.858   4.147  17.742  0.00  0.00    +0.000 C 
ATOM     19  C   UNL     1       3.294   3.764  17.308  0.00  0.00    +0.000 C 
ENDBRANCH  11  12
TORSDOF 1
ENDMDL
MODEL 2
REMARK VINA RESULT:      -7.0      1.613      2.836
REMARK  Name = 
REMARK  1 active torsions:
REMARK  status: ('A' for Active; 'I' for Inactive)
REMARK    1  A    between atoms: N_11  and  C_12
REMARK                            x       y       z     vdW  Elec       q    Type
REMARK                         _______ _______ _______ _____ _____    ______ ____
ROOT
ATOM      1  O   UNL     1       2.409   8.600  17.215  0.00  0.00    +0.000 OA
ATOM      2  C   UNL     1       2.136   8.177  18.330  0.00  0.00    +0.000 A 
ATOM      3  C   UNL     1       1.507   9.036  19.261  0.00  0.00    +0.000 A 
ATOM      4  C   UNL     1       1.181  10.375  18.948  0.00  0.00    +0.000 A 
ATOM      5  C   UNL     1       0.616  11.209  19.922  0.00  0.00    +0.000 A 
ATOM      6  C   UNL     1       0.362  10.724  21.205  0.00  0.00    +0.000 A 
ATOM      7  C   UNL     1       0.657   9.396  21.522  0.00  0.00    +0.000 A 
ATOM      8  C   UNL     1       1.227   8.554  20.556  0.00  0.00    +0.000 A 
ATOM      9  C   UNL     1       1.549   7.242  20.882  0.00  0.00    +0.000 A 
ATOM     10  C   UNL     1       2.188   6.434  19.952  0.00  0.00    +0.000 A 
ATOM     11  N   UNL     1       2.507   6.887  18.694  0.00  0.00    +0.000 N 
ENDROOT
BRANCH  11  12
ATOM     12  C   UNL     1       3.336   6.067  17.762  0.00  0.00    +0.000 C 
ATOM     13  C   UNL     1       2.977   4.548  17.726  0.00  0.00    +0.000 C 
ATOM     14  N   UNL     1       4.201   3.710  17.601  0.00  0.00    +0.000 NA
ATOM     15  C   UNL     1       5.032   4.150  16.447  0.00  0.00    +0.000 C 
ATOM     16  C   UNL     1       5.499   5.617  16.620  0.00  0.00    +0.000 C 
ATOM     17  C   UNL     1       4.884   6.190  17.911  0.00  0.00    +0.000 C 
ATOM     18  C   UNL     1       5.416   5.316  19.077  0.00  0.00    +0.000 C 
ATOM     19  C   UNL     1       4.985   3.847  18.849  0.00  0.00    +0.000 C 
ENDBRANCH  11  12
TORSDOF 1
ENDMDL
MODEL 3
REMARK VINA RESULT:      -6.9      4.344      5.813
REMARK  Name = 
REMARK  1 active torsions:
REMARK  status: ('A' for Active; 'I' for Inactive)
REMARK    1  A    between atoms: N_11  and  C_12
REMARK                            x       y       z     vdW  Elec       q    Type
REMARK                         _______ _______ _______ _____ _____    ______ ____
ROOT
ATOM      1  O   UNL     1       5.403   3.337  19.377  0.00  0.00    +0.000 OA
ATOM      2  C   UNL     1       4.269   3.593  18.998  0.00  0.00    +0.000 A 
ATOM      3  C   UNL     1       3.176   3.324  19.854  0.00  0.00    +0.000 A 
ATOM      4  C   UNL     1       3.348   2.765  21.140  0.00  0.00    +0.000 A 
ATOM      5  C   UNL     1       2.233   2.456  21.930  0.00  0.00    +0.000 A 
ATOM      6  C   UNL     1       0.944   2.706  21.458  0.00  0.00    +0.000 A 
ATOM      7  C   UNL     1       0.759   3.280  20.199  0.00  0.00    +0.000 A 
ATOM      8  C   UNL     1       1.869   3.588  19.398  0.00  0.00    +0.000 A 
ATOM      9  C   UNL     1       1.682   4.131  18.132  0.00  0.00    +0.000 A 
ATOM     10  C   UNL     1       2.775   4.358  17.309  0.00  0.00    +0.000 A 
ATOM     11  N   UNL     1       4.059   4.077  17.711  0.00  0.00    +0.000 N 
ENDROOT
BRANCH  11  12
ATOM     12  C   UNL     1       5.207   4.173  16.762  0.00  0.00    +0.000 C 
ATOM     13  C   UNL     1       6.580   4.517  17.422  0.00  0.00    +0.000 C 
ATOM     14  N   UNL     1       7.374   5.435  16.561  0.00  0.00    +0.000 NA
ATOM     15  C   UNL     1       7.501   4.893  15.180  0.00  0.00    +0.000 C 
ATOM     16  C   UNL     1       6.112   4.728  14.513  0.00  0.00    +0.000 C 
ATOM     17  C   UNL     1       5.019   5.111  15.530  0.00  0.00    +0.000 C 
ATOM     18  C   UNL     1       5.265   6.596  15.902  0.00  0.00    +0.000 C 
ATOM     19  C   UNL     1       6.680   6.741  16.512  0.00  0.00    +0.000 C 
ENDBRANCH  11  12
TORSDOF 1
ENDMDL
MODEL 4
REMARK VINA RESULT:      -6.9      4.050      6.131
REMARK  Name = 
REMARK  1 active torsions:
REMARK  status: ('A' for Active; 'I' for Inactive)
REMARK    1  A    between atoms: N_11  and  C_12
REMARK                            x       y       z     vdW  Elec       q    Type
REMARK                         _______ _______ _______ _____ _____    ______ ____
ROOT
ATOM      1  O   UNL     1       3.412   3.160  17.086  0.00  0.00    +0.000 OA
ATOM      2  C   UNL     1       4.399   3.819  17.382  0.00  0.00    +0.000 A 
ATOM      3  C   UNL     1       5.309   4.197  16.366  0.00  0.00    +0.000 A 
ATOM      4  C   UNL     1       5.118   3.837  15.014  0.00  0.00    +0.000 A 
ATOM      5  C   UNL     1       6.076   4.179  14.051  0.00  0.00    +0.000 A 
ATOM      6  C   UNL     1       7.223   4.884  14.417  0.00  0.00    +0.000 A 
ATOM      7  C   UNL     1       7.414   5.267  15.746  0.00  0.00    +0.000 A 
ATOM      8  C   UNL     1       6.463   4.926  16.719  0.00  0.00    +0.000 A 
ATOM      9  C   UNL     1       6.669   5.281  18.047  0.00  0.00    +0.000 A 
ATOM     10  C   UNL     1       5.769   4.872  19.021  0.00  0.00    +0.000 A 
ATOM     11  N   UNL     1       4.655   4.129  18.713  0.00  0.00    +0.000 N 
ENDROOT
BRANCH  11  12
ATOM     12  C   UNL     1       3.784   3.558  19.784  0.00  0.00    +0.000 C 
ATOM     13  C   UNL     1       3.093   2.206  19.420  0.00  0.00    +0.000 C 
ATOM     14  N   UNL     1       1.708   2.148  19.961  0.00  0.00    +0.000 NA
ATOM     15  C   UNL     1       1.694   2.447  21.419  0.00  0.00    +0.000 C 
ATOM     16  C   UNL     1       2.237   3.869  21.706  0.00  0.00    +0.000 C 
ATOM     17  C   UNL     1       2.699   4.506  20.381  0.00  0.00    +0.000 C 
ATOM     18  C   UNL     1       1.446   4.582  19.470  0.00  0.00    +0.000 C 
ATOM     19  C   UNL     1       0.890   3.154  19.247  0.00  0.00    +0.000 C 
ENDBRANCH  11  12
TORSDOF 1
ENDMDL
MODEL 5
REMARK VINA RESULT:      -6.9      3.842      5.598
REMARK  Name = 
REMARK  1 active torsions:
REMARK  status: ('A' for Active; 'I' for Inactive)
REMARK    1  A    between atoms: N_11  and  C_12
REMARK                            x       y       z     vdW  Elec       q    Type
REMARK                         _______ _______ _______ _____ _____    ______ ____
ROOT
ATOM      1  O   UNL     1       3.622   5.890  20.117  0.00  0.00    +0.000 OA
ATOM      2  C   UNL     1       3.419   5.095  19.209  0.00  0.00    +0.000 A 
ATOM      3  C   UNL     1       2.381   4.144  19.341  0.00  0.00    +0.000 A 
ATOM      4  C   UNL     1       1.566   4.075  20.493  0.00  0.00    +0.000 A 
ATOM      5  C   UNL     1       0.591   3.076  20.608  0.00  0.00    +0.000 A 
ATOM      6  C   UNL     1       0.411   2.145  19.585  0.00  0.00    +0.000 A 
ATOM      7  C   UNL     1       1.193   2.214  18.430  0.00  0.00    +0.000 A 
ATOM      8  C   UNL     1       2.175   3.208  18.307  0.00  0.00    +0.000 A 
ATOM      9  C   UNL     1       2.974   3.257  17.171  0.00  0.00    +0.000 A 
ATOM     10  C   UNL     1       3.999   4.188  17.085  0.00  0.00    +0.000 A 
ATOM     11  N   UNL     1       4.249   5.089  18.093  0.00  0.00    +0.000 N 
ENDROOT
BRANCH  11  12
ATOM     12  C   UNL     1       5.451   5.974  18.061  0.00  0.00    +0.000 C 
ATOM     13  C   UNL     1       5.636   6.785  16.740  0.00  0.00    +0.000 C 
ATOM     14  N   UNL     1       7.073   6.875  16.363  0.00  0.00    +0.000 NA
ATOM     15  C   UNL     1       7.889   7.392  17.495  0.00  0.00    +0.000 C 
ATOM     16  C   UNL     1       7.798   6.456  18.726  0.00  0.00    +0.000 C 
ATOM     17  C   UNL     1       6.817   5.310  18.412  0.00  0.00    +0.000 C 
ATOM     18  C   UNL     1       7.408   4.546  17.197  0.00  0.00    +0.000 C 
ATOM     19  C   UNL     1       7.542   5.519  16.000  0.00  0.00    +0.000 C 
ENDBRANCH  11  12
TORSDOF 1
ENDMDL
MODEL 6
REMARK VINA RESULT:      -6.8      4.249      5.905
REMARK  Name = 
REMARK  1 active torsions:
REMARK  status: ('A' for Active; 'I' for Inactive)
REMARK    1  A    between atoms: N_11  and  C_12
REMARK                            x       y       z     vdW  Elec       q    Type
REMARK                         _______ _______ _______ _____ _____    ______ ____
ROOT
ATOM      1  O   UNL     1       3.839   2.087  17.355  0.00  0.00    +0.000 OA
ATOM      2  C   UNL     1       3.903   3.045  18.114  0.00  0.00    +0.000 A 
ATOM      3  C   UNL     1       2.999   3.131  19.197  0.00  0.00    +0.000 A 
ATOM      4  C   UNL     1       2.015   2.145  19.436  0.00  0.00    +0.000 A 
ATOM      5  C   UNL     1       1.098   2.303  20.484  0.00  0.00    +0.000 A 
ATOM      6  C   UNL     1       1.153   3.430  21.305  0.00  0.00    +0.000 A 
ATOM      7  C   UNL     1       2.135   4.400  21.096  0.00  0.00    +0.000 A 
ATOM      8  C   UNL     1       3.054   4.254  20.047  0.00  0.00    +0.000 A 
ATOM      9  C   UNL     1       4.011   5.237  19.820  0.00  0.00    +0.000 A 
ATOM     10  C   UNL     1       4.867   5.132  18.733  0.00  0.00    +0.000 A 
ATOM     11  N   UNL     1       4.812   4.067  17.865  0.00  0.00    +0.000 N 
ENDROOT
BRANCH  11  12
ATOM     12  C   UNL     1       5.624   4.046  16.612  0.00  0.00    +0.000 C 
ATOM     13  C   UNL     1       7.099   4.533  16.775  0.00  0.00    +0.000 C 
ATOM     14  N   UNL     1       7.536   5.325  15.594  0.00  0.00    +0.000 NA
ATOM     15  C   UNL     1       7.296   4.574  14.332  0.00  0.00    +0.000 C 
ATOM     16  C   UNL     1       5.790   4.264  14.141  0.00  0.00    +0.000 C 
ATOM     17  C   UNL     1       5.015   4.769  15.373  0.00  0.00    +0.000 C 
ATOM     18  C   UNL     1       5.244   6.302  15.437  0.00  0.00    +0.000 C 
ATOM     19  C   UNL     1       6.760   6.586  15.569  0.00  0.00    +0.000 C 
ENDBRANCH  11  12
TORSDOF 1
ENDMDL
MODEL 7
REMARK VINA RESULT:      -6.7      4.637      6.031
REMARK  Name = 
REMARK  1 active torsions:
REMARK  status: ('A' for Active; 'I' for Inactive)
REMARK    1  A    between atoms: N_11  and  C_12
REMARK                            x       y       z     vdW  Elec       q    Type
REMARK                         _______ _______ _______ _____ _____    ______ ____
ROOT
ATOM      1  O   UNL     1       2.684   3.408  16.673  0.00  0.00    +0.000 OA
ATOM      2  C   UNL     1       3.255   3.408  17.755  0.00  0.00    +0.000 A 
ATOM      3  C   UNL     1       2.505   3.181  18.933  0.00  0.00    +0.000 A 
ATOM      4  C   UNL     1       1.110   2.954  18.904  0.00  0.00    +0.000 A 
ATOM      5  C   UNL     1       0.398   2.796  20.100  0.00  0.00    +0.000 A 
ATOM      6  C   UNL     1       1.058   2.853  21.328  0.00  0.00    +0.000 A 
ATOM      7  C   UNL     1       2.439   3.053  21.370  0.00  0.00    +0.000 A 
ATOM      8  C   UNL     1       3.161   3.217  20.179  0.00  0.00    +0.000 A 
ATOM      9  C   UNL     1       4.532   3.447  20.224  0.00  0.00    +0.000 A 
ATOM     10  C   UNL     1       5.232   3.691  19.051  0.00  0.00    +0.000 A 
ATOM     11  N   UNL     1       4.613   3.699  17.824  0.00  0.00    +0.000 N 
ENDROOT
BRANCH  11  12
ATOM     12  C   UNL     1       5.341   4.121  16.591  0.00  0.00    +0.000 C 
ATOM     13  C   UNL     1       6.898   4.052  16.691  0.00  0.00    +0.000 C 
ATOM     14  N   UNL     1       7.532   5.197  15.983  0.00  0.00    +0.000 NA
ATOM     15  C   UNL     1       7.032   5.302  14.585  0.00  0.00    +0.000 C 
ATOM     16  C   UNL     1       5.501   5.537  14.554  0.00  0.00    +0.000 C 
ATOM     17  C   UNL     1       4.960   5.511  15.996  0.00  0.00    +0.000 C 
ATOM     18  C   UNL     1       5.666   6.668  16.751  0.00  0.00    +0.000 C 
ATOM     19  C   UNL     1       7.197   6.438  16.718  0.00  0.00    +0.000 C 
ENDBRANCH  11  12
TORSDOF 1
ENDMDL
MODEL 8
REMARK VINA RESULT:      -6.7      3.992      5.194
REMARK  Name = 
REMARK  1 active torsions:
REMARK  status: ('A' for Active; 'I' for Inactive)
REMARK    1  A    between atoms: N_11  and  C_12
REMARK                            x       y       z     vdW  Elec       q    Type
REMARK                         _______ _______ _______ _____ _____    ______ ____
ROOT
ATOM      1  O   UNL     1       6.249   4.101  19.429  0.00  0.00    +0.000 OA
ATOM      2  C   UNL     1       5.882   4.874  18.555  0.00  0.00    +0.000 A 
ATOM      3  C   UNL     1       6.649   6.032  18.287  0.00  0.00    +0.000 A 
ATOM      4  C   UNL     1       7.833   6.330  19.000  0.00  0.00    +0.000 A 
ATOM      5  C   UNL     1       8.527   7.520  18.745  0.00  0.00    +0.000 A 
ATOM      6  C   UNL     1       8.061   8.416  17.782  0.00  0.00    +0.000 A 
ATOM      7  C   UNL     1       6.907   8.123  17.054  0.00  0.00    +0.000 A 
ATOM      8  C   UNL     1       6.202   6.937  17.304  0.00  0.00    +0.000 A 
ATOM      9  C   UNL     1       5.035   6.661  16.601  0.00  0.00    +0.000 A 
ATOM     10  C   UNL     1       4.293   5.529  16.907  0.00  0.00    +0.000 A 
ATOM     11  N   UNL     1       4.684   4.647  17.885  0.00  0.00    +0.000 N 
ENDROOT
BRANCH  11  12
ATOM     12  C   UNL     1       3.799   3.524  18.315  0.00  0.00    +0.000 C 
ATOM     13  C   UNL     1       2.652   3.170  17.316  0.00  0.00    +0.000 C 
ATOM     14  N   UNL     1       1.402   2.814  18.040  0.00  0.00    +0.000 NA
ATOM     15  C   UNL     1       1.656   1.751  19.050  0.00  0.00    +0.000 C 
ATOM     16  C   UNL     1       2.680   2.221  20.113  0.00  0.00    +0.000 C 
ATOM     17  C   UNL     1       3.177   3.632  19.741  0.00  0.00    +0.000 C 
ATOM     18  C   UNL     1       1.930   4.554  19.751  0.00  0.00    +0.000 C 
ATOM     19  C   UNL     1       0.899   4.028  18.722  0.00  0.00    +0.000 C 
ENDBRANCH  11  12
TORSDOF 1
ENDMDL
MODEL 9
REMARK VINA RESULT:      -6.6      3.690      5.565
REMARK  Name = 
REMARK  1 active torsions:
REMARK  status: ('A' for Active; 'I' for Inactive)
REMARK    1  A    between atoms: N_11  and  C_12
REMARK                            x       y       z     vdW  Elec       q    Type
REMARK                         _______ _______ _______ _____ _____    ______ ____
ROOT
ATOM      1  O   UNL     1       5.509   3.685  19.484  0.00  0.00    +0.000 OA
ATOM      2  C   UNL     1       4.415   4.157  19.206  0.00  0.00    +0.000 A 
ATOM      3  C   UNL     1       3.276   3.742  19.935  0.00  0.00    +0.000 A 
ATOM      4  C   UNL     1       3.357   2.793  20.979  0.00  0.00    +0.000 A 
ATOM      5  C   UNL     1       2.194   2.364  21.632  0.00  0.00    +0.000 A 
ATOM      6  C   UNL     1       0.949   2.874  21.264  0.00  0.00    +0.000 A 
ATOM      7  C   UNL     1       0.857   3.830  20.250  0.00  0.00    +0.000 A 
ATOM      8  C   UNL     1       2.014   4.263  19.587  0.00  0.00    +0.000 A 
ATOM      9  C   UNL     1       1.917   5.191  18.556  0.00  0.00    +0.000 A 
ATOM     10  C   UNL     1       3.052   5.557  17.846  0.00  0.00    +0.000 A 
ATOM     11  N   UNL     1       4.291   5.038  18.138  0.00  0.00    +0.000 N 
ENDROOT
BRANCH  11  12
ATOM     12  C   UNL     1       5.471   5.314  17.266  0.00  0.00    +0.000 C 
ATOM     13  C   UNL     1       5.185   6.245  16.046  0.00  0.00    +0.000 C 
ATOM     14  N   UNL     1       5.941   5.801  14.843  0.00  0.00    +0.000 NA
ATOM     15  C   UNL     1       7.390   5.655  15.150  0.00  0.00    +0.000 C 
ATOM     16  C   UNL     1       7.626   4.594  16.255  0.00  0.00    +0.000 C 
ATOM     17  C   UNL     1       6.262   4.074  16.748  0.00  0.00    +0.000 C 
ATOM     18  C   UNL     1       5.568   3.427  15.521  0.00  0.00    +0.000 C 
ATOM     19  C   UNL     1       5.398   4.494  14.411  0.00  0.00    +0.000 C 
ENDBRANCH  11  12
TORSDOF 1
ENDMDL
