MODEL 1
REMARK VINA RESULT:      -6.7      0.000      0.000
REMARK  Name = 
REMARK  8 active torsions:
REMARK  status: ('A' for Active; 'I' for Inactive)
REMARK    1  A    between atoms: C_1  and  C_2
REMARK    2  A    between atoms: C_2  and  C_3
REMARK    3  A    between atoms: C_2  and  C_4
REMARK    4  A    between atoms: C_4  and  C_5
REMARK    5  A    between atoms: N_7  and  C_8
REMARK    6  A    between atoms: N_7  and  C_9
REMARK    7  A    between atoms: C_9  and  C_10
REMARK    8  A    between atoms: C_12  and  C_13
REMARK                            x       y       z     vdW  Elec       q    Type
REMARK                         _______ _______ _______ _____ _____    ______ ____
ROOT
ATOM      1  C   UNL     1       3.749   3.671  16.798  0.00  0.00    +0.000 C 
ENDROOT
BRANCH   1   2
ATOM      2  C   UNL     1       4.675   4.750  17.299  0.00  0.00    +0.000 A 
ATOM      3  N   UNL     1       5.810   4.521  17.935  0.00  0.00    +0.000 NA
ATOM      4  C   UNL     1       6.448   5.718  18.269  0.00  0.00    +0.000 A 
ATOM      5  C   UNL     1       5.780   6.847  17.831  0.00  0.00    +0.000 A 
ATOM      6  S   UNL     1       4.362   6.414  16.981  0.00  0.00    +0.000 S 
BRANCH   4   7
ATOM      7  C   UNL     1       7.743   5.729  19.028  0.00  0.00    +0.000 C 
ATOM      8  F   UNL     1       7.590   5.624  20.372  0.00  0.00    +0.000 F 
ATOM      9  F   UNL     1       8.547   4.698  18.644  0.00  0.00    +0.000 F 
ATOM     10  F   UNL     1       8.450   6.868  18.796  0.00  0.00    +0.000 F 
ENDBRANCH   4   7
ENDBRANCH   1   2
BRANCH   1  13
ATOM     11  C   UNL     1       1.689   3.506  18.115  0.00  0.00    +0.000 C 
ATOM     12  O   UNL     1       1.166   4.359  17.400  0.00  0.00    +0.000 OA
ATOM     13  N   UNL     1       2.978   3.037  17.875  0.00  0.00    +0.000 N 
ATOM     14  C   UNL     1       3.650   1.996  18.644  0.00  0.00    +0.000 C 
BRANCH  11  15
ATOM     15  C   UNL     1       0.961   2.914  19.316  0.00  0.00    +0.000 C 
BRANCH  15  17
ATOM     16  C   UNL     1       1.550   2.790  21.747  0.00  0.00    +0.000 C 
ATOM     17  C   UNL     1       1.084   3.720  20.621  0.00  0.00    +0.000 C 
ATOM     18  C   UNL     1       2.066   4.889  20.501  0.00  0.00    +0.000 C 
ENDBRANCH  15  17
ENDBRANCH  11  15
ENDBRANCH   1  13
TORSDOF 5
ENDMDL
MODEL 2
REMARK VINA RESULT:      -6.6      1.091      1.451
REMARK  Name = 
REMARK  8 active torsions:
REMARK  status: ('A' for Active; 'I' for Inactive)
REMARK    1  A    between atoms: C_1  and  C_2
REMARK    2  A    between atoms: C_2  and  C_3
REMARK    3  A    between atoms: C_2  and  C_4
REMARK    4  A    between atoms: C_4  and  C_5
REMARK    5  A    between atoms: N_7  and  C_8
REMARK    6  A    between atoms: N_7  and  C_9
REMARK    7  A    between atoms: C_9  and  C_10
REMARK    8  A    between atoms: C_12  and  C_13
REMARK                            x       y       z     vdW  Elec       q    Type
REMARK                         _______ _______ _______ _____ _____    ______ ____
ROOT
ATOM      1  C   UNL     1       3.500   3.850  16.460  0.00  0.00    +0.000 C 
ENDROOT
BRANCH   1   2
ATOM      2  C   UNL     1       4.942   4.216  16.699  0.00  0.00    +0.000 A 
ATOM      3  N   UNL     1       5.396   4.771  17.809  0.00  0.00    +0.000 NA
ATOM      4  C   UNL     1       6.774   4.987  17.734  0.00  0.00    +0.000 A 
ATOM      5  C   UNL     1       7.346   4.541  16.556  0.00  0.00    +0.000 A 
ATOM      6  S   UNL     1       6.163   3.832  15.546  0.00  0.00    +0.000 S 
BRANCH   4   7
ATOM      7  C   UNL     1       7.527   5.638  18.858  0.00  0.00    +0.000 C 
ATOM      8  F   UNL     1       8.668   4.989  19.201  0.00  0.00    +0.000 F 
ATOM      9  F   UNL     1       7.883   6.914  18.538  0.00  0.00    +0.000 F 
ATOM     10  F   UNL     1       6.767   5.727  19.983  0.00  0.00    +0.000 F 
ENDBRANCH   4   7
ENDBRANCH   1   2
BRANCH   1  13
ATOM     11  C   UNL     1       1.656   3.471  18.029  0.00  0.00    +0.000 C 
ATOM     12  O   UNL     1       1.005   4.354  17.474  0.00  0.00    +0.000 OA
ATOM     13  N   UNL     1       2.914   3.089  17.572  0.00  0.00    +0.000 N 
ATOM     14  C   UNL     1       3.727   2.021  18.143  0.00  0.00    +0.000 C 
BRANCH  11  15
ATOM     15  C   UNL     1       1.128   2.743  19.260  0.00  0.00    +0.000 C 
BRANCH  15  17
ATOM     16  C   UNL     1       1.545   2.674  21.729  0.00  0.00    +0.000 C 
ATOM     17  C   UNL     1       1.123   3.570  20.558  0.00  0.00    +0.000 C 
ATOM     18  C   UNL     1       2.060   4.779  20.491  0.00  0.00    +0.000 C 
ENDBRANCH  15  17
ENDBRANCH  11  15
ENDBRANCH   1  13
TORSDOF 5
ENDMDL
MODEL 3
REMARK VINA RESULT:      -6.5      1.315      1.591
REMARK  Name = 
REMARK  8 active torsions:
REMARK  status: ('A' for Active; 'I' for Inactive)
REMARK    1  A    between atoms: C_1  and  C_2
REMARK    2  A    between atoms: C_2  and  C_3
REMARK    3  A    between atoms: C_2  and  C_4
REMARK    4  A    between atoms: C_4  and  C_5
REMARK    5  A    between atoms: N_7  and  C_8
REMARK    6  A    between atoms: N_7  and  C_9
REMARK    7  A    between atoms: C_9  and  C_10
REMARK    8  A    between atoms: C_12  and  C_13
REMARK                            x       y       z     vdW  Elec       q    Type
REMARK                         _______ _______ _______ _____ _____    ______ ____
ROOT
ATOM      1  C   UNL     1       3.897   3.591  16.893  0.00  0.00    +0.000 C 
ENDROOT
BRANCH   1   2
ATOM      2  C   UNL     1       4.910   4.430  17.631  0.00  0.00    +0.000 A 
ATOM      3  N   UNL     1       5.619   5.397  17.079  0.00  0.00    +0.000 NA
ATOM      4  C   UNL     1       6.468   5.994  18.015  0.00  0.00    +0.000 A 
ATOM      5  C   UNL     1       6.344   5.474  19.291  0.00  0.00    +0.000 A 
ATOM      6  S   UNL     1       5.151   4.250  19.327  0.00  0.00    +0.000 S 
BRANCH   4   7
ATOM      7  C   UNL     1       7.405   7.101  17.628  0.00  0.00    +0.000 C 
ATOM      8  F   UNL     1       8.418   7.293  18.510  0.00  0.00    +0.000 F 
ATOM      9  F   UNL     1       7.981   6.858  16.417  0.00  0.00    +0.000 F 
ATOM     10  F   UNL     1       6.753   8.289  17.506  0.00  0.00    +0.000 F 
ENDBRANCH   4   7
ENDBRANCH   1   2
BRANCH   1  13
ATOM     11  C   UNL     1       1.769   3.553  18.106  0.00  0.00    +0.000 C 
ATOM     12  O   UNL     1       1.454   4.621  17.584  0.00  0.00    +0.000 OA
ATOM     13  N   UNL     1       2.962   2.906  17.794  0.00  0.00    +0.000 N 
ATOM     14  C   UNL     1       3.384   1.618  18.332  0.00  0.00    +0.000 C 
BRANCH  11  15
ATOM     15  C   UNL     1       0.875   2.874  19.138  0.00  0.00    +0.000 C 
BRANCH  15  17
ATOM     16  C   UNL     1       1.641   2.556  21.501  0.00  0.00    +0.000 C 
ATOM     17  C   UNL     1       0.903   3.499  20.544  0.00  0.00    +0.000 C 
ATOM     18  C   UNL     1       1.588   4.869  20.566  0.00  0.00    +0.000 C 
ENDBRANCH  15  17
ENDBRANCH  11  15
ENDBRANCH   1  13
TORSDOF 5
ENDMDL
MODEL 4
REMARK VINA RESULT:      -6.4      2.951      3.778
REMARK  Name = 
REMARK  8 active torsions:
REMARK  status: ('A' for Active; 'I' for Inactive)
REMARK    1  A    between atoms: C_1  and  C_2
REMARK    2  A    between atoms: C_2  and  C_3
REMARK    3  A    between atoms: C_2  and  C_4
REMARK    4  A    between atoms: C_4  and  C_5
REMARK    5  A    between atoms: N_7  and  C_8
REMARK    6  A    between atoms: N_7  and  C_9
REMARK    7  A    between atoms: C_9  and  C_10
REMARK    8  A    between atoms: C_12  and  C_13
REMARK                            x       y       z     vdW  Elec       q    Type
REMARK                         _______ _______ _______ _____ _____    ______ ____
ROOT
ATOM      1  C   UNL     1       5.213   5.263  19.291  0.00  0.00    +0.000 C 
ENDROOT
BRANCH   1   2
ATOM      2  C   UNL     1       5.276   5.529  17.808  0.00  0.00    +0.000 A 
ATOM      3  N   UNL     1       5.627   4.632  16.905  0.00  0.00    +0.000 NA
ATOM      4  C   UNL     1       5.585   5.173  15.618  0.00  0.00    +0.000 A 
ATOM      5  C   UNL     1       5.154   6.487  15.579  0.00  0.00    +0.000 A 
ATOM      6  S   UNL     1       4.780   7.043  17.151  0.00  0.00    +0.000 S 
BRANCH   4   7
ATOM      7  C   UNL     1       5.974   4.363  14.415  0.00  0.00    +0.000 C 
ATOM      8  F   UNL     1       6.993   4.902  13.698  0.00  0.00    +0.000 F 
ATOM      9  F   UNL     1       6.368   3.109  14.772  0.00  0.00    +0.000 F 
ATOM     10  F   UNL     1       4.928   4.204  13.560  0.00  0.00    +0.000 F 
ENDBRANCH   4   7
ENDBRANCH   1   2
BRANCH   1  13
ATOM     11  C   UNL     1       3.977   3.245  19.926  0.00  0.00    +0.000 C 
ATOM     12  O   UNL     1       5.018   2.593  19.875  0.00  0.00    +0.000 OA
ATOM     13  N   UNL     1       3.959   4.619  19.700  0.00  0.00    +0.000 N 
ATOM     14  C   UNL     1       2.777   5.469  19.788  0.00  0.00    +0.000 C 
BRANCH  11  15
ATOM     15  C   UNL     1       2.635   2.586  20.229  0.00  0.00    +0.000 C 
BRANCH  15  17
ATOM     16  C   UNL     1       0.522   2.580  18.885  0.00  0.00    +0.000 C 
ATOM     17  C   UNL     1       1.920   1.964  19.017  0.00  0.00    +0.000 C 
ATOM     18  C   UNL     1       2.685   2.179  17.708  0.00  0.00    +0.000 C 
ENDBRANCH  15  17
ENDBRANCH  11  15
ENDBRANCH   1  13
TORSDOF 5
ENDMDL
MODEL 5
REMARK VINA RESULT:      -6.3      3.605      4.190
REMARK  Name = 
REMARK  8 active torsions:
REMARK  status: ('A' for Active; 'I' for Inactive)
REMARK    1  A    between atoms: C_1  and  C_2
REMARK    2  A    between atoms: C_2  and  C_3
REMARK    3  A    between atoms: C_2  and  C_4
REMARK    4  A    between atoms: C_4  and  C_5
REMARK    5  A    between atoms: N_7  and  C_8
REMARK    6  A    between atoms: N_7  and  C_9
REMARK    7  A    between atoms: C_9  and  C_10
REMARK    8  A    between atoms: C_12  and  C_13
REMARK                            x       y       z     vdW  Elec       q    Type
REMARK                         _______ _______ _______ _____ _____    ______ ____
ROOT
ATOM      1  C   UNL     1       4.168   5.538  17.043  0.00  0.00    +0.000 C 
ENDROOT
BRANCH   1   2
ATOM      2  C   UNL     1       5.173   5.056  16.029  0.00  0.00    +0.000 A 
ATOM      3  N   UNL     1       4.861   4.604  14.828  0.00  0.00    +0.000 NA
ATOM      4  C   UNL     1       6.006   4.236  14.117  0.00  0.00    +0.000 A 
ATOM      5  C   UNL     1       7.185   4.462  14.803  0.00  0.00    +0.000 A 
ATOM      6  S   UNL     1       6.866   5.155  16.333  0.00  0.00    +0.000 S 
BRANCH   4   7
ATOM      7  C   UNL     1       5.917   3.660  12.734  0.00  0.00    +0.000 C 
ATOM      8  F   UNL     1       6.727   4.272  11.833  0.00  0.00    +0.000 F 
ATOM      9  F   UNL     1       6.252   2.339  12.728  0.00  0.00    +0.000 F 
ATOM     10  F   UNL     1       4.650   3.732  12.242  0.00  0.00    +0.000 F 
ENDBRANCH   4   7
ENDBRANCH   1   2
BRANCH   1  13
ATOM     11  C   UNL     1       2.863   3.758  18.107  0.00  0.00    +0.000 C 
ATOM     12  O   UNL     1       2.104   3.739  17.139  0.00  0.00    +0.000 OA
ATOM     13  N   UNL     1       3.977   4.592  18.150  0.00  0.00    +0.000 N 
ATOM     14  C   UNL     1       4.949   4.639  19.236  0.00  0.00    +0.000 C 
BRANCH  11  15
ATOM     15  C   UNL     1       2.625   2.874  19.326  0.00  0.00    +0.000 C 
BRANCH  15  17
ATOM     16  C   UNL     1       1.495   2.518  21.533  0.00  0.00    +0.000 C 
ATOM     17  C   UNL     1       1.421   3.271  20.199  0.00  0.00    +0.000 C 
ATOM     18  C   UNL     1       1.365   4.775  20.478  0.00  0.00    +0.000 C 
ENDBRANCH  15  17
ENDBRANCH  11  15
ENDBRANCH   1  13
TORSDOF 5
ENDMDL
MODEL 6
REMARK VINA RESULT:      -6.3      3.934      6.415
REMARK  Name = 
REMARK  8 active torsions:
REMARK  status: ('A' for Active; 'I' for Inactive)
REMARK    1  A    between atoms: C_1  and  C_2
REMARK    2  A    between atoms: C_2  and  C_3
REMARK    3  A    between atoms: C_2  and  C_4
REMARK    4  A    between atoms: C_4  and  C_5
REMARK    5  A    between atoms: N_7  and  C_8
REMARK    6  A    between atoms: N_7  and  C_9
REMARK    7  A    between atoms: C_9  and  C_10
REMARK    8  A    between atoms: C_12  and  C_13
REMARK                            x       y       z     vdW  Elec       q    Type
REMARK                         _______ _______ _______ _____ _____    ______ ____
ROOT
ATOM      1  C   UNL     1       5.456   6.134  17.925  0.00  0.00    +0.000 C 
ENDROOT
BRANCH   1   2
ATOM      2  C   UNL     1       4.323   5.253  18.382  0.00  0.00    +0.000 A 
ATOM      3  N   UNL     1       3.544   5.517  19.416  0.00  0.00    +0.000 NA
ATOM      4  C   UNL     1       2.583   4.518  19.588  0.00  0.00    +0.000 A 
ATOM      5  C   UNL     1       2.637   3.521  18.631  0.00  0.00    +0.000 A 
ATOM      6  S   UNL     1       3.878   3.840  17.501  0.00  0.00    +0.000 S 
BRANCH   4   7
ATOM      7  C   UNL     1       1.595   4.569  20.718  0.00  0.00    +0.000 C 
ATOM      8  F   UNL     1       1.181   5.824  21.026  0.00  0.00    +0.000 F 
ATOM      9  F   UNL     1       0.476   3.849  20.427  0.00  0.00    +0.000 F 
ATOM     10  F   UNL     1       2.109   4.030  21.857  0.00  0.00    +0.000 F 
ENDBRANCH   4   7
ENDBRANCH   1   2
BRANCH   1  13
ATOM     11  C   UNL     1       6.165   5.542  15.655  0.00  0.00    +0.000 C 
ATOM     12  O   UNL     1       5.276   6.256  15.194  0.00  0.00    +0.000 OA
ATOM     13  N   UNL     1       6.388   5.441  17.026  0.00  0.00    +0.000 N 
ATOM     14  C   UNL     1       7.448   4.657  17.648  0.00  0.00    +0.000 C 
BRANCH  11  15
ATOM     15  C   UNL     1       7.073   4.714  14.753  0.00  0.00    +0.000 C 
BRANCH  15  17
ATOM     16  C   UNL     1       8.098   5.388  12.570  0.00  0.00    +0.000 C 
ATOM     17  C   UNL     1       6.821   4.872  13.244  0.00  0.00    +0.000 C 
ATOM     18  C   UNL     1       6.399   3.561  12.576  0.00  0.00    +0.000 C 
ENDBRANCH  15  17
ENDBRANCH  11  15
ENDBRANCH   1  13
TORSDOF 5
ENDMDL
MODEL 7
REMARK VINA RESULT:      -6.3      1.034      1.571
REMARK  Name = 
REMARK  8 active torsions:
REMARK  status: ('A' for Active; 'I' for Inactive)
REMARK    1  A    between atoms: C_1  and  C_2
REMARK    2  A    between atoms: C_2  and  C_3
REMARK    3  A    between atoms: C_2  and  C_4
REMARK    4  A    between atoms: C_4  and  C_5
REMARK    5  A    between atoms: N_7  and  C_8
REMARK    6  A    between atoms: N_7  and  C_9
REMARK    7  A    between atoms: C_9  and  C_10
REMARK    8  A    between atoms: C_12  and  C_13
REMARK                            x       y       z     vdW  Elec       q    Type
REMARK                         _______ _______ _______ _____ _____    ______ ____
ROOT
ATOM      1  C   UNL     1       3.790   3.653  16.916  0.00  0.00    +0.000 C 
ENDROOT
BRANCH   1   2
ATOM      2  C   UNL     1       4.811   4.715  17.235  0.00  0.00    +0.000 A 
ATOM      3  N   UNL     1       5.834   4.543  18.053  0.00  0.00    +0.000 NA
ATOM      4  C   UNL     1       6.605   5.704  18.143  0.00  0.00    +0.000 A 
ATOM      5  C   UNL     1       6.155   6.737  17.339  0.00  0.00    +0.000 A 
ATOM      6  S   UNL     1       4.777   6.250  16.453  0.00  0.00    +0.000 S 
BRANCH   4   7
ATOM      7  C   UNL     1       7.809   5.777  19.037  0.00  0.00    +0.000 C 
ATOM      8  F   UNL     1       8.502   6.940  18.927  0.00  0.00    +0.000 F 
ATOM      9  F   UNL     1       7.458   5.653  20.347  0.00  0.00    +0.000 F 
ATOM     10  F   UNL     1       8.685   4.768  18.780  0.00  0.00    +0.000 F 
ENDBRANCH   4   7
ENDBRANCH   1   2
BRANCH   1  13
ATOM     11  C   UNL     1       2.463   2.784  18.783  0.00  0.00    +0.000 C 
ATOM     12  O   UNL     1       3.341   1.957  19.020  0.00  0.00    +0.000 OA
ATOM     13  N   UNL     1       2.601   3.732  17.773  0.00  0.00    +0.000 N 
ATOM     14  C   UNL     1       1.629   4.774  17.461  0.00  0.00    +0.000 C 
BRANCH  11  15
ATOM     15  C   UNL     1       1.161   2.816  19.576  0.00  0.00    +0.000 C 
BRANCH  15  17
ATOM     16  C   UNL     1       1.759   2.446  21.979  0.00  0.00    +0.000 C 
ATOM     17  C   UNL     1       1.253   3.476  20.963  0.00  0.00    +0.000 C 
ATOM     18  C   UNL     1       2.184   4.691  20.977  0.00  0.00    +0.000 C 
ENDBRANCH  15  17
ENDBRANCH  11  15
ENDBRANCH   1  13
TORSDOF 5
ENDMDL
MODEL 8
REMARK VINA RESULT:      -6.2      0.501      1.303
REMARK  Name = 
REMARK  8 active torsions:
REMARK  status: ('A' for Active; 'I' for Inactive)
REMARK    1  A    between atoms: C_1  and  C_2
REMARK    2  A    between atoms: C_2  and  C_3
REMARK    3  A    between atoms: C_2  and  C_4
REMARK    4  A    between atoms: C_4  and  C_5
REMARK    5  A    between atoms: N_7  and  C_8
REMARK    6  A    between atoms: N_7  and  C_9
REMARK    7  A    between atoms: C_9  and  C_10
REMARK    8  A    between atoms: C_12  and  C_13
REMARK                            x       y       z     vdW  Elec       q    Type
REMARK                         _______ _______ _______ _____ _____    ______ ____
ROOT
ATOM      1  C   UNL     1       3.939   3.705  16.477  0.00  0.00    +0.000 C 
ENDROOT
BRANCH   1   2
ATOM      2  C   UNL     1       4.906   4.765  16.940  0.00  0.00    +0.000 A 
ATOM      3  N   UNL     1       5.900   4.550  17.782  0.00  0.00    +0.000 NA
ATOM      4  C   UNL     1       6.623   5.722  18.015  0.00  0.00    +0.000 A 
ATOM      5  C   UNL     1       6.168   6.811  17.293  0.00  0.00    +0.000 A 
ATOM      6  S   UNL     1       4.846   6.366  16.304  0.00  0.00    +0.000 S 
BRANCH   4   7
ATOM      7  C   UNL     1       7.785   5.750  18.965  0.00  0.00    +0.000 C 
ATOM      8  F   UNL     1       8.505   6.900  18.916  0.00  0.00    +0.000 F 
ATOM      9  F   UNL     1       7.372   5.602  20.254  0.00  0.00    +0.000 F 
ATOM     10  F   UNL     1       8.652   4.729  18.724  0.00  0.00    +0.000 F 
ENDBRANCH   4   7
ENDBRANCH   1   2
BRANCH   1  13
ATOM     11  C   UNL     1       2.081   3.834  18.069  0.00  0.00    +0.000 C 
ATOM     12  O   UNL     1       1.708   4.883  17.545  0.00  0.00    +0.000 OA
ATOM     13  N   UNL     1       3.170   3.116  17.581  0.00  0.00    +0.000 N 
ATOM     14  C   UNL     1       3.644   1.844  18.113  0.00  0.00    +0.000 C 
BRANCH  11  15
ATOM     15  C   UNL     1       1.378   3.257  19.293  0.00  0.00    +0.000 C 
BRANCH  15  17
ATOM     16  C   UNL     1       1.683   5.113  20.946  0.00  0.00    +0.000 C 
ATOM     17  C   UNL     1       1.997   3.643  20.647  0.00  0.00    +0.000 C 
ATOM     18  C   UNL     1       1.479   2.778  21.800  0.00  0.00    +0.000 C 
ENDBRANCH  15  17
ENDBRANCH  11  15
ENDBRANCH   1  13
TORSDOF 5
ENDMDL
MODEL 9
REMARK VINA RESULT:      -6.2      4.034      6.379
REMARK  Name = 
REMARK  8 active torsions:
REMARK  status: ('A' for Active; 'I' for Inactive)
REMARK    1  A    between atoms: C_1  and  C_2
REMARK    2  A    between atoms: C_2  and  C_3
REMARK    3  A    between atoms: C_2  and  C_4
REMARK    4  A    between atoms: C_4  and  C_5
REMARK    5  A    between atoms: N_7  and  C_8
REMARK    6  A    between atoms: N_7  and  C_9
REMARK    7  A    between atoms: C_9  and  C_10
REMARK    8  A    between atoms: C_12  and  C_13
REMARK                            x       y       z     vdW  Elec       q    Type
REMARK                         _______ _______ _______ _____ _____    ______ ____
ROOT
ATOM      1  C   UNL     1       5.686   4.521  17.796  0.00  0.00    +0.000 C 
ENDROOT
BRANCH   1   2
ATOM      2  C   UNL     1       4.430   3.982  18.432  0.00  0.00    +0.000 A 
ATOM      3  N   UNL     1       3.719   4.627  19.339  0.00  0.00    +0.000 NA
ATOM      4  C   UNL     1       2.611   3.874  19.735  0.00  0.00    +0.000 A 
ATOM      5  C   UNL     1       2.488   2.668  19.069  0.00  0.00    +0.000 A 
ATOM      6  S   UNL     1       3.750   2.480  17.931  0.00  0.00    +0.000 S 
BRANCH   4   7
ATOM      7  C   UNL     1       1.660   4.374  20.784  0.00  0.00    +0.000 C 
ATOM      8  F   UNL     1       1.815   5.689  21.081  0.00  0.00    +0.000 F 
ATOM      9  F   UNL     1       0.365   4.211  20.393  0.00  0.00    +0.000 F 
ATOM     10  F   UNL     1       1.794   3.685  21.950  0.00  0.00    +0.000 F 
ENDBRANCH   4   7
ENDBRANCH   1   2
BRANCH   1  13
ATOM     11  C   UNL     1       5.801   4.102  15.385  0.00  0.00    +0.000 C 
ATOM     12  O   UNL     1       6.170   2.950  15.605  0.00  0.00    +0.000 OA
ATOM     13  N   UNL     1       5.475   4.978  16.417  0.00  0.00    +0.000 N 
ATOM     14  C   UNL     1       4.985   6.340  16.239  0.00  0.00    +0.000 C 
BRANCH  11  15
ATOM     15  C   UNL     1       5.687   4.648  13.966  0.00  0.00    +0.000 C 
BRANCH  15  17
ATOM     16  C   UNL     1       4.997   3.305  11.968  0.00  0.00    +0.000 C 
ATOM     17  C   UNL     1       6.181   3.702  12.857  0.00  0.00    +0.000 C 
ATOM     18  C   UNL     1       7.270   4.333  11.986  0.00  0.00    +0.000 C 
ENDBRANCH  15  17
ENDBRANCH  11  15
ENDBRANCH   1  13
TORSDOF 5
ENDMDL
