MODEL 1
REMARK VINA RESULT:      -8.3      0.000      0.000
REMARK  Name = 
REMARK  4 active torsions:
REMARK  status: ('A' for Active; 'I' for Inactive)
REMARK    1  A    between atoms: C_5  and  C_6
REMARK    2  A    between atoms: C_6  and  S_7
REMARK    3  A    between atoms: S_7  and  C_8
REMARK    4  A    between atoms: N_16  and  C_17
REMARK                            x       y       z     vdW  Elec       q    Type
REMARK                         _______ _______ _______ _____ _____    ______ ____
ROOT
ATOM      1  C   UNL     1       7.066   6.197  17.540  0.00  0.00    +0.000 A 
ATOM      2  N   UNL     1       7.417   5.914  16.256  0.00  0.00    +0.000 NA
ATOM      3  C   UNL     1       6.588   5.163  15.515  0.00  0.00    +0.000 A 
ATOM      4  N   UNL     1       5.411   4.632  15.881  0.00  0.00    +0.000 NA
ATOM      5  C   UNL     1       5.090   4.944  17.145  0.00  0.00    +0.000 A 
ATOM      6  C   UNL     1       5.851   5.702  18.036  0.00  0.00    +0.000 A 
ATOM      7  N   UNL     1       5.199   5.796  19.247  0.00  0.00    +0.000 NA
ATOM      8  C   UNL     1       4.078   5.123  19.092  0.00  0.00    +0.000 A 
ATOM      9  N   UNL     1       3.950   4.608  17.823  0.00  0.00    +0.000 N 
ENDROOT
BRANCH   9  10
ATOM     10  C   UNL     1       2.832   3.776  17.399  0.00  0.00    +0.000 C 
ATOM     11  C   UNL     1       1.430   4.025  17.975  0.00  0.00    +0.000 C 
ATOM     12  C   UNL     1       1.250   3.461  19.380  0.00  0.00    +0.000 C 
ATOM     13  C   UNL     1       1.734   2.021  19.454  0.00  0.00    +0.000 C 
ATOM     14  C   UNL     1       3.124   1.876  18.853  0.00  0.00    +0.000 C 
ATOM     15  O   UNL     1       3.187   2.385  17.521  0.00  0.00    +0.000 OA
ENDBRANCH   9  10
BRANCH   1  16
ATOM     16  S   UNL     1       8.129   7.305  18.420  0.00  0.00    +0.000 S 
BRANCH  16  17
ATOM     17  C   UNL     1       7.902   8.887  17.546  0.00  0.00    +0.000 C 
BRANCH  17  22
ATOM     18 CL   UNL     1      10.662  13.349  20.552  0.00  0.00    +0.000 Cl
ATOM     19  C   UNL     1       9.867  12.085  19.696  0.00  0.00    +0.000 A 
ATOM     20  C   UNL     1       9.788  10.813  20.257  0.00  0.00    +0.000 A 
ATOM     21  C   UNL     1       9.150   9.785  19.557  0.00  0.00    +0.000 A 
ATOM     22  C   UNL     1       8.591  10.018  18.289  0.00  0.00    +0.000 A 
ATOM     23  C   UNL     1       8.667  11.307  17.744  0.00  0.00    +0.000 A 
ATOM     24  C   UNL     1       9.307  12.338  18.444  0.00  0.00    +0.000 A 
ENDBRANCH  17  22
ENDBRANCH  16  17
ENDBRANCH   1  16
TORSDOF 4
ENDMDL
MODEL 2
REMARK VINA RESULT:      -8.0      1.729      2.287
REMARK  Name = 
REMARK  4 active torsions:
REMARK  status: ('A' for Active; 'I' for Inactive)
REMARK    1  A    between atoms: C_5  and  C_6
REMARK    2  A    between atoms: C_6  and  S_7
REMARK    3  A    between atoms: S_7  and  C_8
REMARK    4  A    between atoms: N_16  and  C_17
REMARK                            x       y       z     vdW  Elec       q    Type
REMARK                         _______ _______ _______ _____ _____    ______ ____
ROOT
ATOM      1  C   UNL     1       7.433   7.278  18.122  0.00  0.00    +0.000 A 
ATOM      2  N   UNL     1       8.271   6.645  18.987  0.00  0.00    +0.000 NA
ATOM      3  C   UNL     1       7.932   5.425  19.432  0.00  0.00    +0.000 A 
ATOM      4  N   UNL     1       6.834   4.715  19.127  0.00  0.00    +0.000 NA
ATOM      5  C   UNL     1       6.040   5.363  18.262  0.00  0.00    +0.000 A 
ATOM      6  C   UNL     1       6.255   6.632  17.723  0.00  0.00    +0.000 A 
ATOM      7  N   UNL     1       5.215   6.966  16.882  0.00  0.00    +0.000 NA
ATOM      8  C   UNL     1       4.401   5.930  16.906  0.00  0.00    +0.000 A 
ATOM      9  N   UNL     1       4.871   4.917  17.709  0.00  0.00    +0.000 N 
ENDROOT
BRANCH   9  10
ATOM     10  C   UNL     1       4.142   3.680  17.957  0.00  0.00    +0.000 C 
ATOM     11  C   UNL     1       2.822   3.408  17.221  0.00  0.00    +0.000 C 
ATOM     12  C   UNL     1       1.638   4.166  17.813  0.00  0.00    +0.000 C 
ATOM     13  C   UNL     1       1.584   3.996  19.323  0.00  0.00    +0.000 C 
ATOM     14  C   UNL     1       2.938   4.278  19.957  0.00  0.00    +0.000 C 
ATOM     15  O   UNL     1       3.977   3.490  19.376  0.00  0.00    +0.000 OA
ENDBRANCH   9  10
BRANCH   1  16
ATOM     16  S   UNL     1       8.002   8.820  17.464  0.00  0.00    +0.000 S 
BRANCH  16  17
ATOM     17  C   UNL     1       8.866   9.585  18.874  0.00  0.00    +0.000 C 
BRANCH  17  22
ATOM     18 CL   UNL     1      11.496  14.784  17.256  0.00  0.00    +0.000 Cl
ATOM     19  C   UNL     1      10.740  13.310  17.723  0.00  0.00    +0.000 A 
ATOM     20  C   UNL     1      11.499  12.298  18.306  0.00  0.00    +0.000 A 
ATOM     21  C   UNL     1      10.886  11.098  18.677  0.00  0.00    +0.000 A 
ATOM     22  C   UNL     1       9.512  10.897  18.463  0.00  0.00    +0.000 A 
ATOM     23  C   UNL     1       8.759  11.930  17.889  0.00  0.00    +0.000 A 
ATOM     24  C   UNL     1       9.372  13.133  17.516  0.00  0.00    +0.000 A 
ENDBRANCH  17  22
ENDBRANCH  16  17
ENDBRANCH   1  16
TORSDOF 4
ENDMDL
MODEL 3
REMARK VINA RESULT:      -7.9      0.957      1.497
REMARK  Name = 
REMARK  4 active torsions:
REMARK  status: ('A' for Active; 'I' for Inactive)
REMARK    1  A    between atoms: C_5  and  C_6
REMARK    2  A    between atoms: C_6  and  S_7
REMARK    3  A    between atoms: S_7  and  C_8
REMARK    4  A    between atoms: N_16  and  C_17
REMARK                            x       y       z     vdW  Elec       q    Type
REMARK                         _______ _______ _______ _____ _____    ______ ____
ROOT
ATOM      1  C   UNL     1       6.906   6.565  17.683  0.00  0.00    +0.000 A 
ATOM      2  N   UNL     1       6.507   6.941  16.438  0.00  0.00    +0.000 NA
ATOM      3  C   UNL     1       5.511   6.259  15.851  0.00  0.00    +0.000 A 
ATOM      4  N   UNL     1       4.827   5.215  16.345  0.00  0.00    +0.000 NA
ATOM      5  C   UNL     1       5.236   4.883  17.578  0.00  0.00    +0.000 A 
ATOM      6  C   UNL     1       6.260   5.489  18.308  0.00  0.00    +0.000 A 
ATOM      7  N   UNL     1       6.398   4.863  19.529  0.00  0.00    +0.000 NA
ATOM      8  C   UNL     1       5.484   3.914  19.540  0.00  0.00    +0.000 A 
ATOM      9  N   UNL     1       4.732   3.901  18.388  0.00  0.00    +0.000 N 
ENDROOT
BRANCH   9  10
ATOM     10  C   UNL     1       3.690   2.921  18.115  0.00  0.00    +0.000 C 
ATOM     11  C   UNL     1       2.485   3.307  17.246  0.00  0.00    +0.000 C 
ATOM     12  C   UNL     1       1.443   4.131  17.996  0.00  0.00    +0.000 C 
ATOM     13  C   UNL     1       1.099   3.488  19.330  0.00  0.00    +0.000 C 
ATOM     14  C   UNL     1       2.357   3.136  20.111  0.00  0.00    +0.000 C 
ATOM     15  O   UNL     1       3.250   2.323  19.350  0.00  0.00    +0.000 OA
ENDBRANCH   9  10
BRANCH   1  16
ATOM     16  S   UNL     1       8.124   7.588  18.460  0.00  0.00    +0.000 S 
BRANCH  16  17
ATOM     17  C   UNL     1       7.944   9.183  17.598  0.00  0.00    +0.000 C 
BRANCH  17  22
ATOM     18 CL   UNL     1      10.858  13.608  20.511  0.00  0.00    +0.000 Cl
ATOM     19  C   UNL     1      10.038  12.342  19.682  0.00  0.00    +0.000 A 
ATOM     20  C   UNL     1       9.478  12.585  18.430  0.00  0.00    +0.000 A 
ATOM     21  C   UNL     1       8.804  11.558  17.762  0.00  0.00    +0.000 A 
ATOM     22  C   UNL     1       8.680  10.284  18.341  0.00  0.00    +0.000 A 
ATOM     23  C   UNL     1       9.262  10.052  19.595  0.00  0.00    +0.000 A 
ATOM     24  C   UNL     1       9.936  11.080  20.266  0.00  0.00    +0.000 A 
ENDBRANCH  17  22
ENDBRANCH  16  17
ENDBRANCH   1  16
TORSDOF 4
ENDMDL
MODEL 4
REMARK VINA RESULT:      -7.7      6.628      8.867
REMARK  Name = 
REMARK  4 active torsions:
REMARK  status: ('A' for Active; 'I' for Inactive)
REMARK    1  A    between atoms: C_5  and  C_6
REMARK    2  A    between atoms: C_6  and  S_7
REMARK    3  A    between atoms: S_7  and  C_8
REMARK    4  A    between atoms: N_16  and  C_17
REMARK                            x       y       z     vdW  Elec       q    Type
REMARK                         _______ _______ _______ _____ _____    ______ ____
ROOT
ATOM      1  C   UNL     1       0.547   9.930  19.770  0.00  0.00    +0.000 A 
ATOM      2  N   UNL     1       0.148   9.686  21.048  0.00  0.00    +0.000 NA
ATOM      3  C   UNL     1       0.597   8.578  21.659  0.00  0.00    +0.000 A 
ATOM      4  N   UNL     1       1.419   7.641  21.161  0.00  0.00    +0.000 NA
ATOM      5  C   UNL     1       1.803   7.923  19.908  0.00  0.00    +0.000 A 
ATOM      6  C   UNL     1       1.415   9.025  19.144  0.00  0.00    +0.000 A 
ATOM      7  N   UNL     1       2.006   8.965  17.901  0.00  0.00    +0.000 NA
ATOM      8  C   UNL     1       2.733   7.867  17.913  0.00  0.00    +0.000 A 
ATOM      9  N   UNL     1       2.667   7.211  19.120  0.00  0.00    +0.000 N 
ENDROOT
BRANCH   9  10
ATOM     10  C   UNL     1       3.331   5.942  19.388  0.00  0.00    +0.000 C 
ATOM     11  C   UNL     1       4.486   5.479  18.488  0.00  0.00    +0.000 C 
ATOM     12  C   UNL     1       4.016   4.894  17.160  0.00  0.00    +0.000 C 
ATOM     13  C   UNL     1       2.913   3.869  17.378  0.00  0.00    +0.000 C 
ATOM     14  C   UNL     1       1.823   4.419  18.286  0.00  0.00    +0.000 C 
ATOM     15  O   UNL     1       2.348   4.898  19.524  0.00  0.00    +0.000 OA
ENDBRANCH   9  10
BRANCH   1  16
ATOM     16  S   UNL     1       0.036  11.474  19.070  0.00  0.00    +0.000 S 
BRANCH  16  17
ATOM     17  C   UNL     1      -1.781  11.404  19.181  0.00  0.00    +0.000 C 
BRANCH  17  22
ATOM     18 CL   UNL     1      -4.245   9.868  13.877  0.00  0.00    +0.000 Cl
ATOM     19  C   UNL     1      -3.544  10.295  15.390  0.00  0.00    +0.000 A 
ATOM     20  C   UNL     1      -4.167  11.243  16.198  0.00  0.00    +0.000 A 
ATOM     21  C   UNL     1      -3.592  11.595  17.422  0.00  0.00    +0.000 A 
ATOM     22  C   UNL     1      -2.388  11.007  17.847  0.00  0.00    +0.000 A 
ATOM     23  C   UNL     1      -1.782  10.044  17.029  0.00  0.00    +0.000 A 
ATOM     24  C   UNL     1      -2.356   9.691  15.801  0.00  0.00    +0.000 A 
ENDBRANCH  17  22
ENDBRANCH  16  17
ENDBRANCH   1  16
TORSDOF 4
ENDMDL
MODEL 5
REMARK VINA RESULT:      -7.7      1.100      1.457
REMARK  Name = 
REMARK  4 active torsions:
REMARK  status: ('A' for Active; 'I' for Inactive)
REMARK    1  A    between atoms: C_5  and  C_6
REMARK    2  A    between atoms: C_6  and  S_7
REMARK    3  A    between atoms: S_7  and  C_8
REMARK    4  A    between atoms: N_16  and  C_17
REMARK                            x       y       z     vdW  Elec       q    Type
REMARK                         _______ _______ _______ _____ _____    ______ ____
ROOT
ATOM      1  C   UNL     1       6.649   6.839  17.383  0.00  0.00    +0.000 A 
ATOM      2  N   UNL     1       7.593   5.915  17.059  0.00  0.00    +0.000 NA
ATOM      3  C   UNL     1       7.223   4.628  16.957  0.00  0.00    +0.000 A 
ATOM      4  N   UNL     1       5.999   4.109  17.137  0.00  0.00    +0.000 NA
ATOM      5  C   UNL     1       5.092   5.050  17.439  0.00  0.00    +0.000 A 
ATOM      6  C   UNL     1       5.328   6.417  17.589  0.00  0.00    +0.000 A 
ATOM      7  N   UNL     1       4.154   7.062  17.914  0.00  0.00    +0.000 NA
ATOM      8  C   UNL     1       3.236   6.118  17.953  0.00  0.00    +0.000 A 
ATOM      9  N   UNL     1       3.750   4.879  17.645  0.00  0.00    +0.000 N 
ENDROOT
BRANCH   9  10
ATOM     10  C   UNL     1       2.965   3.652  17.666  0.00  0.00    +0.000 C 
ATOM     11  C   UNL     1       1.472   3.704  18.018  0.00  0.00    +0.000 C 
ATOM     12  C   UNL     1       1.211   3.837  19.514  0.00  0.00    +0.000 C 
ATOM     13  C   UNL     1       2.026   2.822  20.300  0.00  0.00    +0.000 C 
ATOM     14  C   UNL     1       3.487   2.841  19.875  0.00  0.00    +0.000 C 
ATOM     15  O   UNL     1       3.637   2.660  18.467  0.00  0.00    +0.000 OA
ENDBRANCH   9  10
BRANCH   1  16
ATOM     16  S   UNL     1       7.168   8.532  17.365  0.00  0.00    +0.000 S 
BRANCH  16  17
ATOM     17  C   UNL     1       8.545   8.561  18.558  0.00  0.00    +0.000 C 
BRANCH  17  22
ATOM     18 CL   UNL     1      10.267  14.257  19.631  0.00  0.00    +0.000 Cl
ATOM     19  C   UNL     1       9.787  12.632  19.327  0.00  0.00    +0.000 A 
ATOM     20  C   UNL     1       9.257  12.288  18.087  0.00  0.00    +0.000 A 
ATOM     21  C   UNL     1       8.859  10.969  17.845  0.00  0.00    +0.000 A 
ATOM     22  C   UNL     1       8.983   9.987  18.842  0.00  0.00    +0.000 A 
ATOM     23  C   UNL     1       9.532  10.347  20.080  0.00  0.00    +0.000 A 
ATOM     24  C   UNL     1       9.930  11.667  20.325  0.00  0.00    +0.000 A 
ENDBRANCH  17  22
ENDBRANCH  16  17
ENDBRANCH   1  16
TORSDOF 4
ENDMDL
MODEL 6
REMARK VINA RESULT:      -7.6      1.209      1.236
REMARK  Name = 
REMARK  4 active torsions:
REMARK  status: ('A' for Active; 'I' for Inactive)
REMARK    1  A    between atoms: C_5  and  C_6
REMARK    2  A    between atoms: C_6  and  S_7
REMARK    3  A    between atoms: S_7  and  C_8
REMARK    4  A    between atoms: N_16  and  C_17
REMARK                            x       y       z     vdW  Elec       q    Type
REMARK                         _______ _______ _______ _____ _____    ______ ____
ROOT
ATOM      1  C   UNL     1       6.815   6.852  17.531  0.00  0.00    +0.000 A 
ATOM      2  N   UNL     1       7.773   5.896  17.398  0.00  0.00    +0.000 NA
ATOM      3  C   UNL     1       7.396   4.608  17.376  0.00  0.00    +0.000 A 
ATOM      4  N   UNL     1       6.151   4.115  17.469  0.00  0.00    +0.000 NA
ATOM      5  C   UNL     1       5.233   5.085  17.583  0.00  0.00    +0.000 A 
ATOM      6  C   UNL     1       5.473   6.459  17.631  0.00  0.00    +0.000 A 
ATOM      7  N   UNL     1       4.281   7.139  17.765  0.00  0.00    +0.000 NA
ATOM      8  C   UNL     1       3.350   6.207  17.791  0.00  0.00    +0.000 A 
ATOM      9  N   UNL     1       3.873   4.943  17.657  0.00  0.00    +0.000 N 
ENDROOT
BRANCH   9  10
ATOM     10  C   UNL     1       3.072   3.727  17.707  0.00  0.00    +0.000 C 
ATOM     11  C   UNL     1       1.565   3.815  17.990  0.00  0.00    +0.000 C 
ATOM     12  C   UNL     1       1.243   4.028  19.465  0.00  0.00    +0.000 C 
ATOM     13  C   UNL     1       2.009   3.045  20.336  0.00  0.00    +0.000 C 
ATOM     14  C   UNL     1       3.487   3.025  19.975  0.00  0.00    +0.000 C 
ATOM     15  O   UNL     1       3.695   2.770  18.585  0.00  0.00    +0.000 OA
ENDBRANCH   9  10
BRANCH   1  16
ATOM     16  S   UNL     1       7.360   8.533  17.413  0.00  0.00    +0.000 S 
BRANCH  16  17
ATOM     17  C   UNL     1       8.630   8.654  18.713  0.00  0.00    +0.000 C 
BRANCH  17  22
ATOM     18 CL   UNL     1      10.360  14.383  19.577  0.00  0.00    +0.000 Cl
ATOM     19  C   UNL     1       9.857  12.756  19.329  0.00  0.00    +0.000 A 
ATOM     20  C   UNL     1      10.023  11.818  20.345  0.00  0.00    +0.000 A 
ATOM     21  C   UNL     1       9.623  10.495  20.139  0.00  0.00    +0.000 A 
ATOM     22  C   UNL     1       9.059  10.096  18.915  0.00  0.00    +0.000 A 
ATOM     23  C   UNL     1       8.885  11.056  17.908  0.00  0.00    +0.000 A 
ATOM     24  C   UNL     1       9.287  12.382  18.112  0.00  0.00    +0.000 A 
ENDBRANCH  17  22
ENDBRANCH  16  17
ENDBRANCH   1  16
TORSDOF 4
ENDMDL
MODEL 7
REMARK VINA RESULT:      -7.2      9.148     10.586
REMARK  Name = 
REMARK  4 active torsions:
REMARK  status: ('A' for Active; 'I' for Inactive)
REMARK    1  A    between atoms: C_5  and  C_6
REMARK    2  A    between atoms: C_6  and  S_7
REMARK    3  A    between atoms: S_7  and  C_8
REMARK    4  A    between atoms: N_16  and  C_17
REMARK                            x       y       z     vdW  Elec       q    Type
REMARK                         _______ _______ _______ _____ _____    ______ ____
ROOT
ATOM      1  C   UNL     1      -1.688  11.330  18.302  0.00  0.00    +0.000 A 
ATOM      2  N   UNL     1      -1.756  10.585  17.166  0.00  0.00    +0.000 NA
ATOM      3  C   UNL     1      -2.965  10.301  16.657  0.00  0.00    +0.000 A 
ATOM      4  N   UNL     1      -4.165  10.668  17.135  0.00  0.00    +0.000 NA
ATOM      5  C   UNL     1      -4.058  11.413  18.244  0.00  0.00    +0.000 A 
ATOM      6  C   UNL     1      -2.878  11.780  18.892  0.00  0.00    +0.000 A 
ATOM      7  N   UNL     1      -3.171  12.536  20.007  0.00  0.00    +0.000 NA
ATOM      8  C   UNL     1      -4.484  12.630  20.029  0.00  0.00    +0.000 A 
ATOM      9  N   UNL     1      -5.071  11.988  18.964  0.00  0.00    +0.000 N 
ENDROOT
BRANCH   9  10
ATOM     10  C   UNL     1      -6.512  11.889  18.774  0.00  0.00    +0.000 C 
ATOM     11  C   UNL     1      -7.464  12.527  19.796  0.00  0.00    +0.000 C 
ATOM     12  C   UNL     1      -7.625  11.697  21.066  0.00  0.00    +0.000 C 
ATOM     13  C   UNL     1      -7.915  10.242  20.730  0.00  0.00    +0.000 C 
ATOM     14  C   UNL     1      -6.926   9.706  19.706  0.00  0.00    +0.000 C 
ATOM     15  O   UNL     1      -6.877  10.517  18.532  0.00  0.00    +0.000 OA
ENDBRANCH   9  10
BRANCH   1  16
ATOM     16  S   UNL     1      -0.066  11.789  18.845  0.00  0.00    +0.000 S 
BRANCH  16  17
ATOM     17  C   UNL     1       0.315  10.546  20.122  0.00  0.00    +0.000 C 
BRANCH  17  22
ATOM     18 CL   UNL     1       3.537   5.962  17.850  0.00  0.00    +0.000 Cl
ATOM     19  C   UNL     1       2.628   7.274  18.494  0.00  0.00    +0.000 A 
ATOM     20  C   UNL     1       2.195   7.231  19.817  0.00  0.00    +0.000 A 
ATOM     21  C   UNL     1       1.449   8.293  20.336  0.00  0.00    +0.000 A 
ATOM     22  C   UNL     1       1.126   9.403  19.538  0.00  0.00    +0.000 A 
ATOM     23  C   UNL     1       1.582   9.437  18.213  0.00  0.00    +0.000 A 
ATOM     24  C   UNL     1       2.329   8.374  17.690  0.00  0.00    +0.000 A 
ENDBRANCH  17  22
ENDBRANCH  16  17
ENDBRANCH   1  16
TORSDOF 4
ENDMDL
MODEL 8
REMARK VINA RESULT:      -7.2      1.361      1.837
REMARK  Name = 
REMARK  4 active torsions:
REMARK  status: ('A' for Active; 'I' for Inactive)
REMARK    1  A    between atoms: C_5  and  C_6
REMARK    2  A    between atoms: C_6  and  S_7
REMARK    3  A    between atoms: S_7  and  C_8
REMARK    4  A    between atoms: N_16  and  C_17
REMARK                            x       y       z     vdW  Elec       q    Type
REMARK                         _______ _______ _______ _____ _____    ______ ____
ROOT
ATOM      1  C   UNL     1       6.255   6.581  17.942  0.00  0.00    +0.000 A 
ATOM      2  N   UNL     1       5.464   7.372  17.169  0.00  0.00    +0.000 NA
ATOM      3  C   UNL     1       4.197   6.988  16.944  0.00  0.00    +0.000 A 
ATOM      4  N   UNL     1       3.581   5.885  17.396  0.00  0.00    +0.000 NA
ATOM      5  C   UNL     1       4.385   5.138  18.165  0.00  0.00    +0.000 A 
ATOM      6  C   UNL     1       5.719   5.402  18.479  0.00  0.00    +0.000 A 
ATOM      7  N   UNL     1       6.218   4.400  19.284  0.00  0.00    +0.000 NA
ATOM      8  C   UNL     1       5.217   3.561  19.457  0.00  0.00    +0.000 A 
ATOM      9  N   UNL     1       4.072   3.978  18.820  0.00  0.00    +0.000 N 
ENDROOT
BRANCH   9  10
ATOM     10  C   UNL     1       2.833   3.211  18.803  0.00  0.00    +0.000 C 
ATOM     11  C   UNL     1       1.482   3.937  18.880  0.00  0.00    +0.000 C 
ATOM     12  C   UNL     1       1.123   4.389  20.292  0.00  0.00    +0.000 C 
ATOM     13  C   UNL     1       1.307   3.255  21.289  0.00  0.00    +0.000 C 
ATOM     14  C   UNL     1       2.669   2.596  21.127  0.00  0.00    +0.000 C 
ATOM     15  O   UNL     1       2.898   2.161  19.787  0.00  0.00    +0.000 OA
ENDBRANCH   9  10
BRANCH   1  16
ATOM     16  S   UNL     1       7.867   7.209  18.318  0.00  0.00    +0.000 S 
BRANCH  16  17
ATOM     17  C   UNL     1       7.921   8.791  17.415  0.00  0.00    +0.000 C 
BRANCH  17  22
ATOM     18 CL   UNL     1      10.543  13.127  20.715  0.00  0.00    +0.000 Cl
ATOM     19  C   UNL     1       9.806  11.887  19.776  0.00  0.00    +0.000 A 
ATOM     20  C   UNL     1       9.330  12.176  18.500  0.00  0.00    +0.000 A 
ATOM     21  C   UNL     1       8.724  11.169  17.743  0.00  0.00    +0.000 A 
ATOM     22  C   UNL     1       8.583   9.869  18.255  0.00  0.00    +0.000 A 
ATOM     23  C   UNL     1       9.080   9.591  19.536  0.00  0.00    +0.000 A 
ATOM     24  C   UNL     1       9.687  10.598  20.297  0.00  0.00    +0.000 A 
ENDBRANCH  17  22
ENDBRANCH  16  17
ENDBRANCH   1  16
TORSDOF 4
ENDMDL
MODEL 9
REMARK VINA RESULT:      -7.2      6.054      7.839
REMARK  Name = 
REMARK  4 active torsions:
REMARK  status: ('A' for Active; 'I' for Inactive)
REMARK    1  A    between atoms: C_5  and  C_6
REMARK    2  A    between atoms: C_6  and  S_7
REMARK    3  A    between atoms: S_7  and  C_8
REMARK    4  A    between atoms: N_16  and  C_17
REMARK                            x       y       z     vdW  Elec       q    Type
REMARK                         _______ _______ _______ _____ _____    ______ ____
ROOT
ATOM      1  C   UNL     1       1.858   8.424  19.276  0.00  0.00    +0.000 A 
ATOM      2  N   UNL     1       2.502   8.779  18.132  0.00  0.00    +0.000 NA
ATOM      3  C   UNL     1       3.329   7.890  17.559  0.00  0.00    +0.000 A 
ATOM      4  N   UNL     1       3.617   6.648  17.978  0.00  0.00    +0.000 NA
ATOM      5  C   UNL     1       2.953   6.327  19.098  0.00  0.00    +0.000 A 
ATOM      6  C   UNL     1       2.073   7.145  19.808  0.00  0.00    +0.000 A 
ATOM      7  N   UNL     1       1.597   6.472  20.913  0.00  0.00    +0.000 NA
ATOM      8  C   UNL     1       2.164   5.284  20.869  0.00  0.00    +0.000 A 
ATOM      9  N   UNL     1       2.977   5.135  19.769  0.00  0.00    +0.000 N 
ENDROOT
BRANCH   9  10
ATOM     10  C   UNL     1       3.768   3.940  19.505  0.00  0.00    +0.000 C 
ATOM     11  C   UNL     1       4.264   3.650  18.082  0.00  0.00    +0.000 C 
ATOM     12  C   UNL     1       3.182   3.073  17.175  0.00  0.00    +0.000 C 
ATOM     13  C   UNL     1       2.459   1.921  17.856  0.00  0.00    +0.000 C 
ATOM     14  C   UNL     1       2.015   2.304  19.260  0.00  0.00    +0.000 C 
ATOM     15  O   UNL     1       3.101   2.786  20.052  0.00  0.00    +0.000 OA
ENDBRANCH   9  10
BRANCH   1  16
ATOM     16  S   UNL     1       0.677   9.584  19.905  0.00  0.00    +0.000 S 
BRANCH  16  17
ATOM     17  C   UNL     1       0.295  10.621  18.456  0.00  0.00    +0.000 C 
BRANCH  17  22
ATOM     18 CL   UNL     1      -5.680  11.131  17.688  0.00  0.00    +0.000 Cl
ATOM     19  C   UNL     1      -3.978  10.997  17.904  0.00  0.00    +0.000 A 
ATOM     20  C   UNL     1      -3.258  10.068  17.158  0.00  0.00    +0.000 A 
ATOM     21  C   UNL     1      -1.877   9.954  17.340  0.00  0.00    +0.000 A 
ATOM     22  C   UNL     1      -1.205  10.762  18.274  0.00  0.00    +0.000 A 
ATOM     23  C   UNL     1      -1.943  11.701  19.007  0.00  0.00    +0.000 A 
ATOM     24  C   UNL     1      -3.327  11.816  18.826  0.00  0.00    +0.000 A 
ENDBRANCH  17  22
ENDBRANCH  16  17
ENDBRANCH   1  16
TORSDOF 4
ENDMDL
