MODEL 1
REMARK VINA RESULT:      -7.2      0.000      0.000
REMARK  Name = 
REMARK  2 active torsions:
REMARK  status: ('A' for Active; 'I' for Inactive)
REMARK    1  A    between atoms: N_11  and  C_12
REMARK    2  A    between atoms: N_15  and  C_16
REMARK                            x       y       z     vdW  Elec       q    Type
REMARK                         _______ _______ _______ _____ _____    ______ ____
ROOT
ATOM      1  C   UNL     1      -0.499  10.627  19.944  0.00  0.00    +0.000 C 
ATOM      2  C   UNL     1      -0.288  11.650  18.810  0.00  0.00    +0.000 C 
ATOM      3  C   UNL     1       0.607  12.854  19.175  0.00  0.00    +0.000 C 
ATOM      4  N   UNL     1       0.351  13.483  20.480  0.00  0.00    +0.000 NA
ATOM      5  C   UNL     1      -0.052  12.540  21.511  0.00  0.00    +0.000 C 
ATOM      6  C   UNL     1      -1.068  11.500  21.068  0.00  0.00    +0.000 C 
ENDROOT
BRANCH   1  17
ATOM      7  O   UNL     1       1.807   9.570  22.702  0.00  0.00    +0.000 OA
ATOM      8  S   UNL     1       0.731   9.044  21.907  0.00  0.00    +0.000 S 
ATOM      9  O   UNL     1      -0.600   8.854  22.419  0.00  0.00    +0.000 OA
ATOM     10  N   UNL     1       1.237   7.525  21.373  0.00  0.00    +0.000 N 
ATOM     11  C   UNL     1       1.811   7.725  20.099  0.00  0.00    +0.000 A 
ATOM     12  C   UNL     1       2.581   6.749  19.476  0.00  0.00    +0.000 A 
ATOM     13  C   UNL     1       3.027   7.008  18.187  0.00  0.00    +0.000 A 
ATOM     14  C   UNL     1       2.668   8.203  17.550  0.00  0.00    +0.000 A 
ATOM     15  C   UNL     1       1.873   9.164  18.191  0.00  0.00    +0.000 A 
ATOM     16  C   UNL     1       1.425   8.918  19.477  0.00  0.00    +0.000 A 
ATOM     17  N   UNL     1       0.725   9.841  20.356  0.00  0.00    +0.000 N 
ATOM     18  H   UNL     1       1.789   7.038  22.077  0.00  0.00    +0.000 HD
ENDBRANCH   1  17
BRANCH   4  19
ATOM     19  C   UNL     1       1.395  14.479  20.885  0.00  0.00    +0.000 C 
ATOM     20  C   UNL     1       0.942  15.732  21.679  0.00  0.00    +0.000 C 
ATOM     21  C   UNL     1       0.313  16.847  20.842  0.00  0.00    +0.000 C 
ATOM     22  C   UNL     1       1.189  17.272  19.656  0.00  0.00    +0.000 C 
ATOM     23  C   UNL     1       0.413  18.205  18.706  0.00  0.00    +0.000 C 
ATOM     24  C   UNL     1       1.258  18.630  17.500  0.00  0.00    +0.000 C 
ATOM     25  C   UNL     1       1.878  17.438  16.773  0.00  0.00    +0.000 C 
ATOM     26  C   UNL     1       2.653  16.535  17.735  0.00  0.00    +0.000 C 
ATOM     27  C   UNL     1       1.713  16.070  18.853  0.00  0.00    +0.000 C 
ATOM     28  C   UNL     1       2.329  14.976  19.743  0.00  0.00    +0.000 C 
ENDBRANCH   4  19
TORSDOF 2
ENDMDL
MODEL 2
REMARK VINA RESULT:      -7.0      1.109      1.378
REMARK  Name = 
REMARK  2 active torsions:
REMARK  status: ('A' for Active; 'I' for Inactive)
REMARK    1  A    between atoms: N_11  and  C_12
REMARK    2  A    between atoms: N_15  and  C_16
REMARK                            x       y       z     vdW  Elec       q    Type
REMARK                         _______ _______ _______ _____ _____    ______ ____
ROOT
ATOM      1  C   UNL     1       0.391   9.761  19.014  0.00  0.00    +0.000 C 
ATOM      2  C   UNL     1       0.945  10.599  17.844  0.00  0.00    +0.000 C 
ATOM      3  C   UNL     1       1.872  11.763  18.256  0.00  0.00    +0.000 C 
ATOM      4  N   UNL     1       1.420  12.583  19.392  0.00  0.00    +0.000 NA
ATOM      5  C   UNL     1       0.710  11.825  20.410  0.00  0.00    +0.000 C 
ATOM      6  C   UNL     1      -0.300  10.823  19.876  0.00  0.00    +0.000 C 
ENDROOT
BRANCH   1  17
ATOM      7  O   UNL     1       1.905   8.861  22.321  0.00  0.00    +0.000 OA
ATOM      8  S   UNL     1       0.988   8.328  21.350  0.00  0.00    +0.000 S 
ATOM      9  O   UNL     1      -0.436   8.297  21.554  0.00  0.00    +0.000 OA
ATOM     10  N   UNL     1       1.449   6.725  21.097  0.00  0.00    +0.000 N 
ATOM     11  C   UNL     1       2.309   6.733  19.978  0.00  0.00    +0.000 A 
ATOM     12  C   UNL     1       3.099   5.638  19.647  0.00  0.00    +0.000 A 
ATOM     13  C   UNL     1       3.845   5.712  18.480  0.00  0.00    +0.000 A 
ATOM     14  C   UNL     1       3.758   6.850  17.665  0.00  0.00    +0.000 A 
ATOM     15  C   UNL     1       2.939   7.934  18.009  0.00  0.00    +0.000 A 
ATOM     16  C   UNL     1       2.192   7.872  19.172  0.00  0.00    +0.000 A 
ATOM     17  N   UNL     1       1.408   8.939  19.772  0.00  0.00    +0.000 N 
ATOM     18  H   UNL     1       1.778   6.282  21.953  0.00  0.00    +0.000 HD
ENDBRANCH   1  17
BRANCH   4  19
ATOM     19  C   UNL     1       2.461  13.534  19.899  0.00  0.00    +0.000 C 
ATOM     20  C   UNL     1       2.179  14.287  21.226  0.00  0.00    +0.000 C 
ATOM     21  C   UNL     1       1.245  15.492  21.111  0.00  0.00    +0.000 C 
ATOM     22  C   UNL     1       1.684  16.490  20.030  0.00  0.00    +0.000 C 
ATOM     23  C   UNL     1       0.589  17.543  19.777  0.00  0.00    +0.000 C 
ATOM     24  C   UNL     1       0.993  18.542  18.687  0.00  0.00    +0.000 C 
ATOM     25  C   UNL     1       1.448  17.852  17.403  0.00  0.00    +0.000 C 
ATOM     26  C   UNL     1       2.544  16.820  17.679  0.00  0.00    +0.000 C 
ATOM     27  C   UNL     1       2.027  15.799  18.699  0.00  0.00    +0.000 C 
ATOM     28  C   UNL     1       2.964  14.592  18.873  0.00  0.00    +0.000 C 
ENDBRANCH   4  19
TORSDOF 2
ENDMDL
MODEL 3
REMARK VINA RESULT:      -6.9      4.180      6.614
REMARK  Name = 
REMARK  2 active torsions:
REMARK  status: ('A' for Active; 'I' for Inactive)
REMARK    1  A    between atoms: N_11  and  C_12
REMARK    2  A    between atoms: N_15  and  C_16
REMARK                            x       y       z     vdW  Elec       q    Type
REMARK                         _______ _______ _______ _____ _____    ______ ____
ROOT
ATOM      1  C   UNL     1      -0.917  12.933  22.864  0.00  0.00    +0.000 C 
ATOM      2  C   UNL     1      -2.114  11.974  23.014  0.00  0.00    +0.000 C 
ATOM      3  C   UNL     1      -3.442  12.486  22.416  0.00  0.00    +0.000 C 
ATOM      4  N   UNL     1      -3.786  13.888  22.704  0.00  0.00    +0.000 NA
ATOM      5  C   UNL     1      -2.630  14.768  22.767  0.00  0.00    +0.000 C 
ATOM      6  C   UNL     1      -1.440  14.211  23.529  0.00  0.00    +0.000 C 
ENDROOT
BRANCH   1  17
ATOM      7  O   UNL     1       0.356  15.338  20.288  0.00  0.00    +0.000 OA
ATOM      8  S   UNL     1       0.844  14.316  21.173  0.00  0.00    +0.000 S 
ATOM      9  O   UNL     1       1.581  14.607  22.374  0.00  0.00    +0.000 OA
ATOM     10  N   UNL     1       1.852  13.330  20.245  0.00  0.00    +0.000 N 
ATOM     11  C   UNL     1       1.049  12.265  19.786  0.00  0.00    +0.000 A 
ATOM     12  C   UNL     1       1.466  11.410  18.772  0.00  0.00    +0.000 A 
ATOM     13  C   UNL     1       0.642  10.340  18.453  0.00  0.00    +0.000 A 
ATOM     14  C   UNL     1      -0.546  10.134  19.168  0.00  0.00    +0.000 A 
ATOM     15  C   UNL     1      -0.937  10.998  20.200  0.00  0.00    +0.000 A 
ATOM     16  C   UNL     1      -0.125  12.070  20.526  0.00  0.00    +0.000 A 
ATOM     17  N   UNL     1      -0.423  13.150  21.452  0.00  0.00    +0.000 N 
ATOM     18  H   UNL     1       2.380  13.864  19.558  0.00  0.00    +0.000 HD
ENDBRANCH   1  17
BRANCH   4  19
ATOM     19  C   UNL     1      -4.948  14.399  21.908  0.00  0.00    +0.000 C 
ATOM     20  C   UNL     1      -6.379  14.076  22.411  0.00  0.00    +0.000 C 
ATOM     21  C   UNL     1      -6.882  12.666  22.097  0.00  0.00    +0.000 C 
ATOM     22  C   UNL     1      -6.760  12.304  20.610  0.00  0.00    +0.000 C 
ATOM     23  C   UNL     1      -7.036  10.806  20.384  0.00  0.00    +0.000 C 
ATOM     24  C   UNL     1      -6.902  10.412  18.909  0.00  0.00    +0.000 C 
ATOM     25  C   UNL     1      -5.572  10.860  18.304  0.00  0.00    +0.000 C 
ATOM     26  C   UNL     1      -5.328  12.354  18.531  0.00  0.00    +0.000 C 
ATOM     27  C   UNL     1      -5.376  12.648  20.034  0.00  0.00    +0.000 C 
ATOM     28  C   UNL     1      -4.916  14.073  20.385  0.00  0.00    +0.000 C 
ENDBRANCH   4  19
TORSDOF 2
ENDMDL
MODEL 4
REMARK VINA RESULT:      -6.9      0.970      1.309
REMARK  Name = 
REMARK  2 active torsions:
REMARK  status: ('A' for Active; 'I' for Inactive)
REMARK    1  A    between atoms: N_11  and  C_12
REMARK    2  A    between atoms: N_15  and  C_16
REMARK                            x       y       z     vdW  Elec       q    Type
REMARK                         _______ _______ _______ _____ _____    ______ ____
ROOT
ATOM      1  C   UNL     1      -1.072  11.075  20.729  0.00  0.00    +0.000 C 
ATOM      2  C   UNL     1      -1.078  12.218  19.695  0.00  0.00    +0.000 C 
ATOM      3  C   UNL     1      -0.189  13.428  20.053  0.00  0.00    +0.000 C 
ATOM      4  N   UNL     1      -0.270  13.906  21.443  0.00  0.00    +0.000 NA
ATOM      5  C   UNL     1      -0.472  12.841  22.412  0.00  0.00    +0.000 C 
ATOM      6  C   UNL     1      -1.499  11.795  22.013  0.00  0.00    +0.000 C 
ENDROOT
BRANCH   1  17
ATOM      7  O   UNL     1       1.524   9.630  23.012  0.00  0.00    +0.000 OA
ATOM      8  S   UNL     1       0.423   9.205  22.192  0.00  0.00    +0.000 S 
ATOM      9  O   UNL     1      -0.844   8.795  22.736  0.00  0.00    +0.000 OA
ATOM     10  N   UNL     1       0.983   7.891  21.295  0.00  0.00    +0.000 N 
ATOM     11  C   UNL     1       1.432   8.415  20.064  0.00  0.00    +0.000 A 
ATOM     12  C   UNL     1       2.210   7.671  19.184  0.00  0.00    +0.000 A 
ATOM     13  C   UNL     1       2.527   8.245  17.962  0.00  0.00    +0.000 A 
ATOM     14  C   UNL     1       2.037   9.518  17.639  0.00  0.00    +0.000 A 
ATOM     15  C   UNL     1       1.237  10.242  18.534  0.00  0.00    +0.000 A 
ATOM     16  C   UNL     1       0.916   9.680  19.757  0.00  0.00    +0.000 A 
ATOM     17  N   UNL     1       0.232  10.323  20.868  0.00  0.00    +0.000 N 
ATOM     18  H   UNL     1       1.624   7.307  21.830  0.00  0.00    +0.000 HD
ENDBRANCH   1  17
BRANCH   4  19
ATOM     19  C   UNL     1       0.780  14.914  21.796  0.00  0.00    +0.000 C 
ATOM     20  C   UNL     1       0.419  16.418  21.681  0.00  0.00    +0.000 C 
ATOM     21  C   UNL     1       0.452  16.994  20.265  0.00  0.00    +0.000 C 
ATOM     22  C   UNL     1       1.775  16.721  19.537  0.00  0.00    +0.000 C 
ATOM     23  C   UNL     1       1.669  17.090  18.046  0.00  0.00    +0.000 C 
ATOM     24  C   UNL     1       2.971  16.809  17.289  0.00  0.00    +0.000 C 
ATOM     25  C   UNL     1       3.474  15.382  17.503  0.00  0.00    +0.000 C 
ATOM     26  C   UNL     1       3.583  15.044  18.992  0.00  0.00    +0.000 C 
ATOM     27  C   UNL     1       2.217  15.252  19.656  0.00  0.00    +0.000 C 
ATOM     28  C   UNL     1       2.159  14.722  21.098  0.00  0.00    +0.000 C 
ENDBRANCH   4  19
TORSDOF 2
ENDMDL
MODEL 5
REMARK VINA RESULT:      -6.9      3.640      6.966
REMARK  Name = 
REMARK  2 active torsions:
REMARK  status: ('A' for Active; 'I' for Inactive)
REMARK    1  A    between atoms: N_11  and  C_12
REMARK    2  A    between atoms: N_15  and  C_16
REMARK                            x       y       z     vdW  Elec       q    Type
REMARK                         _______ _______ _______ _____ _____    ______ ____
ROOT
ATOM      1  C   UNL     1       0.095  11.537  19.724  0.00  0.00    +0.000 C 
ATOM      2  C   UNL     1      -0.570  12.507  18.726  0.00  0.00    +0.000 C 
ATOM      3  C   UNL     1      -1.648  11.874  17.821  0.00  0.00    +0.000 C 
ATOM      4  N   UNL     1      -1.314  10.571  17.224  0.00  0.00    +0.000 NA
ATOM      5  C   UNL     1      -0.506   9.726  18.090  0.00  0.00    +0.000 C 
ATOM      6  C   UNL     1       0.632  10.438  18.801  0.00  0.00    +0.000 C 
ENDROOT
BRANCH   1  17
ATOM      7  O   UNL     1      -0.686   8.764  22.120  0.00  0.00    +0.000 OA
ATOM      8  S   UNL     1      -0.090  10.072  22.110  0.00  0.00    +0.000 S 
ATOM      9  O   UNL     1       1.330  10.285  22.211  0.00  0.00    +0.000 OA
ATOM     10  N   UNL     1      -0.772  10.912  23.403  0.00  0.00    +0.000 N 
ATOM     11  C   UNL     1      -1.867  11.630  22.875  0.00  0.00    +0.000 A 
ATOM     12  C   UNL     1      -2.829  12.213  23.691  0.00  0.00    +0.000 A 
ATOM     13  C   UNL     1      -3.817  12.972  23.079  0.00  0.00    +0.000 A 
ATOM     14  C   UNL     1      -3.799  13.154  21.690  0.00  0.00    +0.000 A 
ATOM     15  C   UNL     1      -2.806  12.573  20.889  0.00  0.00    +0.000 A 
ATOM     16  C   UNL     1      -1.817  11.812  21.487  0.00  0.00    +0.000 A 
ATOM     17  N   UNL     1      -0.799  11.013  20.825  0.00  0.00    +0.000 N 
ATOM     18  H   UNL     1      -0.937  10.307  24.207  0.00  0.00    +0.000 HD
ENDBRANCH   1  17
BRANCH   4  19
ATOM     19  C   UNL     1      -2.475   9.896  16.560  0.00  0.00    +0.000 C 
ATOM     20  C   UNL     1      -3.119  10.590  15.331  0.00  0.00    +0.000 C 
ATOM     21  C   UNL     1      -4.071  11.742  15.652  0.00  0.00    +0.000 C 
ATOM     22  C   UNL     1      -5.162  11.355  16.661  0.00  0.00    +0.000 C 
ATOM     23  C   UNL     1      -5.932  12.599  17.143  0.00  0.00    +0.000 C 
ATOM     24  C   UNL     1      -7.015  12.244  18.167  0.00  0.00    +0.000 C 
ATOM     25  C   UNL     1      -6.473  11.407  19.324  0.00  0.00    +0.000 C 
ATOM     26  C   UNL     1      -5.723  10.171  18.820  0.00  0.00    +0.000 C 
ATOM     27  C   UNL     1      -4.593  10.616  17.884  0.00  0.00    +0.000 C 
ATOM     28  C   UNL     1      -3.638   9.472  17.505  0.00  0.00    +0.000 C 
ENDBRANCH   4  19
TORSDOF 2
ENDMDL
MODEL 6
REMARK VINA RESULT:      -6.6      5.516      8.408
REMARK  Name = 
REMARK  2 active torsions:
REMARK  status: ('A' for Active; 'I' for Inactive)
REMARK    1  A    between atoms: N_11  and  C_12
REMARK    2  A    between atoms: N_15  and  C_16
REMARK                            x       y       z     vdW  Elec       q    Type
REMARK                         _______ _______ _______ _____ _____    ______ ____
ROOT
ATOM      1  C   UNL     1      -6.582  13.602  20.976  0.00  0.00    +0.000 C 
ATOM      2  C   UNL     1      -6.198  14.898  21.717  0.00  0.00    +0.000 C 
ATOM      3  C   UNL     1      -4.683  15.111  21.918  0.00  0.00    +0.000 C 
ATOM      4  N   UNL     1      -3.915  13.939  22.370  0.00  0.00    +0.000 NA
ATOM      5  C   UNL     1      -4.407  12.681  21.831  0.00  0.00    +0.000 C 
ATOM      6  C   UNL     1      -5.918  12.525  21.840  0.00  0.00    +0.000 C 
ENDROOT
BRANCH   1  17
ATOM      7  O   UNL     1      -4.923  11.662  18.233  0.00  0.00    +0.000 OA
ATOM      8  S   UNL     1      -6.241  11.997  18.700  0.00  0.00    +0.000 S 
ATOM      9  O   UNL     1      -7.091  11.057  19.381  0.00  0.00    +0.000 OA
ATOM     10  N   UNL     1      -7.108  12.500  17.344  0.00  0.00    +0.000 N 
ATOM     11  C   UNL     1      -6.989  13.906  17.298  0.00  0.00    +0.000 A 
ATOM     12  C   UNL     1      -7.340  14.640  16.171  0.00  0.00    +0.000 A 
ATOM     13  C   UNL     1      -7.269  16.023  16.256  0.00  0.00    +0.000 A 
ATOM     14  C   UNL     1      -6.888  16.631  17.460  0.00  0.00    +0.000 A 
ATOM     15  C   UNL     1      -6.558  15.871  18.590  0.00  0.00    +0.000 A 
ATOM     16  C   UNL     1      -6.623  14.491  18.517  0.00  0.00    +0.000 A 
ATOM     17  N   UNL     1      -6.182  13.535  19.520  0.00  0.00    +0.000 N 
ATOM     18  H   UNL     1      -6.858  11.970  16.512  0.00  0.00    +0.000 HD
ENDBRANCH   1  17
BRANCH   4  19
ATOM     19  C   UNL     1      -2.431  14.134  22.315  0.00  0.00    +0.000 C 
ATOM     20  C   UNL     1      -1.776  14.376  20.930  0.00  0.00    +0.000 C 
ATOM     21  C   UNL     1      -1.566  13.125  20.076  0.00  0.00    +0.000 C 
ATOM     22  C   UNL     1      -0.815  12.011  20.818  0.00  0.00    +0.000 C 
ATOM     23  C   UNL     1      -0.851  10.696  20.018  0.00  0.00    +0.000 C 
ATOM     24  C   UNL     1      -0.124   9.559  20.746  0.00  0.00    +0.000 C 
ATOM     25  C   UNL     1      -0.610   9.383  22.184  0.00  0.00    +0.000 C 
ATOM     26  C   UNL     1      -0.553  10.700  22.961  0.00  0.00    +0.000 C 
ATOM     27  C   UNL     1      -1.386  11.755  22.223  0.00  0.00    +0.000 C 
ATOM     28  C   UNL     1      -1.582  13.045  23.037  0.00  0.00    +0.000 C 
ENDBRANCH   4  19
TORSDOF 2
ENDMDL
MODEL 7
REMARK VINA RESULT:      -6.5      4.608      6.598
REMARK  Name = 
REMARK  2 active torsions:
REMARK  status: ('A' for Active; 'I' for Inactive)
REMARK    1  A    between atoms: N_11  and  C_12
REMARK    2  A    between atoms: N_15  and  C_16
REMARK                            x       y       z     vdW  Elec       q    Type
REMARK                         _______ _______ _______ _____ _____    ______ ____
ROOT
ATOM      1  C   UNL     1      -1.156  14.124  21.473  0.00  0.00    +0.000 C 
ATOM      2  C   UNL     1      -1.639  14.309  22.925  0.00  0.00    +0.000 C 
ATOM      3  C   UNL     1      -3.169  14.242  23.117  0.00  0.00    +0.000 C 
ATOM      4  N   UNL     1      -3.981  14.985  22.140  0.00  0.00    +0.000 NA
ATOM      5  C   UNL     1      -3.417  14.987  20.800  0.00  0.00    +0.000 C 
ATOM      6  C   UNL     1      -1.918  15.229  20.734  0.00  0.00    +0.000 C 
ENDROOT
BRANCH   1  17
ATOM      7  O   UNL     1      -2.350  12.073  18.574  0.00  0.00    +0.000 OA
ATOM      8  S   UNL     1      -1.122  12.524  19.169  0.00  0.00    +0.000 S 
ATOM      9  O   UNL     1      -0.314  13.569  18.599  0.00  0.00    +0.000 OA
ATOM     10  N   UNL     1      -0.119  11.170  19.264  0.00  0.00    +0.000 N 
ATOM     11  C   UNL     1      -0.308  10.629  20.554  0.00  0.00    +0.000 A 
ATOM     12  C   UNL     1       0.141   9.357  20.893  0.00  0.00    +0.000 A 
ATOM     13  C   UNL     1      -0.014   8.950  22.210  0.00  0.00    +0.000 A 
ATOM     14  C   UNL     1      -0.576   9.825  23.151  0.00  0.00    +0.000 A 
ATOM     15  C   UNL     1      -1.003  11.110  22.790  0.00  0.00    +0.000 A 
ATOM     16  C   UNL     1      -0.855  11.526  21.479  0.00  0.00    +0.000 A 
ATOM     17  N   UNL     1      -1.366  12.749  20.881  0.00  0.00    +0.000 N 
ATOM     18  H   UNL     1      -0.234  10.552  18.462  0.00  0.00    +0.000 HD
ENDBRANCH   1  17
BRANCH   4  19
ATOM     19  C   UNL     1      -5.447  14.691  22.226  0.00  0.00    +0.000 C 
ATOM     20  C   UNL     1      -5.885  13.228  22.494  0.00  0.00    +0.000 C 
ATOM     21  C   UNL     1      -5.850  12.300  21.280  0.00  0.00    +0.000 C 
ATOM     22  C   UNL     1      -6.618  12.860  20.075  0.00  0.00    +0.000 C 
ATOM     23  C   UNL     1      -6.345  12.024  18.810  0.00  0.00    +0.000 C 
ATOM     24  C   UNL     1      -7.084  12.573  17.586  0.00  0.00    +0.000 C 
ATOM     25  C   UNL     1      -6.827  14.063  17.368  0.00  0.00    +0.000 C 
ATOM     26  C   UNL     1      -7.118  14.873  18.634  0.00  0.00    +0.000 C 
ATOM     27  C   UNL     1      -6.265  14.329  19.785  0.00  0.00    +0.000 C 
ATOM     28  C   UNL     1      -6.310  15.216  21.041  0.00  0.00    +0.000 C 
ENDBRANCH   4  19
TORSDOF 2
ENDMDL
MODEL 8
REMARK VINA RESULT:      -6.5      1.146      2.157
REMARK  Name = 
REMARK  2 active torsions:
REMARK  status: ('A' for Active; 'I' for Inactive)
REMARK    1  A    between atoms: N_11  and  C_12
REMARK    2  A    between atoms: N_15  and  C_16
REMARK                            x       y       z     vdW  Elec       q    Type
REMARK                         _______ _______ _______ _____ _____    ______ ____
ROOT
ATOM      1  C   UNL     1      -0.524  10.628  20.030  0.00  0.00    +0.000 C 
ATOM      2  C   UNL     1      -0.502  11.314  18.649  0.00  0.00    +0.000 C 
ATOM      3  C   UNL     1       0.499  12.481  18.515  0.00  0.00    +0.000 C 
ATOM      4  N   UNL     1       0.540  13.435  19.635  0.00  0.00    +0.000 NA
ATOM      5  C   UNL     1       0.314  12.818  20.932  0.00  0.00    +0.000 C 
ATOM      6  C   UNL     1      -0.815  11.802  20.972  0.00  0.00    +0.000 C 
ENDROOT
BRANCH   1  17
ATOM      7  O   UNL     1       1.900   9.618  22.703  0.00  0.00    +0.000 OA
ATOM      8  S   UNL     1       0.799   9.074  21.956  0.00  0.00    +0.000 S 
ATOM      9  O   UNL     1      -0.509   8.877  22.523  0.00  0.00    +0.000 OA
ATOM     10  N   UNL     1       1.297   7.556  21.416  0.00  0.00    +0.000 N 
ATOM     11  C   UNL     1       1.817   7.748  20.119  0.00  0.00    +0.000 A 
ATOM     12  C   UNL     1       2.571   6.774  19.474  0.00  0.00    +0.000 A 
ATOM     13  C   UNL     1       2.962   7.024  18.166  0.00  0.00    +0.000 A 
ATOM     14  C   UNL     1       2.567   8.210  17.533  0.00  0.00    +0.000 A 
ATOM     15  C   UNL     1       1.790   9.170  18.196  0.00  0.00    +0.000 A 
ATOM     16  C   UNL     1       1.396   8.932  19.501  0.00  0.00    +0.000 A 
ATOM     17  N   UNL     1       0.723   9.857  20.399  0.00  0.00    +0.000 N 
ATOM     18  H   UNL     1       1.882   7.079  22.102  0.00  0.00    +0.000 HD
ENDBRANCH   1  17
BRANCH   4  19
ATOM     19  C   UNL     1       1.687  14.397  19.565  0.00  0.00    +0.000 C 
ATOM     20  C   UNL     1       2.750  14.352  20.693  0.00  0.00    +0.000 C 
ATOM     21  C   UNL     1       2.351  15.043  21.998  0.00  0.00    +0.000 C 
ATOM     22  C   UNL     1       1.874  16.487  21.791  0.00  0.00    +0.000 C 
ATOM     23  C   UNL     1       1.248  17.051  23.080  0.00  0.00    +0.000 C 
ATOM     24  C   UNL     1       0.745  18.486  22.896  0.00  0.00    +0.000 C 
ATOM     25  C   UNL     1      -0.178  18.631  21.687  0.00  0.00    +0.000 C 
ATOM     26  C   UNL     1       0.471  18.075  20.417  0.00  0.00    +0.000 C 
ATOM     27  C   UNL     1       0.852  16.609  20.647  0.00  0.00    +0.000 C 
ATOM     28  C   UNL     1       1.299  15.892  19.362  0.00  0.00    +0.000 C 
ENDBRANCH   4  19
TORSDOF 2
ENDMDL
MODEL 9
REMARK VINA RESULT:      -6.5      4.059      7.114
REMARK  Name = 
REMARK  2 active torsions:
REMARK  status: ('A' for Active; 'I' for Inactive)
REMARK    1  A    between atoms: N_11  and  C_12
REMARK    2  A    between atoms: N_15  and  C_16
REMARK                            x       y       z     vdW  Elec       q    Type
REMARK                         _______ _______ _______ _____ _____    ______ ____
ROOT
ATOM      1  C   UNL     1      -2.112  13.515  23.610  0.00  0.00    +0.000 C 
ATOM      2  C   UNL     1      -0.975  14.471  23.199  0.00  0.00    +0.000 C 
ATOM      3  C   UNL     1      -0.695  14.539  21.683  0.00  0.00    +0.000 C 
ATOM      4  N   UNL     1      -0.652  13.251  20.971  0.00  0.00    +0.000 NA
ATOM      5  C   UNL     1      -1.587  12.268  21.494  0.00  0.00    +0.000 C 
ATOM      6  C   UNL     1      -1.650  12.183  23.009  0.00  0.00    +0.000 C 
ENDROOT
BRANCH   1  17
ATOM      7  O   UNL     1      -5.463  12.449  22.314  0.00  0.00    +0.000 OA
ATOM      8  S   UNL     1      -4.841  12.866  23.541  0.00  0.00    +0.000 S 
ATOM      9  O   UNL     1      -4.530  11.954  24.609  0.00  0.00    +0.000 OA
ATOM     10  N   UNL     1      -5.861  14.029  24.215  0.00  0.00    +0.000 N 
ATOM     11  C   UNL     1      -5.374  15.281  23.782  0.00  0.00    +0.000 A 
ATOM     12  C   UNL     1      -6.119  16.448  23.910  0.00  0.00    +0.000 A 
ATOM     13  C   UNL     1      -5.517  17.640  23.534  0.00  0.00    +0.000 A 
ATOM     14  C   UNL     1      -4.192  17.641  23.077  0.00  0.00    +0.000 A 
ATOM     15  C   UNL     1      -3.453  16.455  22.975  0.00  0.00    +0.000 A 
ATOM     16  C   UNL     1      -4.043  15.259  23.345  0.00  0.00    +0.000 A 
ATOM     17  N   UNL     1      -3.502  13.920  23.174  0.00  0.00    +0.000 N 
ATOM     18  H   UNL     1      -6.844  13.815  24.055  0.00  0.00    +0.000 HD
ENDBRANCH   1  17
BRANCH   4  19
ATOM     19  C   UNL     1      -0.619  13.387  19.480  0.00  0.00    +0.000 C 
ATOM     20  C   UNL     1       0.149  12.315  18.664  0.00  0.00    +0.000 C 
ATOM     21  C   UNL     1       1.670  12.478  18.634  0.00  0.00    +0.000 C 
ATOM     22  C   UNL     1       2.114  13.880  18.197  0.00  0.00    +0.000 C 
ATOM     23  C   UNL     1       3.624  14.075  18.426  0.00  0.00    +0.000 C 
ATOM     24  C   UNL     1       4.093  15.476  18.016  0.00  0.00    +0.000 C 
ATOM     25  C   UNL     1       3.257  16.582  18.658  0.00  0.00    +0.000 C 
ATOM     26  C   UNL     1       1.762  16.372  18.406  0.00  0.00    +0.000 C 
ATOM     27  C   UNL     1       1.351  14.994  18.936  0.00  0.00    +0.000 C 
ATOM     28  C   UNL     1      -0.172  14.778  18.940  0.00  0.00    +0.000 C 
ENDBRANCH   4  19
TORSDOF 2
ENDMDL
