MODEL 1
REMARK VINA RESULT:      -8.4      0.000      0.000
REMARK  Name = 
REMARK  7 active torsions:
REMARK  status: ('A' for Active; 'I' for Inactive)
REMARK    1  A    between atoms: C_1  and  C_2
REMARK    2  A    between atoms: C_2  and  C_3
REMARK    3  A    between atoms: C_2  and  C_4
REMARK    4  A    between atoms: C_2  and  C_5
REMARK    5  A    between atoms: C_5  and  C_6
REMARK    6  A    between atoms: C_15  and  C_16
REMARK    7  A    between atoms: C_16  and  N_17
REMARK                            x       y       z     vdW  Elec       q    Type
REMARK                         _______ _______ _______ _____ _____    ______ ____
ROOT
ATOM      1  C   UNL     1       3.410   4.146  18.180  0.00  0.00    +0.000 C 
ATOM      2  O   UNL     1       2.389   4.292  17.508  0.00  0.00    +0.000 OA
ATOM      3  N   UNL     1       4.636   4.594  17.711  0.00  0.00    +0.000 N 
ATOM      4  C   UNL     1       4.681   5.388  16.483  0.00  0.00    +0.000 C 
ATOM      5  C   UNL     1       5.215   6.791  16.783  0.00  0.00    +0.000 C 
ATOM      6  C   UNL     1       6.556   6.726  17.505  0.00  0.00    +0.000 C 
ATOM      7  C   UNL     1       6.555   5.787  18.703  0.00  0.00    +0.000 C 
ATOM      8  C   UNL     1       5.931   4.429  18.367  0.00  0.00    +0.000 C 
ATOM      9  C   UNL     1       7.815   6.848  16.675  0.00  0.00    +0.000 C 
ATOM     10  C   UNL     1       7.393   8.005  17.548  0.00  0.00    +0.000 C 
ENDROOT
BRANCH   1  11
ATOM     11  C   UNL     1       3.382   3.492  19.563  0.00  0.00    +0.000 C 
BRANCH  11  13
ATOM     12  C   UNL     1       0.895   2.935  19.679  0.00  0.00    +0.000 C 
ATOM     13  C   UNL     1       2.066   3.651  20.373  0.00  0.00    +0.000 C 
ATOM     14  C   UNL     1       1.730   5.134  20.608  0.00  0.00    +0.000 C 
ATOM     15  C   UNL     1       2.255   2.991  21.758  0.00  0.00    +0.000 C 
ENDBRANCH  11  13
ENDBRANCH   1  11
BRANCH  10  16
ATOM     16  C   UNL     1       8.270   8.406  18.700  0.00  0.00    +0.000 C 
BRANCH  16  17
ATOM     17  N   UNL     1       8.941   9.654  18.407  0.00  0.00    +0.000 N 
ATOM     18  C   UNL     1       9.349  10.464  19.439  0.00  0.00    +0.000 C 
ATOM     19  O   UNL     1       9.145  10.203  20.616  0.00  0.00    +0.000 OA
ATOM     20  N   UNL     1      10.017  11.594  19.029  0.00  0.00    +0.000 N 
ATOM     21  C   UNL     1      10.601  12.519  20.002  0.00  0.00    +0.000 C 
ATOM     22  C   UNL     1      11.177  13.600  19.143  0.00  0.00    +0.000 A 
ATOM     23  C   UNL     1      11.951  14.689  19.486  0.00  0.00    +0.000 A 
ATOM     24  C   UNL     1      12.329  15.530  18.447  0.00  0.00    +0.000 A 
ATOM     25  N   UNL     1      11.984  15.354  17.145  0.00  0.00    +0.000 NA
ATOM     26  C   UNL     1      11.222  14.276  16.846  0.00  0.00    +0.000 A 
ATOM     27  C   UNL     1      10.815  13.390  17.812  0.00  0.00    +0.000 A 
ATOM     28  C   UNL     1       9.998  12.155  17.678  0.00  0.00    +0.000 C 
ATOM     29  H   UNL     1       9.616   9.608  17.659  0.00  0.00    +0.000 HD
ENDBRANCH  16  17
ENDBRANCH  10  16
TORSDOF 4
ENDMDL
MODEL 2
REMARK VINA RESULT:      -7.8      7.576     11.645
REMARK  Name = 
REMARK  7 active torsions:
REMARK  status: ('A' for Active; 'I' for Inactive)
REMARK    1  A    between atoms: C_1  and  C_2
REMARK    2  A    between atoms: C_2  and  C_3
REMARK    3  A    between atoms: C_2  and  C_4
REMARK    4  A    between atoms: C_2  and  C_5
REMARK    5  A    between atoms: C_5  and  C_6
REMARK    6  A    between atoms: C_15  and  C_16
REMARK    7  A    between atoms: C_16  and  N_17
REMARK                            x       y       z     vdW  Elec       q    Type
REMARK                         _______ _______ _______ _____ _____    ______ ____
ROOT
ATOM      1  C   UNL     1      -4.568  12.560  21.590  0.00  0.00    +0.000 C 
ATOM      2  O   UNL     1      -4.948  12.634  22.759  0.00  0.00    +0.000 OA
ATOM      3  N   UNL     1      -3.232  12.747  21.266  0.00  0.00    +0.000 N 
ATOM      4  C   UNL     1      -2.251  12.872  22.343  0.00  0.00    +0.000 C 
ATOM      5  C   UNL     1      -1.248  11.715  22.277  0.00  0.00    +0.000 C 
ATOM      6  C   UNL     1      -0.613  11.616  20.894  0.00  0.00    +0.000 C 
ATOM      7  C   UNL     1      -1.628  11.631  19.759  0.00  0.00    +0.000 C 
ATOM      8  C   UNL     1      -2.656  12.756  19.923  0.00  0.00    +0.000 C 
ATOM      9  C   UNL     1       0.730  12.278  20.682  0.00  0.00    +0.000 C 
ATOM     10  C   UNL     1       0.654  10.772  20.763  0.00  0.00    +0.000 C 
ENDROOT
BRANCH   1  11
ATOM     11  C   UNL     1      -5.531  12.239  20.445  0.00  0.00    +0.000 C 
BRANCH  11  13
ATOM     12  C   UNL     1      -6.090  14.712  20.164  0.00  0.00    +0.000 C 
ATOM     13  C   UNL     1      -6.652  13.280  20.176  0.00  0.00    +0.000 C 
ATOM     14  C   UNL     1      -7.790  13.155  21.205  0.00  0.00    +0.000 C 
ATOM     15  C   UNL     1      -7.255  13.008  18.779  0.00  0.00    +0.000 C 
ENDBRANCH  11  13
ENDBRANCH   1  11
BRANCH  10  16
ATOM     16  C   UNL     1       1.010   9.959  19.551  0.00  0.00    +0.000 C 
BRANCH  16  17
ATOM     17  N   UNL     1       1.352   8.607  19.939  0.00  0.00    +0.000 N 
ATOM     18  C   UNL     1       2.139   7.843  19.112  0.00  0.00    +0.000 C 
ATOM     19  O   UNL     1       2.550   8.233  18.029  0.00  0.00    +0.000 OA
ATOM     20  N   UNL     1       2.431   6.597  19.617  0.00  0.00    +0.000 N 
ATOM     21  C   UNL     1       3.334   5.689  18.907  0.00  0.00    +0.000 C 
ATOM     22  C   UNL     1       3.333   4.465  19.767  0.00  0.00    +0.000 A 
ATOM     23  C   UNL     1       4.084   3.312  19.672  0.00  0.00    +0.000 A 
ATOM     24  C   UNL     1       3.844   2.336  20.631  0.00  0.00    +0.000 A 
ATOM     25  N   UNL     1       2.929   2.443  21.630  0.00  0.00    +0.000 NA
ATOM     26  C   UNL     1       2.209   3.587  21.691  0.00  0.00    +0.000 A 
ATOM     27  C   UNL     1       2.392   4.605  20.789  0.00  0.00    +0.000 A 
ATOM     28  C   UNL     1       1.716   5.926  20.703  0.00  0.00    +0.000 C 
ATOM     29  H   UNL     1       1.583   8.490  20.913  0.00  0.00    +0.000 HD
ENDBRANCH  16  17
ENDBRANCH  10  16
TORSDOF 4
ENDMDL
MODEL 3
REMARK VINA RESULT:      -7.6      6.182      8.792
REMARK  Name = 
REMARK  7 active torsions:
REMARK  status: ('A' for Active; 'I' for Inactive)
REMARK    1  A    between atoms: C_1  and  C_2
REMARK    2  A    between atoms: C_2  and  C_3
REMARK    3  A    between atoms: C_2  and  C_4
REMARK    4  A    between atoms: C_2  and  C_5
REMARK    5  A    between atoms: C_5  and  C_6
REMARK    6  A    between atoms: C_15  and  C_16
REMARK    7  A    between atoms: C_16  and  N_17
REMARK                            x       y       z     vdW  Elec       q    Type
REMARK                         _______ _______ _______ _____ _____    ______ ____
ROOT
ATOM      1  C   UNL     1       6.288   4.510  14.244  0.00  0.00    +0.000 C 
ATOM      2  O   UNL     1       7.002   5.358  13.709  0.00  0.00    +0.000 OA
ATOM      3  N   UNL     1       6.269   4.367  15.624  0.00  0.00    +0.000 N 
ATOM      4  C   UNL     1       6.982   5.343  16.448  0.00  0.00    +0.000 C 
ATOM      5  C   UNL     1       5.993   6.098  17.342  0.00  0.00    +0.000 C 
ATOM      6  C   UNL     1       5.140   5.132  18.156  0.00  0.00    +0.000 C 
ATOM      7  C   UNL     1       4.511   4.026  17.320  0.00  0.00    +0.000 C 
ATOM      8  C   UNL     1       5.528   3.364  16.385  0.00  0.00    +0.000 C 
ATOM      9  C   UNL     1       5.577   4.819  19.570  0.00  0.00    +0.000 C 
ATOM     10  C   UNL     1       4.375   5.705  19.349  0.00  0.00    +0.000 C 
ENDROOT
BRANCH   1  11
ATOM     11  C   UNL     1       5.375   3.591  13.430  0.00  0.00    +0.000 C 
BRANCH  11  13
ATOM     12  C   UNL     1       6.195   1.820  11.786  0.00  0.00    +0.000 C 
ATOM     13  C   UNL     1       5.816   3.300  11.969  0.00  0.00    +0.000 C 
ATOM     14  C   UNL     1       6.981   4.212  11.545  0.00  0.00    +0.000 C 
ATOM     15  C   UNL     1       4.628   3.592  11.025  0.00  0.00    +0.000 C 
ENDBRANCH  11  13
ENDBRANCH   1  11
BRANCH  10  16
ATOM     16  C   UNL     1       3.024   5.227  19.800  0.00  0.00    +0.000 C 
BRANCH  16  17
ATOM     17  N   UNL     1       2.289   6.312  20.414  0.00  0.00    +0.000 N 
ATOM     18  C   UNL     1       2.040   7.455  19.694  0.00  0.00    +0.000 C 
ATOM     19  O   UNL     1       2.439   7.628  18.551  0.00  0.00    +0.000 OA
ATOM     20  N   UNL     1       1.292   8.388  20.373  0.00  0.00    +0.000 N 
ATOM     21  C   UNL     1       0.857   9.625  19.721  0.00  0.00    +0.000 C 
ATOM     22  C   UNL     1       0.127  10.346  20.809  0.00  0.00    +0.000 A 
ATOM     23  C   UNL     1      -0.602  11.517  20.764  0.00  0.00    +0.000 A 
ATOM     24  C   UNL     1      -1.162  11.942  21.963  0.00  0.00    +0.000 A 
ATOM     25  N   UNL     1      -1.030  11.295  23.150  0.00  0.00    +0.000 NA
ATOM     26  C   UNL     1      -0.307  10.152  23.156  0.00  0.00    +0.000 A 
ATOM     27  C   UNL     1       0.270   9.656  22.014  0.00  0.00    +0.000 A 
ATOM     28  C   UNL     1       1.079   8.424  21.820  0.00  0.00    +0.000 C 
ATOM     29  H   UNL     1       1.503   6.028  20.977  0.00  0.00    +0.000 HD
ENDBRANCH  16  17
ENDBRANCH  10  16
TORSDOF 4
ENDMDL
MODEL 4
REMARK VINA RESULT:      -7.6      6.237     11.282
REMARK  Name = 
REMARK  7 active torsions:
REMARK  status: ('A' for Active; 'I' for Inactive)
REMARK    1  A    between atoms: C_1  and  C_2
REMARK    2  A    between atoms: C_2  and  C_3
REMARK    3  A    between atoms: C_2  and  C_4
REMARK    4  A    between atoms: C_2  and  C_5
REMARK    5  A    between atoms: C_5  and  C_6
REMARK    6  A    between atoms: C_15  and  C_16
REMARK    7  A    between atoms: C_16  and  N_17
REMARK                            x       y       z     vdW  Elec       q    Type
REMARK                         _______ _______ _______ _____ _____    ______ ____
ROOT
ATOM      1  C   UNL     1       0.315  14.872  19.180  0.00  0.00    +0.000 C 
ATOM      2  O   UNL     1      -0.450  15.081  18.239  0.00  0.00    +0.000 OA
ATOM      3  N   UNL     1      -0.019  13.966  20.176  0.00  0.00    +0.000 N 
ATOM      4  C   UNL     1      -1.215  13.141  20.014  0.00  0.00    +0.000 C 
ATOM      5  C   UNL     1      -0.828  11.660  19.947  0.00  0.00    +0.000 C 
ATOM      6  C   UNL     1       0.021  11.259  21.148  0.00  0.00    +0.000 C 
ATOM      7  C   UNL     1       1.188  12.201  21.407  0.00  0.00    +0.000 C 
ATOM      8  C   UNL     1       0.757  13.671  21.379  0.00  0.00    +0.000 C 
ATOM      9  C   UNL     1      -0.678  10.620  22.327  0.00  0.00    +0.000 C 
ATOM     10  C   UNL     1       0.180   9.764  21.426  0.00  0.00    +0.000 C 
ENDROOT
BRANCH   1  11
ATOM     11  C   UNL     1       1.671  15.572  19.291  0.00  0.00    +0.000 C 
BRANCH  11  13
ATOM     12  C   UNL     1       3.992  14.577  19.659  0.00  0.00    +0.000 C 
ATOM     13  C   UNL     1       2.876  14.845  18.634  0.00  0.00    +0.000 C 
ATOM     14  C   UNL     1       3.424  15.642  17.436  0.00  0.00    +0.000 C 
ATOM     15  C   UNL     1       2.399  13.475  18.103  0.00  0.00    +0.000 C 
ENDBRANCH  11  13
ENDBRANCH   1  11
BRANCH  10  16
ATOM     16  C   UNL     1       1.423   9.134  21.987  0.00  0.00    +0.000 C 
BRANCH  16  17
ATOM     17  N   UNL     1       1.596   7.803  21.445  0.00  0.00    +0.000 N 
ATOM     18  C   UNL     1       1.857   7.645  20.106  0.00  0.00    +0.000 C 
ATOM     19  O   UNL     1       1.921   8.580  19.320  0.00  0.00    +0.000 OA
ATOM     20  N   UNL     1       2.049   6.337  19.727  0.00  0.00    +0.000 N 
ATOM     21  C   UNL     1       2.428   5.998  18.354  0.00  0.00    +0.000 C 
ATOM     22  C   UNL     1       2.487   4.503  18.375  0.00  0.00    +0.000 A 
ATOM     23  C   UNL     1       2.899   3.617  17.401  0.00  0.00    +0.000 A 
ATOM     24  C   UNL     1       2.826   2.267  17.723  0.00  0.00    +0.000 A 
ATOM     25  N   UNL     1       2.376   1.779  18.908  0.00  0.00    +0.000 NA
ATOM     26  C   UNL     1       1.978   2.677  19.838  0.00  0.00    +0.000 A 
ATOM     27  C   UNL     1       2.028   4.029  19.604  0.00  0.00    +0.000 A 
ATOM     28  C   UNL     1       1.653   5.157  20.496  0.00  0.00    +0.000 C 
ATOM     29  H   UNL     1       2.134   7.175  22.023  0.00  0.00    +0.000 HD
ENDBRANCH  16  17
ENDBRANCH  10  16
TORSDOF 4
ENDMDL
MODEL 5
REMARK VINA RESULT:      -7.5      5.739     10.041
REMARK  Name = 
REMARK  7 active torsions:
REMARK  status: ('A' for Active; 'I' for Inactive)
REMARK    1  A    between atoms: C_1  and  C_2
REMARK    2  A    between atoms: C_2  and  C_3
REMARK    3  A    between atoms: C_2  and  C_4
REMARK    4  A    between atoms: C_2  and  C_5
REMARK    5  A    between atoms: C_5  and  C_6
REMARK    6  A    between atoms: C_15  and  C_16
REMARK    7  A    between atoms: C_16  and  N_17
REMARK                            x       y       z     vdW  Elec       q    Type
REMARK                         _______ _______ _______ _____ _____    ______ ____
ROOT
ATOM      1  C   UNL     1       0.200  14.126  19.494  0.00  0.00    +0.000 C 
ATOM      2  O   UNL     1      -0.538  14.500  18.583  0.00  0.00    +0.000 OA
ATOM      3  N   UNL     1      -0.140  13.034  20.279  0.00  0.00    +0.000 N 
ATOM      4  C   UNL     1      -1.305  12.231  19.912  0.00  0.00    +0.000 C 
ATOM      5  C   UNL     1      -0.872  10.801  19.571  0.00  0.00    +0.000 C 
ATOM      6  C   UNL     1      -0.053  10.190  20.702  0.00  0.00    +0.000 C 
ATOM      7  C   UNL     1       1.077  11.088  21.186  0.00  0.00    +0.000 C 
ATOM      8  C   UNL     1       0.604  12.525  21.430  0.00  0.00    +0.000 C 
ATOM      9  C   UNL     1      -0.772   9.316  21.705  0.00  0.00    +0.000 C 
ATOM     10  C   UNL     1       0.141   8.674  20.688  0.00  0.00    +0.000 C 
ENDROOT
BRANCH   1  11
ATOM     11  C   UNL     1       1.531  14.820  19.793  0.00  0.00    +0.000 C 
BRANCH  11  13
ATOM     12  C   UNL     1       2.830  15.435  17.685  0.00  0.00    +0.000 C 
ATOM     13  C   UNL     1       2.722  14.454  18.865  0.00  0.00    +0.000 C 
ATOM     14  C   UNL     1       2.610  13.006  18.357  0.00  0.00    +0.000 C 
ATOM     15  C   UNL     1       4.033  14.563  19.677  0.00  0.00    +0.000 C 
ENDBRANCH  11  13
ENDBRANCH   1  11
BRANCH  10  16
ATOM     16  C   UNL     1       1.382   7.973  21.162  0.00  0.00    +0.000 C 
BRANCH  16  17
ATOM     17  N   UNL     1       2.181   7.552  20.032  0.00  0.00    +0.000 N 
ATOM     18  C   UNL     1       2.532   6.229  19.904  0.00  0.00    +0.000 C 
ATOM     19  O   UNL     1       2.230   5.374  20.724  0.00  0.00    +0.000 OA
ATOM     20  N   UNL     1       3.249   5.951  18.764  0.00  0.00    +0.000 N 
ATOM     21  C   UNL     1       3.623   4.577  18.426  0.00  0.00    +0.000 C 
ATOM     22  C   UNL     1       4.407   4.738  17.162  0.00  0.00    +0.000 A 
ATOM     23  C   UNL     1       4.925   3.783  16.311  0.00  0.00    +0.000 A 
ATOM     24  C   UNL     1       5.625   4.254  15.207  0.00  0.00    +0.000 A 
ATOM     25  N   UNL     1       5.832   5.567  14.926  0.00  0.00    +0.000 NA
ATOM     26  C   UNL     1       5.312   6.475  15.783  0.00  0.00    +0.000 A 
ATOM     27  C   UNL     1       4.598   6.094  16.892  0.00  0.00    +0.000 A 
ATOM     28  C   UNL     1       3.944   6.932  17.931  0.00  0.00    +0.000 C 
ATOM     29  H   UNL     1       1.929   7.973  19.152  0.00  0.00    +0.000 HD
ENDBRANCH  16  17
ENDBRANCH  10  16
TORSDOF 4
ENDMDL
MODEL 6
REMARK VINA RESULT:      -7.5      5.922     10.072
REMARK  Name = 
REMARK  7 active torsions:
REMARK  status: ('A' for Active; 'I' for Inactive)
REMARK    1  A    between atoms: C_1  and  C_2
REMARK    2  A    between atoms: C_2  and  C_3
REMARK    3  A    between atoms: C_2  and  C_4
REMARK    4  A    between atoms: C_2  and  C_5
REMARK    5  A    between atoms: C_5  and  C_6
REMARK    6  A    between atoms: C_15  and  C_16
REMARK    7  A    between atoms: C_16  and  N_17
REMARK                            x       y       z     vdW  Elec       q    Type
REMARK                         _______ _______ _______ _____ _____    ______ ____
ROOT
ATOM      1  C   UNL     1       0.414  13.322  18.588  0.00  0.00    +0.000 C 
ATOM      2  O   UNL     1      -0.462  13.592  17.766  0.00  0.00    +0.000 OA
ATOM      3  N   UNL     1       0.140  12.501  19.671  0.00  0.00    +0.000 N 
ATOM      4  C   UNL     1      -1.156  11.826  19.742  0.00  0.00    +0.000 C 
ATOM      5  C   UNL     1      -0.960  10.307  19.696  0.00  0.00    +0.000 C 
ATOM      6  C   UNL     1       0.016   9.846  20.772  0.00  0.00    +0.000 C 
ATOM      7  C   UNL     1       1.312  10.644  20.796  0.00  0.00    +0.000 C 
ATOM      8  C   UNL     1       1.058  12.154  20.754  0.00  0.00    +0.000 C 
ATOM      9  C   UNL     1      -0.555   9.341  22.079  0.00  0.00    +0.000 C 
ATOM     10  C   UNL     1       0.041   8.354  21.104  0.00  0.00    +0.000 C 
ENDROOT
BRANCH   1  11
ATOM     11  C   UNL     1       1.843  13.852  18.450  0.00  0.00    +0.000 C 
BRANCH  11  13
ATOM     12  C   UNL     1       0.754  16.032  19.205  0.00  0.00    +0.000 C 
ATOM     13  C   UNL     1       2.083  15.313  18.917  0.00  0.00    +0.000 C 
ATOM     14  C   UNL     1       2.911  16.101  17.886  0.00  0.00    +0.000 C 
ATOM     15  C   UNL     1       2.888  15.286  20.236  0.00  0.00    +0.000 C 
ENDBRANCH  11  13
ENDBRANCH   1  11
BRANCH  10  16
ATOM     16  C   UNL     1       1.275   7.594  21.500  0.00  0.00    +0.000 C 
BRANCH  16  17
ATOM     17  N   UNL     1       2.061   7.272  20.329  0.00  0.00    +0.000 N 
ATOM     18  C   UNL     1       2.463   5.975  20.118  0.00  0.00    +0.000 C 
ATOM     19  O   UNL     1       2.217   5.062  20.893  0.00  0.00    +0.000 OA
ATOM     20  N   UNL     1       3.160   5.793  18.946  0.00  0.00    +0.000 N 
ATOM     21  C   UNL     1       3.582   4.456  18.521  0.00  0.00    +0.000 C 
ATOM     22  C   UNL     1       4.326   4.722  17.251  0.00  0.00    +0.000 A 
ATOM     23  C   UNL     1       4.861   3.840  16.334  0.00  0.00    +0.000 A 
ATOM     24  C   UNL     1       5.512   4.402  15.243  0.00  0.00    +0.000 A 
ATOM     25  N   UNL     1       5.658   5.737  15.033  0.00  0.00    +0.000 NA
ATOM     26  C   UNL     1       5.123   6.571  15.953  0.00  0.00    +0.000 A 
ATOM     27  C   UNL     1       4.454   6.098  17.055  0.00  0.00    +0.000 A 
ATOM     28  C   UNL     1       3.793   6.848  18.155  0.00  0.00    +0.000 C 
ATOM     29  H   UNL     1       1.769   7.732  19.481  0.00  0.00    +0.000 HD
ENDBRANCH  16  17
ENDBRANCH  10  16
TORSDOF 4
ENDMDL
MODEL 7
REMARK VINA RESULT:      -7.5      1.205      1.456
REMARK  Name = 
REMARK  7 active torsions:
REMARK  status: ('A' for Active; 'I' for Inactive)
REMARK    1  A    between atoms: C_1  and  C_2
REMARK    2  A    between atoms: C_2  and  C_3
REMARK    3  A    between atoms: C_2  and  C_4
REMARK    4  A    between atoms: C_2  and  C_5
REMARK    5  A    between atoms: C_5  and  C_6
REMARK    6  A    between atoms: C_15  and  C_16
REMARK    7  A    between atoms: C_16  and  N_17
REMARK                            x       y       z     vdW  Elec       q    Type
REMARK                         _______ _______ _______ _____ _____    ______ ____
ROOT
ATOM      1  C   UNL     1       3.474   4.101  18.201  0.00  0.00    +0.000 C 
ATOM      2  O   UNL     1       2.455   4.154  17.514  0.00  0.00    +0.000 OA
ATOM      3  N   UNL     1       4.693   4.525  17.693  0.00  0.00    +0.000 N 
ATOM      4  C   UNL     1       4.729   5.189  16.391  0.00  0.00    +0.000 C 
ATOM      5  C   UNL     1       5.232   6.628  16.547  0.00  0.00    +0.000 C 
ATOM      6  C   UNL     1       6.569   6.666  17.277  0.00  0.00    +0.000 C 
ATOM      7  C   UNL     1       6.580   5.855  18.565  0.00  0.00    +0.000 C 
ATOM      8  C   UNL     1       5.988   4.456  18.368  0.00  0.00    +0.000 C 
ATOM      9  C   UNL     1       7.830   6.730  16.444  0.00  0.00    +0.000 C 
ATOM     10  C   UNL     1       7.378   7.960  17.193  0.00  0.00    +0.000 C 
ENDROOT
BRANCH   1  11
ATOM     11  C   UNL     1       3.452   3.591  19.644  0.00  0.00    +0.000 C 
BRANCH  11  13
ATOM     12  C   UNL     1       1.883   5.388  20.549  0.00  0.00    +0.000 C 
ATOM     13  C   UNL     1       2.158   3.877  20.454  0.00  0.00    +0.000 C 
ATOM     14  C   UNL     1       2.229   3.253  21.859  0.00  0.00    +0.000 C 
ATOM     15  C   UNL     1       0.961   3.235  19.719  0.00  0.00    +0.000 C 
ENDBRANCH  11  13
ENDBRANCH   1  11
BRANCH  10  16
ATOM     16  C   UNL     1       8.239   8.496  18.301  0.00  0.00    +0.000 C 
BRANCH  16  17
ATOM     17  N   UNL     1       8.377   9.932  18.177  0.00  0.00    +0.000 N 
ATOM     18  C   UNL     1       9.265  10.599  18.986  0.00  0.00    +0.000 C 
ATOM     19  O   UNL     1       9.936  10.046  19.845  0.00  0.00    +0.000 OA
ATOM     20  N   UNL     1       9.337  11.950  18.736  0.00  0.00    +0.000 N 
ATOM     21  C   UNL     1      10.300  12.796  19.444  0.00  0.00    +0.000 C 
ATOM     22  C   UNL     1      10.011  14.163  18.909  0.00  0.00    +0.000 A 
ATOM     23  C   UNL     1      10.670  15.357  19.118  0.00  0.00    +0.000 A 
ATOM     24  C   UNL     1      10.146  16.473  18.479  0.00  0.00    +0.000 A 
ATOM     25  N   UNL     1       9.043  16.462  17.685  0.00  0.00    +0.000 NA
ATOM     26  C   UNL     1       8.421  15.275  17.504  0.00  0.00    +0.000 A 
ATOM     27  C   UNL     1       8.881  14.122  18.091  0.00  0.00    +0.000 A 
ATOM     28  C   UNL     1       8.348  12.737  18.000  0.00  0.00    +0.000 C 
ATOM     29  H   UNL     1       8.376  10.279  17.231  0.00  0.00    +0.000 HD
ENDBRANCH  16  17
ENDBRANCH  10  16
TORSDOF 4
ENDMDL
MODEL 8
REMARK VINA RESULT:      -7.4      6.133      8.804
REMARK  Name = 
REMARK  7 active torsions:
REMARK  status: ('A' for Active; 'I' for Inactive)
REMARK    1  A    between atoms: C_1  and  C_2
REMARK    2  A    between atoms: C_2  and  C_3
REMARK    3  A    between atoms: C_2  and  C_4
REMARK    4  A    between atoms: C_2  and  C_5
REMARK    5  A    between atoms: C_5  and  C_6
REMARK    6  A    between atoms: C_15  and  C_16
REMARK    7  A    between atoms: C_16  and  N_17
REMARK                            x       y       z     vdW  Elec       q    Type
REMARK                         _______ _______ _______ _____ _____    ______ ____
ROOT
ATOM      1  C   UNL     1       3.614   2.423  19.081  0.00  0.00    +0.000 C 
ATOM      2  O   UNL     1       3.345   1.526  18.282  0.00  0.00    +0.000 OA
ATOM      3  N   UNL     1       4.181   3.612  18.647  0.00  0.00    +0.000 N 
ATOM      4  C   UNL     1       4.306   3.857  17.210  0.00  0.00    +0.000 C 
ATOM      5  C   UNL     1       3.465   5.073  16.808  0.00  0.00    +0.000 C 
ATOM      6  C   UNL     1       3.817   6.289  17.658  0.00  0.00    +0.000 C 
ATOM      7  C   UNL     1       3.828   6.002  19.153  0.00  0.00    +0.000 C 
ATOM      8  C   UNL     1       4.612   4.728  19.486  0.00  0.00    +0.000 C 
ATOM      9  C   UNL     1       4.811   7.282  17.097  0.00  0.00    +0.000 C 
ATOM     10  C   UNL     1       3.350   7.655  17.155  0.00  0.00    +0.000 C 
ENDROOT
BRANCH   1  11
ATOM     11  C   UNL     1       3.322   2.288  20.577  0.00  0.00    +0.000 C 
BRANCH  11  13
ATOM     12  C   UNL     1       1.389   2.060  22.227  0.00  0.00    +0.000 C 
ATOM     13  C   UNL     1       1.977   2.888  21.071  0.00  0.00    +0.000 C 
ATOM     14  C   UNL     1       0.961   3.008  19.921  0.00  0.00    +0.000 C 
ATOM     15  C   UNL     1       2.239   4.312  21.611  0.00  0.00    +0.000 C 
ENDBRANCH  11  13
ENDBRANCH   1  11
BRANCH  10  16
ATOM     16  C   UNL     1       2.921   8.786  18.046  0.00  0.00    +0.000 C 
BRANCH  16  17
ATOM     17  N   UNL     1       1.567   9.185  17.731  0.00  0.00    +0.000 N 
ATOM     18  C   UNL     1       0.793   9.782  18.697  0.00  0.00    +0.000 C 
ATOM     19  O   UNL     1       1.178   9.971  19.842  0.00  0.00    +0.000 OA
ATOM     20  N   UNL     1      -0.455  10.158  18.257  0.00  0.00    +0.000 N 
ATOM     21  C   UNL     1      -1.373  10.890  19.132  0.00  0.00    +0.000 C 
ATOM     22  C   UNL     1      -2.596  11.051  18.285  0.00  0.00    +0.000 A 
ATOM     23  C   UNL     1      -3.756  11.756  18.527  0.00  0.00    +0.000 A 
ATOM     24  C   UNL     1      -4.729  11.704  17.535  0.00  0.00    +0.000 A 
ATOM     25  N   UNL     1      -4.611  11.010  16.373  0.00  0.00    +0.000 NA
ATOM     26  C   UNL     1      -3.460  10.329  16.172  0.00  0.00    +0.000 A 
ATOM     27  C   UNL     1      -2.445  10.336  17.096  0.00  0.00    +0.000 A 
ATOM     28  C   UNL     1      -1.117   9.670  17.048  0.00  0.00    +0.000 C 
ATOM     29  H   UNL     1       1.448   9.607  16.823  0.00  0.00    +0.000 HD
ENDBRANCH  16  17
ENDBRANCH  10  16
TORSDOF 4
ENDMDL
MODEL 9
REMARK VINA RESULT:      -7.3      6.319      9.964
REMARK  Name = 
REMARK  7 active torsions:
REMARK  status: ('A' for Active; 'I' for Inactive)
REMARK    1  A    between atoms: C_1  and  C_2
REMARK    2  A    between atoms: C_2  and  C_3
REMARK    3  A    between atoms: C_2  and  C_4
REMARK    4  A    between atoms: C_2  and  C_5
REMARK    5  A    between atoms: C_5  and  C_6
REMARK    6  A    between atoms: C_15  and  C_16
REMARK    7  A    between atoms: C_16  and  N_17
REMARK                            x       y       z     vdW  Elec       q    Type
REMARK                         _______ _______ _______ _____ _____    ______ ____
ROOT
ATOM      1  C   UNL     1       3.960   4.112  18.085  0.00  0.00    +0.000 C 
ATOM      2  O   UNL     1       4.157   2.969  18.495  0.00  0.00    +0.000 OA
ATOM      3  N   UNL     1       2.858   4.838  18.512  0.00  0.00    +0.000 N 
ATOM      4  C   UNL     1       2.019   4.294  19.579  0.00  0.00    +0.000 C 
ATOM      5  C   UNL     1       2.061   5.216  20.802  0.00  0.00    +0.000 C 
ATOM      6  C   UNL     1       1.699   6.647  20.425  0.00  0.00    +0.000 C 
ATOM      7  C   UNL     1       2.470   7.170  19.220  0.00  0.00    +0.000 C 
ATOM      8  C   UNL     1       2.465   6.171  18.058  0.00  0.00    +0.000 C 
ATOM      9  C   UNL     1       0.268   7.093  20.625  0.00  0.00    +0.000 C 
ATOM     10  C   UNL     1       1.337   7.603  21.562  0.00  0.00    +0.000 C 
ENDROOT
BRANCH   1  11
ATOM     11  C   UNL     1       4.920   4.799  17.111  0.00  0.00    +0.000 C 
BRANCH  11  13
ATOM     12  C   UNL     1       7.460   4.587  17.246  0.00  0.00    +0.000 C 
ATOM     13  C   UNL     1       6.227   5.374  17.723  0.00  0.00    +0.000 C 
ATOM     14  C   UNL     1       6.162   5.395  19.261  0.00  0.00    +0.000 C 
ATOM     15  C   UNL     1       6.397   6.833  17.244  0.00  0.00    +0.000 C 
ENDBRANCH  11  13
ENDBRANCH   1  11
BRANCH  10  16
ATOM     16  C   UNL     1       1.658   9.070  21.571  0.00  0.00    +0.000 C 
BRANCH  16  17
ATOM     17  N   UNL     1       0.502   9.832  21.991  0.00  0.00    +0.000 N 
ATOM     18  C   UNL     1      -0.055  10.748  21.131  0.00  0.00    +0.000 C 
ATOM     19  O   UNL     1       0.398  10.987  20.021  0.00  0.00    +0.000 OA
ATOM     20  N   UNL     1      -1.176  11.370  21.630  0.00  0.00    +0.000 N 
ATOM     21  C   UNL     1      -1.947  12.306  20.809  0.00  0.00    +0.000 C 
ATOM     22  C   UNL     1      -3.027  12.764  21.737  0.00  0.00    +0.000 A 
ATOM     23  C   UNL     1      -4.123  13.566  21.497  0.00  0.00    +0.000 A 
ATOM     24  C   UNL     1      -4.952  13.823  22.583  0.00  0.00    +0.000 A 
ATOM     25  N   UNL     1      -4.747  13.350  23.839  0.00  0.00    +0.000 NA
ATOM     26  C   UNL     1      -3.661  12.569  24.039  0.00  0.00    +0.000 A 
ATOM     27  C   UNL     1      -2.798  12.257  23.018  0.00  0.00    +0.000 A 
ATOM     28  C   UNL     1      -1.574  11.414  23.037  0.00  0.00    +0.000 C 
ATOM     29  H   UNL     1      -0.191   9.308  22.502  0.00  0.00    +0.000 HD
ENDBRANCH  16  17
ENDBRANCH  10  16
TORSDOF 4
ENDMDL
