MODEL 1
REMARK VINA RESULT:      -6.1      0.000      0.000
REMARK  Name = 
REMARK  11 active torsions:
REMARK  status: ('A' for Active; 'I' for Inactive)
REMARK    1  A    between atoms: C_2  and  C_3
REMARK    2  A    between atoms: C_2  and  C_10
REMARK    3  A    between atoms: C_6  and  O_7
REMARK    4  A    between atoms: C_13  and  O_14
REMARK    5  A    between atoms: C_17  and  C_18
REMARK    6  A    between atoms: C_18  and  C_19
REMARK    7  A    between atoms: C_19  and  C_20
REMARK    8  A    between atoms: C_20  and  C_21
REMARK    9  A    between atoms: C_21  and  C_22
REMARK   10  A    between atoms: C_22  and  C_23
REMARK   11  A    between atoms: C_24  and  C_25
REMARK                            x       y       z     vdW  Elec       q    Type
REMARK                         _______ _______ _______ _____ _____    ______ ____
ROOT
ATOM      1  C   UNL     1       0.082  11.538  21.036  0.00  0.00    +0.000 C 
ATOM      2  C   UNL     1       1.174  10.365  21.165  0.00  0.00    +0.000 C 
ATOM      3  C   UNL     1       0.294   9.106  21.492  0.00  0.00    +0.000 C 
ATOM      4  C   UNL     1      -0.670   9.609  22.550  0.00  0.00    +0.000 C 
ATOM      5  C   UNL     1      -0.445  11.095  22.457  0.00  0.00    +0.000 C 
ATOM      6  C   UNL     1      -1.470  12.018  23.004  0.00  0.00    +0.000 C 
ATOM      7  C   UNL     1      -0.989  13.292  22.378  0.00  0.00    +0.000 C 
ATOM      8  C   UNL     1      -0.093  13.079  21.364  0.00  0.00    +0.000 C 
ENDROOT
BRANCH   8   9
ATOM      9  C   UNL     1       0.306  14.187  20.433  0.00  0.00    +0.000 A 
ATOM     10  C   UNL     1      -0.599  14.893  19.635  0.00  0.00    +0.000 A 
ATOM     11  C   UNL     1      -0.153  15.880  18.730  0.00  0.00    +0.000 A 
ATOM     12  C   UNL     1       1.205  16.152  18.578  0.00  0.00    +0.000 A 
ATOM     13  C   UNL     1       2.117  15.506  19.396  0.00  0.00    +0.000 A 
ATOM     14  C   UNL     1       1.656  14.590  20.348  0.00  0.00    +0.000 A 
ENDBRANCH   8   9
BRANCH   1  16
ATOM     15  C   UNL     1       0.635  11.543  18.602  0.00  0.00    +0.000 C 
ATOM     16  C   UNL     1      -0.336  11.385  19.544  0.00  0.00    +0.000 C 
BRANCH  16  17
ATOM     17  C   UNL     1      -1.680  11.110  19.001  0.00  0.00    +0.000 A 
ATOM     18  C   UNL     1      -1.957  10.163  18.028  0.00  0.00    +0.000 A 
ATOM     19  C   UNL     1      -3.193  10.173  17.360  0.00  0.00    +0.000 A 
ATOM     20  C   UNL     1      -4.164  11.117  17.682  0.00  0.00    +0.000 A 
ATOM     21  C   UNL     1      -3.976  11.973  18.746  0.00  0.00    +0.000 A 
ATOM     22  C   UNL     1      -2.771  11.936  19.421  0.00  0.00    +0.000 A 
BRANCH  20  23
ATOM     23  O   UNL     1      -5.307  11.252  16.946  0.00  0.00    +0.000 OA
ATOM     24  H   UNL     1      -5.156  10.828  16.086  0.00  0.00    +0.000 HD
ENDBRANCH  20  23
ENDBRANCH  16  17
ENDBRANCH   1  16
BRANCH   4  25
ATOM     25  O   UNL     1      -0.300   9.120  23.836  0.00  0.00    +0.000 OA
ATOM     26  H   UNL     1      -1.112   8.872  24.321  0.00  0.00    +0.000 HD
ENDBRANCH   4  25
BRANCH   7  27
ATOM     27  C   UNL     1      -1.709  14.526  22.883  0.00  0.00    +0.000 C 
BRANCH  27  28
ATOM     28  C   UNL     1      -1.764  14.746  24.401  0.00  0.00    +0.000 C 
BRANCH  28  29
ATOM     29  C   UNL     1      -3.171  14.668  25.002  0.00  0.00    +0.000 C 
BRANCH  29  30
ATOM     30  C   UNL     1      -4.246  14.634  23.916  0.00  0.00    +0.000 C 
BRANCH  30  31
ATOM     31  C   UNL     1      -4.914  13.273  23.778  0.00  0.00    +0.000 C 
ATOM     32  C   UNL     1      -5.032  12.904  22.306  0.00  0.00    +0.000 C 
ENDBRANCH  30  31
ENDBRANCH  29  30
ENDBRANCH  28  29
ENDBRANCH  27  28
ENDBRANCH   7  27
TORSDOF 10
ENDMDL
MODEL 2
REMARK VINA RESULT:      -6.0      6.806     10.332
REMARK  Name = 
REMARK  11 active torsions:
REMARK  status: ('A' for Active; 'I' for Inactive)
REMARK    1  A    between atoms: C_2  and  C_3
REMARK    2  A    between atoms: C_2  and  C_10
REMARK    3  A    between atoms: C_6  and  O_7
REMARK    4  A    between atoms: C_13  and  O_14
REMARK    5  A    between atoms: C_17  and  C_18
REMARK    6  A    between atoms: C_18  and  C_19
REMARK    7  A    between atoms: C_19  and  C_20
REMARK    8  A    between atoms: C_20  and  C_21
REMARK    9  A    between atoms: C_21  and  C_22
REMARK   10  A    between atoms: C_22  and  C_23
REMARK   11  A    between atoms: C_24  and  C_25
REMARK                            x       y       z     vdW  Elec       q    Type
REMARK                         _______ _______ _______ _____ _____    ______ ____
ROOT
ATOM      1  C   UNL     1       2.737   3.864  18.722  0.00  0.00    +0.000 C 
ATOM      2  C   UNL     1       1.537   2.792  18.726  0.00  0.00    +0.000 C 
ATOM      3  C   UNL     1       0.822   3.078  20.095  0.00  0.00    +0.000 C 
ATOM      4  C   UNL     1       1.970   3.204  21.079  0.00  0.00    +0.000 C 
ATOM      5  C   UNL     1       3.143   3.297  20.138  0.00  0.00    +0.000 C 
ATOM      6  C   UNL     1       4.426   3.853  20.634  0.00  0.00    +0.000 C 
ATOM      7  C   UNL     1       5.110   4.062  19.317  0.00  0.00    +0.000 C 
ATOM      8  C   UNL     1       4.245   3.999  18.256  0.00  0.00    +0.000 C 
ENDROOT
BRANCH   8   9
ATOM      9  C   UNL     1       4.665   4.443  16.884  0.00  0.00    +0.000 A 
ATOM     10  C   UNL     1       4.976   3.562  15.844  0.00  0.00    +0.000 A 
ATOM     11  C   UNL     1       5.428   4.041  14.597  0.00  0.00    +0.000 A 
ATOM     12  C   UNL     1       5.615   5.404  14.378  0.00  0.00    +0.000 A 
ATOM     13  C   UNL     1       5.261   6.301  15.373  0.00  0.00    +0.000 A 
ATOM     14  C   UNL     1       4.735   5.819  16.576  0.00  0.00    +0.000 A 
ENDBRANCH   8   9
BRANCH   1  16
ATOM     15  C   UNL     1       1.274   4.931  17.004  0.00  0.00    +0.000 C 
ATOM     16  C   UNL     1       2.011   5.110  18.136  0.00  0.00    +0.000 C 
BRANCH  16  17
ATOM     17  C   UNL     1       2.037   6.497  18.639  0.00  0.00    +0.000 A 
ATOM     18  C   UNL     1       2.037   6.848  19.979  0.00  0.00    +0.000 A 
ATOM     19  C   UNL     1       1.763   8.170  20.366  0.00  0.00    +0.000 A 
ATOM     20  C   UNL     1       1.512   9.150  19.410  0.00  0.00    +0.000 A 
ATOM     21  C   UNL     1       1.654   8.866  18.069  0.00  0.00    +0.000 A 
ATOM     22  C   UNL     1       1.957   7.570  17.695  0.00  0.00    +0.000 A 
BRANCH  20  23
ATOM     23  O   UNL     1       1.088  10.402  19.757  0.00  0.00    +0.000 OA
ATOM     24  H   UNL     1       1.295  10.534  20.696  0.00  0.00    +0.000 HD
ENDBRANCH  20  23
ENDBRANCH  16  17
ENDBRANCH   1  16
BRANCH   4  25
ATOM     25  O   UNL     1       2.063   2.037  21.891  0.00  0.00    +0.000 OA
ATOM     26  H   UNL     1       1.627   2.216  22.747  0.00  0.00    +0.000 HD
ENDBRANCH   4  25
BRANCH   7  27
ATOM     27  C   UNL     1       6.567   4.456  19.445  0.00  0.00    +0.000 C 
BRANCH  27  28
ATOM     28  C   UNL     1       6.910   5.949  19.361  0.00  0.00    +0.000 C 
BRANCH  28  29
ATOM     29  C   UNL     1       7.879   6.314  18.231  0.00  0.00    +0.000 C 
BRANCH  29  30
ATOM     30  C   UNL     1       7.728   7.776  17.809  0.00  0.00    +0.000 C 
BRANCH  30  31
ATOM     31  C   UNL     1       8.646   8.717  18.576  0.00  0.00    +0.000 C 
ATOM     32  C   UNL     1       8.505  10.132  18.031  0.00  0.00    +0.000 C 
ENDBRANCH  30  31
ENDBRANCH  29  30
ENDBRANCH  28  29
ENDBRANCH  27  28
ENDBRANCH   7  27
TORSDOF 10
ENDMDL
MODEL 3
REMARK VINA RESULT:      -5.9      0.695      1.159
REMARK  Name = 
REMARK  11 active torsions:
REMARK  status: ('A' for Active; 'I' for Inactive)
REMARK    1  A    between atoms: C_2  and  C_3
REMARK    2  A    between atoms: C_2  and  C_10
REMARK    3  A    between atoms: C_6  and  O_7
REMARK    4  A    between atoms: C_13  and  O_14
REMARK    5  A    between atoms: C_17  and  C_18
REMARK    6  A    between atoms: C_18  and  C_19
REMARK    7  A    between atoms: C_19  and  C_20
REMARK    8  A    between atoms: C_20  and  C_21
REMARK    9  A    between atoms: C_21  and  C_22
REMARK   10  A    between atoms: C_22  and  C_23
REMARK   11  A    between atoms: C_24  and  C_25
REMARK                            x       y       z     vdW  Elec       q    Type
REMARK                         _______ _______ _______ _____ _____    ______ ____
ROOT
ATOM      1  C   UNL     1       0.070  11.583  21.056  0.00  0.00    +0.000 C 
ATOM      2  C   UNL     1       1.210  10.457  21.201  0.00  0.00    +0.000 C 
ATOM      3  C   UNL     1       0.377   9.156  21.486  0.00  0.00    +0.000 C 
ATOM      4  C   UNL     1      -0.638   9.600  22.522  0.00  0.00    +0.000 C 
ATOM      5  C   UNL     1      -0.476  11.097  22.455  0.00  0.00    +0.000 C 
ATOM      6  C   UNL     1      -1.556  11.966  22.984  0.00  0.00    +0.000 C 
ATOM      7  C   UNL     1      -1.114  13.269  22.389  0.00  0.00    +0.000 C 
ATOM      8  C   UNL     1      -0.181  13.109  21.399  0.00  0.00    +0.000 C 
ENDROOT
BRANCH   8   9
ATOM      9  C   UNL     1       0.194  14.247  20.494  0.00  0.00    +0.000 A 
ATOM     10  C   UNL     1      -0.721  14.933  19.689  0.00  0.00    +0.000 A 
ATOM     11  C   UNL     1      -0.294  15.951  18.810  0.00  0.00    +0.000 A 
ATOM     12  C   UNL     1       1.056  16.275  18.691  0.00  0.00    +0.000 A 
ATOM     13  C   UNL     1       1.975  15.649  19.517  0.00  0.00    +0.000 A 
ATOM     14  C   UNL     1       1.530  14.701  20.443  0.00  0.00    +0.000 A 
ENDBRANCH   8   9
BRANCH   1  16
ATOM     15  C   UNL     1       0.695  11.633  18.640  0.00  0.00    +0.000 C 
ATOM     16  C   UNL     1      -0.297  11.432  19.551  0.00  0.00    +0.000 C 
BRANCH  16  17
ATOM     17  C   UNL     1      -1.615  11.121  18.964  0.00  0.00    +0.000 A 
ATOM     18  C   UNL     1      -1.841  10.137  18.014  0.00  0.00    +0.000 A 
ATOM     19  C   UNL     1      -3.049  10.107  17.298  0.00  0.00    +0.000 A 
ATOM     20  C   UNL     1      -4.044  11.047  17.549  0.00  0.00    +0.000 A 
ATOM     21  C   UNL     1      -3.910  11.941  18.590  0.00  0.00    +0.000 A 
ATOM     22  C   UNL     1      -2.733  11.944  19.313  0.00  0.00    +0.000 A 
BRANCH  20  23
ATOM     23  O   UNL     1      -5.159  11.141  16.765  0.00  0.00    +0.000 OA
ATOM     24  H   UNL     1      -5.932  11.166  17.352  0.00  0.00    +0.000 HD
ENDBRANCH  20  23
ENDBRANCH  16  17
ENDBRANCH   1  16
BRANCH   4  25
ATOM     25  O   UNL     1      -0.284   9.110  23.812  0.00  0.00    +0.000 OA
ATOM     26  H   UNL     1      -0.896   9.494  24.470  0.00  0.00    +0.000 HD
ENDBRANCH   4  25
BRANCH   7  27
ATOM     27  C   UNL     1      -1.902  14.462  22.889  0.00  0.00    +0.000 C 
BRANCH  27  28
ATOM     28  C   UNL     1      -3.405  14.269  23.137  0.00  0.00    +0.000 C 
BRANCH  28  29
ATOM     29  C   UNL     1      -4.230  14.025  21.869  0.00  0.00    +0.000 C 
BRANCH  29  30
ATOM     30  C   UNL     1      -5.166  12.826  22.029  0.00  0.00    +0.000 C 
BRANCH  30  31
ATOM     31  C   UNL     1      -6.440  12.949  21.205  0.00  0.00    +0.000 C 
ATOM     32  C   UNL     1      -6.648  14.400  20.792  0.00  0.00    +0.000 C 
ENDBRANCH  30  31
ENDBRANCH  29  30
ENDBRANCH  28  29
ENDBRANCH  27  28
ENDBRANCH   7  27
TORSDOF 10
ENDMDL
MODEL 4
REMARK VINA RESULT:      -5.9      0.760      1.254
REMARK  Name = 
REMARK  11 active torsions:
REMARK  status: ('A' for Active; 'I' for Inactive)
REMARK    1  A    between atoms: C_2  and  C_3
REMARK    2  A    between atoms: C_2  and  C_10
REMARK    3  A    between atoms: C_6  and  O_7
REMARK    4  A    between atoms: C_13  and  O_14
REMARK    5  A    between atoms: C_17  and  C_18
REMARK    6  A    between atoms: C_18  and  C_19
REMARK    7  A    between atoms: C_19  and  C_20
REMARK    8  A    between atoms: C_20  and  C_21
REMARK    9  A    between atoms: C_21  and  C_22
REMARK   10  A    between atoms: C_22  and  C_23
REMARK   11  A    between atoms: C_24  and  C_25
REMARK                            x       y       z     vdW  Elec       q    Type
REMARK                         _______ _______ _______ _____ _____    ______ ____
ROOT
ATOM      1  C   UNL     1      -0.099  11.762  20.902  0.00  0.00    +0.000 C 
ATOM      2  C   UNL     1       0.886  10.493  20.823  0.00  0.00    +0.000 C 
ATOM      3  C   UNL     1      -0.049   9.303  21.242  0.00  0.00    +0.000 C 
ATOM      4  C   UNL     1      -0.791   9.839  22.451  0.00  0.00    +0.000 C 
ATOM      5  C   UNL     1      -0.445  11.303  22.372  0.00  0.00    +0.000 C 
ATOM      6  C   UNL     1      -1.285  12.286  23.100  0.00  0.00    +0.000 C 
ATOM      7  C   UNL     1      -0.786  13.540  22.448  0.00  0.00    +0.000 C 
ATOM      8  C   UNL     1      -0.077  13.296  21.302  0.00  0.00    +0.000 C 
ENDROOT
BRANCH   8   9
ATOM      9  C   UNL     1       0.278  14.406  20.356  0.00  0.00    +0.000 A 
ATOM     10  C   UNL     1      -0.665  15.233  19.740  0.00  0.00    +0.000 A 
ATOM     11  C   UNL     1      -0.271  16.217  18.808  0.00  0.00    +0.000 A 
ATOM     12  C   UNL     1       1.066  16.367  18.447  0.00  0.00    +0.000 A 
ATOM     13  C   UNL     1       2.026  15.598  19.084  0.00  0.00    +0.000 A 
ATOM     14  C   UNL     1       1.632  14.684  20.066  0.00  0.00    +0.000 A 
ENDBRANCH   8   9
BRANCH   1  16
ATOM     15  C   UNL     1       0.072  11.473  18.429  0.00  0.00    +0.000 C 
ATOM     16  C   UNL     1      -0.749  11.714  19.488  0.00  0.00    +0.000 C 
BRANCH  16  17
ATOM     17  C   UNL     1      -2.165  11.927  19.132  0.00  0.00    +0.000 A 
ATOM     18  C   UNL     1      -3.118  12.468  19.981  0.00  0.00    +0.000 A 
ATOM     19  C   UNL     1      -4.484  12.360  19.674  0.00  0.00    +0.000 A 
ATOM     20  C   UNL     1      -4.899  11.732  18.503  0.00  0.00    +0.000 A 
ATOM     21  C   UNL     1      -3.973  11.320  17.569  0.00  0.00    +0.000 A 
ATOM     22  C   UNL     1      -2.630  11.459  17.862  0.00  0.00    +0.000 A 
BRANCH  20  23
ATOM     23  O   UNL     1      -6.217  11.472  18.255  0.00  0.00    +0.000 OA
ATOM     24  H   UNL     1      -6.259  10.832  17.526  0.00  0.00    +0.000 HD
ENDBRANCH  20  23
ENDBRANCH  16  17
ENDBRANCH   1  16
BRANCH   4  25
ATOM     25  O   UNL     1      -0.279   9.262  23.649  0.00  0.00    +0.000 OA
ATOM     26  H   UNL     1       0.449   9.824  23.980  0.00  0.00    +0.000 HD
ENDBRANCH   4  25
BRANCH   7  27
ATOM     27  C   UNL     1      -1.303  14.808  23.097  0.00  0.00    +0.000 C 
BRANCH  27  28
ATOM     28  C   UNL     1      -2.730  15.254  22.750  0.00  0.00    +0.000 C 
BRANCH  28  29
ATOM     29  C   UNL     1      -3.709  15.221  23.928  0.00  0.00    +0.000 C 
BRANCH  29  30
ATOM     30  C   UNL     1      -5.029  14.551  23.546  0.00  0.00    +0.000 C 
BRANCH  30  31
ATOM     31  C   UNL     1      -4.902  13.047  23.354  0.00  0.00    +0.000 C 
ATOM     32  C   UNL     1      -4.489  12.393  24.665  0.00  0.00    +0.000 C 
ENDBRANCH  30  31
ENDBRANCH  29  30
ENDBRANCH  28  29
ENDBRANCH  27  28
ENDBRANCH   7  27
TORSDOF 10
ENDMDL
MODEL 5
REMARK VINA RESULT:      -5.9      8.275     10.901
REMARK  Name = 
REMARK  11 active torsions:
REMARK  status: ('A' for Active; 'I' for Inactive)
REMARK    1  A    between atoms: C_2  and  C_3
REMARK    2  A    between atoms: C_2  and  C_10
REMARK    3  A    between atoms: C_6  and  O_7
REMARK    4  A    between atoms: C_13  and  O_14
REMARK    5  A    between atoms: C_17  and  C_18
REMARK    6  A    between atoms: C_18  and  C_19
REMARK    7  A    between atoms: C_19  and  C_20
REMARK    8  A    between atoms: C_20  and  C_21
REMARK    9  A    between atoms: C_21  and  C_22
REMARK   10  A    between atoms: C_22  and  C_23
REMARK   11  A    between atoms: C_24  and  C_25
REMARK                            x       y       z     vdW  Elec       q    Type
REMARK                         _______ _______ _______ _____ _____    ______ ____
ROOT
ATOM      1  C   UNL     1      10.454  14.166  20.368  0.00  0.00    +0.000 C 
ATOM      2  C   UNL     1      11.959  14.463  19.884  0.00  0.00    +0.000 C 
ATOM      3  C   UNL     1      12.013  13.771  18.476  0.00  0.00    +0.000 C 
ATOM      4  C   UNL     1      11.354  12.425  18.713  0.00  0.00    +0.000 C 
ATOM      5  C   UNL     1      10.745  12.643  20.074  0.00  0.00    +0.000 C 
ATOM      6  C   UNL     1       9.650  11.750  20.527  0.00  0.00    +0.000 C 
ATOM      7  C   UNL     1       9.171  12.552  21.699  0.00  0.00    +0.000 C 
ATOM      8  C   UNL     1       9.644  13.838  21.690  0.00  0.00    +0.000 C 
ENDROOT
BRANCH   8   9
ATOM      9  C   UNL     1       9.080  14.880  22.611  0.00  0.00    +0.000 A 
ATOM     10  C   UNL     1       9.846  15.596  23.536  0.00  0.00    +0.000 A 
ATOM     11  C   UNL     1       9.245  16.516  24.421  0.00  0.00    +0.000 A 
ATOM     12  C   UNL     1       7.865  16.709  24.424  0.00  0.00    +0.000 A 
ATOM     13  C   UNL     1       7.091  16.055  23.480  0.00  0.00    +0.000 A 
ATOM     14  C   UNL     1       7.708  15.208  22.554  0.00  0.00    +0.000 A 
ENDBRANCH   8   9
BRANCH   1  16
ATOM     15  C   UNL     1      10.249  16.591  19.816  0.00  0.00    +0.000 C 
ATOM     16  C   UNL     1       9.695  15.352  19.704  0.00  0.00    +0.000 C 
BRANCH  16  17
ATOM     17  C   UNL     1       8.413  15.315  18.975  0.00  0.00    +0.000 A 
ATOM     18  C   UNL     1       7.382  16.225  19.150  0.00  0.00    +0.000 A 
ATOM     19  C   UNL     1       6.100  15.950  18.647  0.00  0.00    +0.000 A 
ATOM     20  C   UNL     1       5.853  14.773  17.945  0.00  0.00    +0.000 A 
ATOM     21  C   UNL     1       6.889  13.923  17.625  0.00  0.00    +0.000 A 
ATOM     22  C   UNL     1       8.155  14.216  18.095  0.00  0.00    +0.000 A 
BRANCH  20  23
ATOM     23  O   UNL     1       4.588  14.404  17.583  0.00  0.00    +0.000 OA
ATOM     24  H   UNL     1       4.204  15.133  17.069  0.00  0.00    +0.000 HD
ENDBRANCH  20  23
ENDBRANCH  16  17
ENDBRANCH   1  16
BRANCH   4  25
ATOM     25  O   UNL     1      12.332  11.389  18.756  0.00  0.00    +0.000 OA
ATOM     26  H   UNL     1      12.777  11.345  17.887  0.00  0.00    +0.000 HD
ENDBRANCH   4  25
BRANCH   7  27
ATOM     27  C   UNL     1       8.146  11.831  22.550  0.00  0.00    +0.000 C 
BRANCH  27  28
ATOM     28  C   UNL     1       8.385  11.784  24.065  0.00  0.00    +0.000 C 
BRANCH  28  29
ATOM     29  C   UNL     1       7.261  12.402  24.903  0.00  0.00    +0.000 C 
BRANCH  29  30
ATOM     30  C   UNL     1       7.785  12.949  26.232  0.00  0.00    +0.000 C 
BRANCH  30  31
ATOM     31  C   UNL     1       6.958  14.108  26.769  0.00  0.00    +0.000 C 
ATOM     32  C   UNL     1       5.526  13.997  26.263  0.00  0.00    +0.000 C 
ENDBRANCH  30  31
ENDBRANCH  29  30
ENDBRANCH  28  29
ENDBRANCH  27  28
ENDBRANCH   7  27
TORSDOF 10
ENDMDL
MODEL 6
REMARK VINA RESULT:      -5.9      0.989      1.714
REMARK  Name = 
REMARK  11 active torsions:
REMARK  status: ('A' for Active; 'I' for Inactive)
REMARK    1  A    between atoms: C_2  and  C_3
REMARK    2  A    between atoms: C_2  and  C_10
REMARK    3  A    between atoms: C_6  and  O_7
REMARK    4  A    between atoms: C_13  and  O_14
REMARK    5  A    between atoms: C_17  and  C_18
REMARK    6  A    between atoms: C_18  and  C_19
REMARK    7  A    between atoms: C_19  and  C_20
REMARK    8  A    between atoms: C_20  and  C_21
REMARK    9  A    between atoms: C_21  and  C_22
REMARK   10  A    between atoms: C_22  and  C_23
REMARK   11  A    between atoms: C_24  and  C_25
REMARK                            x       y       z     vdW  Elec       q    Type
REMARK                         _______ _______ _______ _____ _____    ______ ____
ROOT
ATOM      1  C   UNL     1       0.447  11.211  20.888  0.00  0.00    +0.000 C 
ATOM      2  C   UNL     1       1.299   9.865  21.114  0.00  0.00    +0.000 C 
ATOM      3  C   UNL     1       0.192   8.814  21.483  0.00  0.00    +0.000 C 
ATOM      4  C   UNL     1      -0.681   9.549  22.482  0.00  0.00    +0.000 C 
ATOM      5  C   UNL     1      -0.180  10.960  22.314  0.00  0.00    +0.000 C 
ATOM      6  C   UNL     1      -1.025  12.088  22.778  0.00  0.00    +0.000 C 
ATOM      7  C   UNL     1      -0.302  13.211  22.098  0.00  0.00    +0.000 C 
ATOM      8  C   UNL     1       0.558  12.774  21.125  0.00  0.00    +0.000 C 
ENDROOT
BRANCH   8   9
ATOM      9  C   UNL     1       1.175  13.732  20.146  0.00  0.00    +0.000 A 
ATOM     10  C   UNL     1       2.541  13.771  19.854  0.00  0.00    +0.000 A 
ATOM     11  C   UNL     1       3.069  14.739  18.974  0.00  0.00    +0.000 A 
ATOM     12  C   UNL     1       2.249  15.708  18.401  0.00  0.00    +0.000 A 
ATOM     13  C   UNL     1       0.884  15.658  18.630  0.00  0.00    +0.000 A 
ATOM     14  C   UNL     1       0.361  14.643  19.438  0.00  0.00    +0.000 A 
ENDBRANCH   8   9
BRANCH   1  16
ATOM     15  C   UNL     1       1.028  10.779  18.499  0.00  0.00    +0.000 C 
ATOM     16  C   UNL     1       0.038  11.049  19.395  0.00  0.00    +0.000 C 
BRANCH  16  17
ATOM     17  C   UNL     1      -1.308  11.179  18.803  0.00  0.00    +0.000 A 
ATOM     18  C   UNL     1      -2.272  12.079  19.228  0.00  0.00    +0.000 A 
ATOM     19  C   UNL     1      -3.607  11.935  18.818  0.00  0.00    +0.000 A 
ATOM     20  C   UNL     1      -3.977  10.902  17.960  0.00  0.00    +0.000 A 
ATOM     21  C   UNL     1      -3.018  10.085  17.402  0.00  0.00    +0.000 A 
ATOM     22  C   UNL     1      -1.700  10.253  17.784  0.00  0.00    +0.000 A 
BRANCH  20  23
ATOM     23  O   UNL     1      -5.286  10.642  17.671  0.00  0.00    +0.000 OA
ATOM     24  H   UNL     1      -5.642  11.410  17.197  0.00  0.00    +0.000 HD
ENDBRANCH  20  23
ENDBRANCH  16  17
ENDBRANCH   1  16
BRANCH   4  25
ATOM     25  O   UNL     1      -0.434   9.078  23.804  0.00  0.00    +0.000 OA
ATOM     26  H   UNL     1      -1.227   9.252  24.350  0.00  0.00    +0.000 HD
ENDBRANCH   4  25
BRANCH   7  27
ATOM     27  C   UNL     1      -0.788  14.584  22.512  0.00  0.00    +0.000 C 
BRANCH  27  28
ATOM     28  C   UNL     1      -2.304  14.803  22.610  0.00  0.00    +0.000 C 
BRANCH  28  29
ATOM     29  C   UNL     1      -2.972  15.203  21.290  0.00  0.00    +0.000 C 
BRANCH  29  30
ATOM     30  C   UNL     1      -4.358  14.573  21.147  0.00  0.00    +0.000 C 
BRANCH  30  31
ATOM     31  C   UNL     1      -4.595  13.424  22.116  0.00  0.00    +0.000 C 
ATOM     32  C   UNL     1      -5.827  12.636  21.690  0.00  0.00    +0.000 C 
ENDBRANCH  30  31
ENDBRANCH  29  30
ENDBRANCH  28  29
ENDBRANCH  27  28
ENDBRANCH   7  27
TORSDOF 10
ENDMDL
MODEL 7
REMARK VINA RESULT:      -5.8      1.129      1.713
REMARK  Name = 
REMARK  11 active torsions:
REMARK  status: ('A' for Active; 'I' for Inactive)
REMARK    1  A    between atoms: C_2  and  C_3
REMARK    2  A    between atoms: C_2  and  C_10
REMARK    3  A    between atoms: C_6  and  O_7
REMARK    4  A    between atoms: C_13  and  O_14
REMARK    5  A    between atoms: C_17  and  C_18
REMARK    6  A    between atoms: C_18  and  C_19
REMARK    7  A    between atoms: C_19  and  C_20
REMARK    8  A    between atoms: C_20  and  C_21
REMARK    9  A    between atoms: C_21  and  C_22
REMARK   10  A    between atoms: C_22  and  C_23
REMARK   11  A    between atoms: C_24  and  C_25
REMARK                            x       y       z     vdW  Elec       q    Type
REMARK                         _______ _______ _______ _____ _____    ______ ____
ROOT
ATOM      1  C   UNL     1       0.146  11.476  20.997  0.00  0.00    +0.000 C 
ATOM      2  C   UNL     1       1.233  10.306  21.186  0.00  0.00    +0.000 C 
ATOM      3  C   UNL     1       0.342   9.057  21.523  0.00  0.00    +0.000 C 
ATOM      4  C   UNL     1      -0.649   9.589  22.541  0.00  0.00    +0.000 C 
ATOM      5  C   UNL     1      -0.419  11.073  22.414  0.00  0.00    +0.000 C 
ATOM      6  C   UNL     1      -1.457  12.011  22.909  0.00  0.00    +0.000 C 
ATOM      7  C   UNL     1      -0.956  13.267  22.263  0.00  0.00    +0.000 C 
ATOM      8  C   UNL     1      -0.034  13.025  21.279  0.00  0.00    +0.000 C 
ENDROOT
BRANCH   8   9
ATOM      9  C   UNL     1       0.391  14.108  20.329  0.00  0.00    +0.000 A 
ATOM     10  C   UNL     1       1.714  14.537  20.183  0.00  0.00    +0.000 A 
ATOM     11  C   UNL     1       2.040  15.606  19.322  0.00  0.00    +0.000 A 
ATOM     12  C   UNL     1       1.048  16.289  18.621  0.00  0.00    +0.000 A 
ATOM     13  C   UNL     1      -0.262  15.848  18.705  0.00  0.00    +0.000 A 
ATOM     14  C   UNL     1      -0.562  14.735  19.497  0.00  0.00    +0.000 A 
ENDBRANCH   8   9
BRANCH   1  16
ATOM     15  C   UNL     1       0.771  11.384  18.582  0.00  0.00    +0.000 C 
ATOM     16  C   UNL     1      -0.231  11.284  19.499  0.00  0.00    +0.000 C 
BRANCH  16  17
ATOM     17  C   UNL     1      -1.566  11.028  18.924  0.00  0.00    +0.000 A 
ATOM     18  C   UNL     1      -1.828  10.108  17.921  0.00  0.00    +0.000 A 
ATOM     19  C   UNL     1      -3.052  10.139  17.232  0.00  0.00    +0.000 A 
ATOM     20  C   UNL     1      -4.026  11.076  17.563  0.00  0.00    +0.000 A 
ATOM     21  C   UNL     1      -3.856  11.903  18.652  0.00  0.00    +0.000 A 
ATOM     22  C   UNL     1      -2.663  11.844  19.347  0.00  0.00    +0.000 A 
BRANCH  20  23
ATOM     23  O   UNL     1      -5.156  11.234  16.810  0.00  0.00    +0.000 OA
ATOM     24  H   UNL     1      -4.950  10.950  15.905  0.00  0.00    +0.000 HD
ENDBRANCH  20  23
ENDBRANCH  16  17
ENDBRANCH   1  16
BRANCH   4  25
ATOM     25  O   UNL     1      -0.315   9.135  23.849  0.00  0.00    +0.000 OA
ATOM     26  H   UNL     1      -1.005   9.440  24.471  0.00  0.00    +0.000 HD
ENDBRANCH   4  25
BRANCH   7  27
ATOM     27  C   UNL     1      -1.687  14.514  22.715  0.00  0.00    +0.000 C 
BRANCH  27  28
ATOM     28  C   UNL     1      -3.078  14.337  23.338  0.00  0.00    +0.000 C 
BRANCH  28  29
ATOM     29  C   UNL     1      -4.227  14.297  22.325  0.00  0.00    +0.000 C 
BRANCH  29  30
ATOM     30  C   UNL     1      -3.831  14.948  20.999  0.00  0.00    +0.000 C 
BRANCH  30  31
ATOM     31  C   UNL     1      -4.374  16.360  20.840  0.00  0.00    +0.000 C 
ATOM     32  C   UNL     1      -3.243  17.309  20.466  0.00  0.00    +0.000 C 
ENDBRANCH  30  31
ENDBRANCH  29  30
ENDBRANCH  28  29
ENDBRANCH  27  28
ENDBRANCH   7  27
TORSDOF 10
ENDMDL
MODEL 8
REMARK VINA RESULT:      -5.8      1.236      2.599
REMARK  Name = 
REMARK  11 active torsions:
REMARK  status: ('A' for Active; 'I' for Inactive)
REMARK    1  A    between atoms: C_2  and  C_3
REMARK    2  A    between atoms: C_2  and  C_10
REMARK    3  A    between atoms: C_6  and  O_7
REMARK    4  A    between atoms: C_13  and  O_14
REMARK    5  A    between atoms: C_17  and  C_18
REMARK    6  A    between atoms: C_18  and  C_19
REMARK    7  A    between atoms: C_19  and  C_20
REMARK    8  A    between atoms: C_20  and  C_21
REMARK    9  A    between atoms: C_21  and  C_22
REMARK   10  A    between atoms: C_22  and  C_23
REMARK   11  A    between atoms: C_24  and  C_25
REMARK                            x       y       z     vdW  Elec       q    Type
REMARK                         _______ _______ _______ _____ _____    ______ ____
ROOT
ATOM      1  C   UNL     1       0.160  11.397  21.001  0.00  0.00    +0.000 C 
ATOM      2  C   UNL     1       1.195  10.179  21.179  0.00  0.00    +0.000 C 
ATOM      3  C   UNL     1       0.253   8.976  21.542  0.00  0.00    +0.000 C 
ATOM      4  C   UNL     1      -0.692   9.560  22.575  0.00  0.00    +0.000 C 
ATOM      5  C   UNL     1      -0.396  11.030  22.432  0.00  0.00    +0.000 C 
ATOM      6  C   UNL     1      -1.380  12.019  22.939  0.00  0.00    +0.000 C 
ATOM      7  C   UNL     1      -0.834  13.246  22.273  0.00  0.00    +0.000 C 
ATOM      8  C   UNL     1       0.057  12.955  21.274  0.00  0.00    +0.000 C 
ENDROOT
BRANCH   8   9
ATOM      9  C   UNL     1       0.513  14.010  20.308  0.00  0.00    +0.000 A 
ATOM     10  C   UNL     1       1.856  14.271  20.020  0.00  0.00    +0.000 A 
ATOM     11  C   UNL     1       2.223  15.321  19.153  0.00  0.00    +0.000 A 
ATOM     12  C   UNL     1       1.258  16.153  18.588  0.00  0.00    +0.000 A 
ATOM     13  C   UNL     1      -0.081  15.881  18.812  0.00  0.00    +0.000 A 
ATOM     14  C   UNL     1      -0.435  14.787  19.607  0.00  0.00    +0.000 A 
ENDBRANCH   8   9
BRANCH   1  16
ATOM     15  C   UNL     1       0.737  10.978  18.609  0.00  0.00    +0.000 C 
ATOM     16  C   UNL     1      -0.256  11.212  19.512  0.00  0.00    +0.000 C 
BRANCH  16  17
ATOM     17  C   UNL     1      -1.610  11.284  18.931  0.00  0.00    +0.000 A 
ATOM     18  C   UNL     1      -2.606  12.147  19.360  0.00  0.00    +0.000 A 
ATOM     19  C   UNL     1      -3.938  11.947  18.962  0.00  0.00    +0.000 A 
ATOM     20  C   UNL     1      -4.272  10.896  18.113  0.00  0.00    +0.000 A 
ATOM     21  C   UNL     1      -3.286  10.114  17.551  0.00  0.00    +0.000 A 
ATOM     22  C   UNL     1      -1.973  10.337  17.920  0.00  0.00    +0.000 A 
BRANCH  20  23
ATOM     23  O   UNL     1      -5.573  10.581  17.836  0.00  0.00    +0.000 OA
ATOM     24  H   UNL     1      -5.648   9.613  17.832  0.00  0.00    +0.000 HD
ENDBRANCH  20  23
ENDBRANCH  16  17
ENDBRANCH   1  16
BRANCH   4  25
ATOM     25  O   UNL     1      -0.354   9.100  23.880  0.00  0.00    +0.000 OA
ATOM     26  H   UNL     1       0.565   9.369  24.078  0.00  0.00    +0.000 HD
ENDBRANCH   4  25
BRANCH   7  27
ATOM     27  C   UNL     1      -1.498  14.529  22.729  0.00  0.00    +0.000 C 
BRANCH  27  28
ATOM     28  C   UNL     1      -1.061  15.115  24.079  0.00  0.00    +0.000 C 
BRANCH  28  29
ATOM     29  C   UNL     1      -0.424  16.505  23.990  0.00  0.00    +0.000 C 
BRANCH  29  30
ATOM     30  C   UNL     1      -0.392  17.019  22.550  0.00  0.00    +0.000 C 
BRANCH  30  31
ATOM     31  C   UNL     1       0.999  17.439  22.096  0.00  0.00    +0.000 C 
ATOM     32  C   UNL     1       2.049  16.587  22.796  0.00  0.00    +0.000 C 
ENDBRANCH  30  31
ENDBRANCH  29  30
ENDBRANCH  28  29
ENDBRANCH  27  28
ENDBRANCH   7  27
TORSDOF 10
ENDMDL
MODEL 9
REMARK VINA RESULT:      -5.7      1.268      2.397
REMARK  Name = 
REMARK  11 active torsions:
REMARK  status: ('A' for Active; 'I' for Inactive)
REMARK    1  A    between atoms: C_2  and  C_3
REMARK    2  A    between atoms: C_2  and  C_10
REMARK    3  A    between atoms: C_6  and  O_7
REMARK    4  A    between atoms: C_13  and  O_14
REMARK    5  A    between atoms: C_17  and  C_18
REMARK    6  A    between atoms: C_18  and  C_19
REMARK    7  A    between atoms: C_19  and  C_20
REMARK    8  A    between atoms: C_20  and  C_21
REMARK    9  A    between atoms: C_21  and  C_22
REMARK   10  A    between atoms: C_22  and  C_23
REMARK   11  A    between atoms: C_24  and  C_25
REMARK                            x       y       z     vdW  Elec       q    Type
REMARK                         _______ _______ _______ _____ _____    ______ ____
ROOT
ATOM      1  C   UNL     1       0.141  11.487  20.983  0.00  0.00    +0.000 C 
ATOM      2  C   UNL     1       1.231  10.320  21.182  0.00  0.00    +0.000 C 
ATOM      3  C   UNL     1       0.342   9.069  21.515  0.00  0.00    +0.000 C 
ATOM      4  C   UNL     1      -0.658   9.599  22.525  0.00  0.00    +0.000 C 
ATOM      5  C   UNL     1      -0.433  11.083  22.397  0.00  0.00    +0.000 C 
ATOM      6  C   UNL     1      -1.477  12.018  22.883  0.00  0.00    +0.000 C 
ATOM      7  C   UNL     1      -0.977  13.276  22.237  0.00  0.00    +0.000 C 
ATOM      8  C   UNL     1      -0.047  13.035  21.261  0.00  0.00    +0.000 C 
ENDROOT
BRANCH   8   9
ATOM      9  C   UNL     1       0.381  14.118  20.312  0.00  0.00    +0.000 A 
ATOM     10  C   UNL     1       1.705  14.540  20.162  0.00  0.00    +0.000 A 
ATOM     11  C   UNL     1       2.034  15.609  19.302  0.00  0.00    +0.000 A 
ATOM     12  C   UNL     1       1.044  16.298  18.606  0.00  0.00    +0.000 A 
ATOM     13  C   UNL     1      -0.268  15.864  18.693  0.00  0.00    +0.000 A 
ATOM     14  C   UNL     1      -0.571  14.752  19.485  0.00  0.00    +0.000 A 
ENDBRANCH   8   9
BRANCH   1  16
ATOM     15  C   UNL     1       0.783  11.391  18.573  0.00  0.00    +0.000 C 
ATOM     16  C   UNL     1      -0.225  11.289  19.483  0.00  0.00    +0.000 C 
BRANCH  16  17
ATOM     17  C   UNL     1      -1.555  11.027  18.899  0.00  0.00    +0.000 A 
ATOM     18  C   UNL     1      -1.803  10.119  17.883  0.00  0.00    +0.000 A 
ATOM     19  C   UNL     1      -3.024  10.146  17.190  0.00  0.00    +0.000 A 
ATOM     20  C   UNL     1      -4.010  11.069  17.528  0.00  0.00    +0.000 A 
ATOM     21  C   UNL     1      -3.852  11.883  18.629  0.00  0.00    +0.000 A 
ATOM     22  C   UNL     1      -2.661  11.827  19.329  0.00  0.00    +0.000 A 
BRANCH  20  23
ATOM     23  O   UNL     1      -5.138  11.226  16.774  0.00  0.00    +0.000 OA
ATOM     24  H   UNL     1      -4.860  11.430  15.866  0.00  0.00    +0.000 HD
ENDBRANCH  20  23
ENDBRANCH  16  17
ENDBRANCH   1  16
BRANCH   4  25
ATOM     25  O   UNL     1      -0.332   9.149  23.837  0.00  0.00    +0.000 OA
ATOM     26  H   UNL     1      -1.116   9.262  24.410  0.00  0.00    +0.000 HD
ENDBRANCH   4  25
BRANCH   7  27
ATOM     27  C   UNL     1      -1.716  14.521  22.682  0.00  0.00    +0.000 C 
BRANCH  27  28
ATOM     28  C   UNL     1      -1.040  15.412  23.734  0.00  0.00    +0.000 C 
BRANCH  28  29
ATOM     29  C   UNL     1       0.184  16.178  23.223  0.00  0.00    +0.000 C 
BRANCH  29  30
ATOM     30  C   UNL     1      -0.115  17.668  23.053  0.00  0.00    +0.000 C 
BRANCH  30  31
ATOM     31  C   UNL     1       0.170  18.179  21.647  0.00  0.00    +0.000 C 
ATOM     32  C   UNL     1      -1.133  18.588  20.974  0.00  0.00    +0.000 C 
ENDBRANCH  30  31
ENDBRANCH  29  30
ENDBRANCH  28  29
ENDBRANCH  27  28
ENDBRANCH   7  27
TORSDOF 10
ENDMDL
