MODEL 1
REMARK VINA RESULT:      -7.5      0.000      0.000
REMARK  Name = 
REMARK  4 active torsions:
REMARK  status: ('A' for Active; 'I' for Inactive)
REMARK    1  A    between atoms: C_1  and  C_2
REMARK    2  A    between atoms: C_2  and  C_3
REMARK    3  A    between atoms: C_2  and  C_11
REMARK    4  A    between atoms: C_3  and  C_5
REMARK                            x       y       z     vdW  Elec       q    Type
REMARK                         _______ _______ _______ _____ _____    ______ ____
ROOT
ATOM      1  C   UNL     1       6.156   5.378  17.164  0.00  0.00    +0.000 A 
ATOM      2  N   UNL     1       7.287   6.032  17.454  0.00  0.00    +0.000 NA
ATOM      3  S   UNL     1       7.582   5.717  19.061  0.00  0.00    +0.000 S 
ATOM      4  N   UNL     1       6.291   4.728  19.404  0.00  0.00    +0.000 NA
ATOM      5  C   UNL     1       5.552   4.660  18.292  0.00  0.00    +0.000 A 
ATOM      6  N   UNL     1       4.395   3.932  18.221  0.00  0.00    +0.000 N 
ATOM      7  C   UNL     1       3.219   4.283  17.424  0.00  0.00    +0.000 C 
ATOM      8  C   UNL     1       1.950   4.241  18.275  0.00  0.00    +0.000 C 
ATOM      9  O   UNL     1       1.789   2.957  18.887  0.00  0.00    +0.000 OA
ATOM     10  C   UNL     1       2.904   2.683  19.753  0.00  0.00    +0.000 C 
ATOM     11  C   UNL     1       4.240   2.690  18.995  0.00  0.00    +0.000 C 
ENDROOT
BRANCH   1  13
ATOM     12  C   UNL     1       5.044   6.780  15.426  0.00  0.00    +0.000 C 
ATOM     13  C   UNL     1       5.651   5.406  15.750  0.00  0.00    +0.000 C 
BRANCH  13  14
ATOM     14  C   UNL     1       6.703   5.015  14.715  0.00  0.00    +0.000 C 
ATOM     15  O   UNL     1       7.854   5.457  14.748  0.00  0.00    +0.000 OA
BRANCH  14  16
ATOM     16  C   UNL     1       6.308   4.186  13.529  0.00  0.00    +0.000 A 
ATOM     17  C   UNL     1       4.940   3.935  13.342  0.00  0.00    +0.000 A 
ATOM     18  C   UNL     1       4.496   3.164  12.266  0.00  0.00    +0.000 A 
ATOM     19  C   UNL     1       5.414   2.641  11.360  0.00  0.00    +0.000 A 
ATOM     20  C   UNL     1       6.775   2.885  11.533  0.00  0.00    +0.000 A 
ATOM     21  C   UNL     1       7.224   3.649  12.616  0.00  0.00    +0.000 A 
ENDBRANCH  14  16
ENDBRANCH  13  14
ENDBRANCH   1  13
TORSDOF 3
ENDMDL
MODEL 2
REMARK VINA RESULT:      -7.5      0.298      1.091
REMARK  Name = 
REMARK  4 active torsions:
REMARK  status: ('A' for Active; 'I' for Inactive)
REMARK    1  A    between atoms: C_1  and  C_2
REMARK    2  A    between atoms: C_2  and  C_3
REMARK    3  A    between atoms: C_2  and  C_11
REMARK    4  A    between atoms: C_3  and  C_5
REMARK                            x       y       z     vdW  Elec       q    Type
REMARK                         _______ _______ _______ _____ _____    ______ ____
ROOT
ATOM      1  C   UNL     1       6.196   5.451  17.368  0.00  0.00    +0.000 A 
ATOM      2  N   UNL     1       7.346   6.098  17.591  0.00  0.00    +0.000 NA
ATOM      3  S   UNL     1       7.706   5.825  19.193  0.00  0.00    +0.000 S 
ATOM      4  N   UNL     1       6.418   4.864  19.619  0.00  0.00    +0.000 NA
ATOM      5  C   UNL     1       5.633   4.773  18.541  0.00  0.00    +0.000 A 
ATOM      6  N   UNL     1       4.465   4.059  18.541  0.00  0.00    +0.000 N 
ATOM      7  C   UNL     1       3.260   4.403  17.784  0.00  0.00    +0.000 C 
ATOM      8  C   UNL     1       2.028   4.402  18.689  0.00  0.00    +0.000 C 
ATOM      9  O   UNL     1       1.877   3.139  19.345  0.00  0.00    +0.000 OA
ATOM     10  C   UNL     1       3.025   2.875  20.171  0.00  0.00    +0.000 C 
ATOM     11  C   UNL     1       4.328   2.842  19.357  0.00  0.00    +0.000 C 
ENDROOT
BRANCH   1  13
ATOM     12  C   UNL     1       4.976   6.797  15.660  0.00  0.00    +0.000 C 
ATOM     13  C   UNL     1       5.632   5.445  15.977  0.00  0.00    +0.000 C 
BRANCH  13  14
ATOM     14  C   UNL     1       6.650   5.064  14.904  0.00  0.00    +0.000 C 
ATOM     15  O   UNL     1       7.806   5.496  14.912  0.00  0.00    +0.000 OA
BRANCH  14  16
ATOM     16  C   UNL     1       6.212   4.263  13.713  0.00  0.00    +0.000 A 
ATOM     17  C   UNL     1       7.201   3.875  12.796  0.00  0.00    +0.000 A 
ATOM     18  C   UNL     1       6.869   3.136  11.658  0.00  0.00    +0.000 A 
ATOM     19  C   UNL     1       5.545   2.771  11.429  0.00  0.00    +0.000 A 
ATOM     20  C   UNL     1       4.555   3.149  12.333  0.00  0.00    +0.000 A 
ATOM     21  C   UNL     1       4.883   3.898  13.469  0.00  0.00    +0.000 A 
ENDBRANCH  14  16
ENDBRANCH  13  14
ENDBRANCH   1  13
TORSDOF 3
ENDMDL
MODEL 3
REMARK VINA RESULT:      -7.3      1.275      1.572
REMARK  Name = 
REMARK  4 active torsions:
REMARK  status: ('A' for Active; 'I' for Inactive)
REMARK    1  A    between atoms: C_1  and  C_2
REMARK    2  A    between atoms: C_2  and  C_3
REMARK    3  A    between atoms: C_2  and  C_11
REMARK    4  A    between atoms: C_3  and  C_5
REMARK                            x       y       z     vdW  Elec       q    Type
REMARK                         _______ _______ _______ _____ _____    ______ ____
ROOT
ATOM      1  C   UNL     1       5.820   5.295  17.666  0.00  0.00    +0.000 A 
ATOM      2  N   UNL     1       6.953   6.005  17.712  0.00  0.00    +0.000 NA
ATOM      3  S   UNL     1       7.528   5.826  19.263  0.00  0.00    +0.000 S 
ATOM      4  N   UNL     1       6.357   4.827  19.891  0.00  0.00    +0.000 NA
ATOM      5  C   UNL     1       5.447   4.649  18.929  0.00  0.00    +0.000 A 
ATOM      6  N   UNL     1       4.327   3.882  19.110  0.00  0.00    +0.000 N 
ATOM      7  C   UNL     1       3.020   4.133  18.502  0.00  0.00    +0.000 C 
ATOM      8  C   UNL     1       1.915   4.118  19.558  0.00  0.00    +0.000 C 
ATOM      9  O   UNL     1       1.915   2.881  20.279  0.00  0.00    +0.000 OA
ATOM     10  C   UNL     1       3.171   2.711  20.960  0.00  0.00    +0.000 C 
ATOM     11  C   UNL     1       4.359   2.700  19.986  0.00  0.00    +0.000 C 
ENDROOT
BRANCH   1  13
ATOM     12  C   UNL     1       5.227   6.504  15.567  0.00  0.00    +0.000 C 
ATOM     13  C   UNL     1       5.084   5.197  16.361  0.00  0.00    +0.000 C 
BRANCH  13  14
ATOM     14  C   UNL     1       5.494   3.994  15.515  0.00  0.00    +0.000 C 
ATOM     15  O   UNL     1       5.392   2.835  15.928  0.00  0.00    +0.000 OA
BRANCH  14  16
ATOM     16  C   UNL     1       6.181   4.209  14.199  0.00  0.00    +0.000 A 
ATOM     17  C   UNL     1       5.663   3.538  13.081  0.00  0.00    +0.000 A 
ATOM     18  C   UNL     1       6.255   3.680  11.824  0.00  0.00    +0.000 A 
ATOM     19  C   UNL     1       7.368   4.502  11.671  0.00  0.00    +0.000 A 
ATOM     20  C   UNL     1       7.891   5.175  12.772  0.00  0.00    +0.000 A 
ATOM     21  C   UNL     1       7.307   5.026  14.035  0.00  0.00    +0.000 A 
ENDBRANCH  14  16
ENDBRANCH  13  14
ENDBRANCH   1  13
TORSDOF 3
ENDMDL
MODEL 4
REMARK VINA RESULT:      -7.3      3.605      6.759
REMARK  Name = 
REMARK  4 active torsions:
REMARK  status: ('A' for Active; 'I' for Inactive)
REMARK    1  A    between atoms: C_1  and  C_2
REMARK    2  A    between atoms: C_2  and  C_3
REMARK    3  A    between atoms: C_2  and  C_11
REMARK    4  A    between atoms: C_3  and  C_5
REMARK                            x       y       z     vdW  Elec       q    Type
REMARK                         _______ _______ _______ _____ _____    ______ ____
ROOT
ATOM      1  C   UNL     1       3.376   4.119  18.861  0.00  0.00    +0.000 A 
ATOM      2  N   UNL     1       2.821   2.942  19.173  0.00  0.00    +0.000 NA
ATOM      3  S   UNL     1       4.077   1.978  19.681  0.00  0.00    +0.000 S 
ATOM      4  N   UNL     1       5.340   3.048  19.534  0.00  0.00    +0.000 NA
ATOM      5  C   UNL     1       4.833   4.175  19.025  0.00  0.00    +0.000 A 
ATOM      6  N   UNL     1       5.604   5.275  18.760  0.00  0.00    +0.000 N 
ATOM      7  C   UNL     1       5.389   6.217  17.661  0.00  0.00    +0.000 C 
ATOM      8  C   UNL     1       6.676   6.431  16.865  0.00  0.00    +0.000 C 
ATOM      9  O   UNL     1       7.736   6.874  17.718  0.00  0.00    +0.000 OA
ATOM     10  C   UNL     1       8.005   5.879  18.723  0.00  0.00    +0.000 C 
ATOM     11  C   UNL     1       6.774   5.591  19.595  0.00  0.00    +0.000 C 
ENDROOT
BRANCH   1  13
ATOM     12  C   UNL     1       1.224   4.694  17.741  0.00  0.00    +0.000 C 
ATOM     13  C   UNL     1       2.483   5.245  18.427  0.00  0.00    +0.000 C 
BRANCH  13  14
ATOM     14  C   UNL     1       2.116   6.206  19.555  0.00  0.00    +0.000 C 
ATOM     15  O   UNL     1       1.897   5.817  20.705  0.00  0.00    +0.000 OA
BRANCH  14  16
ATOM     16  C   UNL     1       1.862   7.652  19.248  0.00  0.00    +0.000 A 
ATOM     17  C   UNL     1       1.260   8.430  20.249  0.00  0.00    +0.000 A 
ATOM     18  C   UNL     1       0.983   9.782  20.033  0.00  0.00    +0.000 A 
ATOM     19  C   UNL     1       1.312  10.373  18.816  0.00  0.00    +0.000 A 
ATOM     20  C   UNL     1       1.912   9.611  17.815  0.00  0.00    +0.000 A 
ATOM     21  C   UNL     1       2.181   8.254  18.025  0.00  0.00    +0.000 A 
ENDBRANCH  14  16
ENDBRANCH  13  14
ENDBRANCH   1  13
TORSDOF 3
ENDMDL
MODEL 5
REMARK VINA RESULT:      -7.3      3.617      6.834
REMARK  Name = 
REMARK  4 active torsions:
REMARK  status: ('A' for Active; 'I' for Inactive)
REMARK    1  A    between atoms: C_1  and  C_2
REMARK    2  A    between atoms: C_2  and  C_3
REMARK    3  A    between atoms: C_2  and  C_11
REMARK    4  A    between atoms: C_3  and  C_5
REMARK                            x       y       z     vdW  Elec       q    Type
REMARK                         _______ _______ _______ _____ _____    ______ ____
ROOT
ATOM      1  C   UNL     1       3.372   4.196  18.871  0.00  0.00    +0.000 A 
ATOM      2  N   UNL     1       2.801   3.024  19.173  0.00  0.00    +0.000 NA
ATOM      3  S   UNL     1       4.048   2.030  19.647  0.00  0.00    +0.000 S 
ATOM      4  N   UNL     1       5.328   3.080  19.495  0.00  0.00    +0.000 NA
ATOM      5  C   UNL     1       4.833   4.224  19.012  0.00  0.00    +0.000 A 
ATOM      6  N   UNL     1       5.619   5.314  18.751  0.00  0.00    +0.000 N 
ATOM      7  C   UNL     1       5.402   6.276  17.671  0.00  0.00    +0.000 C 
ATOM      8  C   UNL     1       6.680   6.480  16.857  0.00  0.00    +0.000 C 
ATOM      9  O   UNL     1       7.762   6.891  17.700  0.00  0.00    +0.000 OA
ATOM     10  C   UNL     1       8.029   5.876  18.684  0.00  0.00    +0.000 C 
ATOM     11  C   UNL     1       6.807   5.597  19.572  0.00  0.00    +0.000 C 
ENDROOT
BRANCH   1  13
ATOM     12  C   UNL     1       1.241   4.829  17.740  0.00  0.00    +0.000 C 
ATOM     13  C   UNL     1       2.492   5.344  18.468  0.00  0.00    +0.000 C 
BRANCH  13  14
ATOM     14  C   UNL     1       2.112   6.261  19.629  0.00  0.00    +0.000 C 
ATOM     15  O   UNL     1       1.918   5.831  20.769  0.00  0.00    +0.000 OA
BRANCH  14  16
ATOM     16  C   UNL     1       1.814   7.707  19.367  0.00  0.00    +0.000 A 
ATOM     17  C   UNL     1       2.176   8.226  18.115  0.00  0.00    +0.000 A 
ATOM     18  C   UNL     1       1.940   9.566  17.801  0.00  0.00    +0.000 A 
ATOM     19  C   UNL     1       1.333  10.401  18.735  0.00  0.00    +0.000 A 
ATOM     20  C   UNL     1       0.967   9.898  19.981  0.00  0.00    +0.000 A 
ATOM     21  C   UNL     1       1.212   8.558  20.302  0.00  0.00    +0.000 A 
ENDBRANCH  14  16
ENDBRANCH  13  14
ENDBRANCH   1  13
TORSDOF 3
ENDMDL
MODEL 6
REMARK VINA RESULT:      -7.2      1.279      1.737
REMARK  Name = 
REMARK  4 active torsions:
REMARK  status: ('A' for Active; 'I' for Inactive)
REMARK    1  A    between atoms: C_1  and  C_2
REMARK    2  A    between atoms: C_2  and  C_3
REMARK    3  A    between atoms: C_2  and  C_11
REMARK    4  A    between atoms: C_3  and  C_5
REMARK                            x       y       z     vdW  Elec       q    Type
REMARK                         _______ _______ _______ _____ _____    ______ ____
ROOT
ATOM      1  C   UNL     1       5.795   5.318  17.652  0.00  0.00    +0.000 A 
ATOM      2  N   UNL     1       6.927   6.029  17.698  0.00  0.00    +0.000 NA
ATOM      3  S   UNL     1       7.504   5.848  19.248  0.00  0.00    +0.000 S 
ATOM      4  N   UNL     1       6.336   4.846  19.875  0.00  0.00    +0.000 NA
ATOM      5  C   UNL     1       5.424   4.668  18.914  0.00  0.00    +0.000 A 
ATOM      6  N   UNL     1       4.306   3.900  19.094  0.00  0.00    +0.000 N 
ATOM      7  C   UNL     1       2.998   4.150  18.488  0.00  0.00    +0.000 C 
ATOM      8  C   UNL     1       1.893   4.131  19.546  0.00  0.00    +0.000 C 
ATOM      9  O   UNL     1       1.896   2.893  20.264  0.00  0.00    +0.000 OA
ATOM     10  C   UNL     1       3.154   2.723  20.943  0.00  0.00    +0.000 C 
ATOM     11  C   UNL     1       4.341   2.716  19.968  0.00  0.00    +0.000 C 
ENDROOT
BRANCH   1  13
ATOM     12  C   UNL     1       5.255   6.504  15.526  0.00  0.00    +0.000 C 
ATOM     13  C   UNL     1       5.058   5.222  16.348  0.00  0.00    +0.000 C 
BRANCH  13  14
ATOM     14  C   UNL     1       5.420   3.985  15.528  0.00  0.00    +0.000 C 
ATOM     15  O   UNL     1       5.299   2.842  15.976  0.00  0.00    +0.000 OA
BRANCH  14  16
ATOM     16  C   UNL     1       6.086   4.145  14.194  0.00  0.00    +0.000 A 
ATOM     17  C   UNL     1       7.225   4.962  14.133  0.00  0.00    +0.000 A 
ATOM     18  C   UNL     1       7.894   5.167  12.924  0.00  0.00    +0.000 A 
ATOM     19  C   UNL     1       7.434   4.552  11.763  0.00  0.00    +0.000 A 
ATOM     20  C   UNL     1       6.305   3.737  11.811  0.00  0.00    +0.000 A 
ATOM     21  C   UNL     1       5.627   3.538  13.018  0.00  0.00    +0.000 A 
ENDBRANCH  14  16
ENDBRANCH  13  14
ENDBRANCH   1  13
TORSDOF 3
ENDMDL
MODEL 7
REMARK VINA RESULT:      -7.1      3.239      6.792
REMARK  Name = 
REMARK  4 active torsions:
REMARK  status: ('A' for Active; 'I' for Inactive)
REMARK    1  A    between atoms: C_1  and  C_2
REMARK    2  A    between atoms: C_2  and  C_3
REMARK    3  A    between atoms: C_2  and  C_11
REMARK    4  A    between atoms: C_3  and  C_5
REMARK                            x       y       z     vdW  Elec       q    Type
REMARK                         _______ _______ _______ _____ _____    ______ ____
ROOT
ATOM      1  C   UNL     1       3.375   4.229  19.103  0.00  0.00    +0.000 A 
ATOM      2  N   UNL     1       2.855   3.349  19.966  0.00  0.00    +0.000 NA
ATOM      3  S   UNL     1       4.093   2.301  20.335  0.00  0.00    +0.000 S 
ATOM      4  N   UNL     1       5.313   2.963  19.421  0.00  0.00    +0.000 NA
ATOM      5  C   UNL     1       4.780   3.988  18.750  0.00  0.00    +0.000 A 
ATOM      6  N   UNL     1       5.507   4.759  17.884  0.00  0.00    +0.000 N 
ATOM      7  C   UNL     1       4.991   5.380  16.664  0.00  0.00    +0.000 C 
ATOM      8  C   UNL     1       5.887   5.058  15.467  0.00  0.00    +0.000 C 
ATOM      9  O   UNL     1       7.237   5.463  15.717  0.00  0.00    +0.000 OA
ATOM     10  C   UNL     1       7.759   4.755  16.855  0.00  0.00    +0.000 C 
ATOM     11  C   UNL     1       6.936   5.016  18.126  0.00  0.00    +0.000 C 
ENDROOT
BRANCH   1  13
ATOM     12  C   UNL     1       1.302   4.827  17.854  0.00  0.00    +0.000 C 
ATOM     13  C   UNL     1       2.517   5.364  18.626  0.00  0.00    +0.000 C 
BRANCH  13  14
ATOM     14  C   UNL     1       2.082   6.315  19.739  0.00  0.00    +0.000 C 
ATOM     15  O   UNL     1       1.834   5.920  20.881  0.00  0.00    +0.000 OA
BRANCH  14  16
ATOM     16  C   UNL     1       1.799   7.753  19.421  0.00  0.00    +0.000 A 
ATOM     17  C   UNL     1       2.210   8.231  18.167  0.00  0.00    +0.000 A 
ATOM     18  C   UNL     1       1.990   9.561  17.802  0.00  0.00    +0.000 A 
ATOM     19  C   UNL     1       1.350  10.426  18.685  0.00  0.00    +0.000 A 
ATOM     20  C   UNL     1       0.936   9.963  19.932  0.00  0.00    +0.000 A 
ATOM     21  C   UNL     1       1.164   8.634  20.304  0.00  0.00    +0.000 A 
ENDBRANCH  14  16
ENDBRANCH  13  14
ENDBRANCH   1  13
TORSDOF 3
ENDMDL
MODEL 8
REMARK VINA RESULT:      -6.9      1.861      6.314
REMARK  Name = 
REMARK  4 active torsions:
REMARK  status: ('A' for Active; 'I' for Inactive)
REMARK    1  A    between atoms: C_1  and  C_2
REMARK    2  A    between atoms: C_2  and  C_3
REMARK    3  A    between atoms: C_2  and  C_11
REMARK    4  A    between atoms: C_3  and  C_5
REMARK                            x       y       z     vdW  Elec       q    Type
REMARK                         _______ _______ _______ _____ _____    ______ ____
ROOT
ATOM      1  C   UNL     1       5.662   4.383  17.163  0.00  0.00    +0.000 A 
ATOM      2  N   UNL     1       6.097   4.362  18.428  0.00  0.00    +0.000 NA
ATOM      3  S   UNL     1       7.731   4.662  18.341  0.00  0.00    +0.000 S 
ATOM      4  N   UNL     1       7.904   4.845  16.698  0.00  0.00    +0.000 NA
ATOM      5  C   UNL     1       6.704   4.617  16.156  0.00  0.00    +0.000 A 
ATOM      6  N   UNL     1       6.483   4.672  14.806  0.00  0.00    +0.000 N 
ATOM      7  C   UNL     1       5.533   3.841  14.068  0.00  0.00    +0.000 C 
ATOM      8  C   UNL     1       6.206   3.180  12.864  0.00  0.00    +0.000 C 
ATOM      9  O   UNL     1       6.800   4.161  12.009  0.00  0.00    +0.000 OA
ATOM     10  C   UNL     1       7.810   4.891  12.728  0.00  0.00    +0.000 C 
ATOM     11  C   UNL     1       7.239   5.609  13.959  0.00  0.00    +0.000 C 
ENDROOT
BRANCH   1  13
ATOM     12  C   UNL     1       3.801   2.730  17.006  0.00  0.00    +0.000 C 
ATOM     13  C   UNL     1       4.193   4.211  16.904  0.00  0.00    +0.000 C 
BRANCH  13  14
ATOM     14  C   UNL     1       3.307   5.075  17.799  0.00  0.00    +0.000 C 
ATOM     15  O   UNL     1       3.269   6.304  17.696  0.00  0.00    +0.000 OA
BRANCH  14  16
ATOM     16  C   UNL     1       2.566   4.447  18.941  0.00  0.00    +0.000 A 
ATOM     17  C   UNL     1       1.391   3.742  18.640  0.00  0.00    +0.000 A 
ATOM     18  C   UNL     1       0.641   3.137  19.652  0.00  0.00    +0.000 A 
ATOM     19  C   UNL     1       1.062   3.226  20.975  0.00  0.00    +0.000 A 
ATOM     20  C   UNL     1       2.228   3.922  21.287  0.00  0.00    +0.000 A 
ATOM     21  C   UNL     1       2.976   4.537  20.277  0.00  0.00    +0.000 A 
ENDBRANCH  14  16
ENDBRANCH  13  14
ENDBRANCH   1  13
TORSDOF 3
ENDMDL
MODEL 9
REMARK VINA RESULT:      -6.8      1.782      6.360
REMARK  Name = 
REMARK  4 active torsions:
REMARK  status: ('A' for Active; 'I' for Inactive)
REMARK    1  A    between atoms: C_1  and  C_2
REMARK    2  A    between atoms: C_2  and  C_3
REMARK    3  A    between atoms: C_2  and  C_11
REMARK    4  A    between atoms: C_3  and  C_5
REMARK                            x       y       z     vdW  Elec       q    Type
REMARK                         _______ _______ _______ _____ _____    ______ ____
ROOT
ATOM      1  C   UNL     1       5.607   4.385  17.257  0.00  0.00    +0.000 A 
ATOM      2  N   UNL     1       6.013   4.375  18.532  0.00  0.00    +0.000 NA
ATOM      3  S   UNL     1       7.627   4.775  18.488  0.00  0.00    +0.000 S 
ATOM      4  N   UNL     1       7.828   4.988  16.852  0.00  0.00    +0.000 NA
ATOM      5  C   UNL     1       6.657   4.695  16.279  0.00  0.00    +0.000 A 
ATOM      6  N   UNL     1       6.465   4.753  14.924  0.00  0.00    +0.000 N 
ATOM      7  C   UNL     1       5.585   3.874  14.153  0.00  0.00    +0.000 C 
ATOM      8  C   UNL     1       6.326   3.270  12.960  0.00  0.00    +0.000 C 
ATOM      9  O   UNL     1       6.879   4.297  12.130  0.00  0.00    +0.000 OA
ATOM     10  C   UNL     1       7.826   5.078  12.881  0.00  0.00    +0.000 C 
ATOM     11  C   UNL     1       7.182   5.745  14.106  0.00  0.00    +0.000 C 
ENDROOT
BRANCH   1  13
ATOM     12  C   UNL     1       3.856   2.623  17.035  0.00  0.00    +0.000 C 
ATOM     13  C   UNL     1       4.158   4.128  16.960  0.00  0.00    +0.000 C 
BRANCH  13  14
ATOM     14  C   UNL     1       3.200   4.924  17.843  0.00  0.00    +0.000 C 
ATOM     15  O   UNL     1       3.129   6.154  17.792  0.00  0.00    +0.000 OA
BRANCH  14  16
ATOM     16  C   UNL     1       2.421   4.223  18.916  0.00  0.00    +0.000 A 
ATOM     17  C   UNL     1       2.989   4.172  20.198  0.00  0.00    +0.000 A 
ATOM     18  C   UNL     1       2.327   3.528  21.247  0.00  0.00    +0.000 A 
ATOM     19  C   UNL     1       1.088   2.935  21.026  0.00  0.00    +0.000 A 
ATOM     20  C   UNL     1       0.513   2.981  19.758  0.00  0.00    +0.000 A 
ATOM     21  C   UNL     1       1.177   3.616  18.703  0.00  0.00    +0.000 A 
ENDBRANCH  14  16
ENDBRANCH  13  14
ENDBRANCH   1  13
TORSDOF 3
ENDMDL
