MODEL 1
REMARK VINA RESULT:      -8.6      0.000      0.000
REMARK  Name = 
REMARK  7 active torsions:
REMARK  status: ('A' for Active; 'I' for Inactive)
REMARK    1  A    between atoms: C_1  and  C_2
REMARK    2  A    between atoms: C_2  and  C_3
REMARK    3  A    between atoms: C_2  and  C_4
REMARK    4  A    between atoms: C_2  and  C_5
REMARK    5  A    between atoms: C_5  and  O_6
REMARK    6  A    between atoms: N_9  and  C_10
REMARK    7  A    between atoms: C_10  and  C_11
REMARK                            x       y       z     vdW  Elec       q    Type
REMARK                         _______ _______ _______ _____ _____    ______ ____
ROOT
ATOM      1  C   UNL     1       3.094   5.779  18.132  0.00  0.00    +0.000 C 
ATOM      2  C   UNL     1       2.591   4.341  18.346  0.00  0.00    +0.000 A 
ATOM      3  C   UNL     1       1.254   4.071  18.708  0.00  0.00    +0.000 A 
ATOM      4  C   UNL     1       0.813   2.769  18.943  0.00  0.00    +0.000 A 
ATOM      5  C   UNL     1       1.690   1.701  18.790  0.00  0.00    +0.000 A 
ATOM      6  C   UNL     1       3.006   1.933  18.399  0.00  0.00    +0.000 A 
ATOM      7  C   UNL     1       3.462   3.241  18.178  0.00  0.00    +0.000 A 
ATOM      8  O   UNL     1       4.744   3.416  17.796  0.00  0.00    +0.000 OA
ATOM      9  C   UNL     1       5.303   4.620  17.556  0.00  0.00    +0.000 A 
ATOM     10  C   UNL     1       6.640   4.664  17.148  0.00  0.00    +0.000 A 
ATOM     11  C   UNL     1       7.262   5.887  16.898  0.00  0.00    +0.000 A 
ATOM     12  C   UNL     1       6.545   7.073  17.043  0.00  0.00    +0.000 A 
ATOM     13  C   UNL     1       5.203   7.040  17.433  0.00  0.00    +0.000 A 
ATOM     14  C   UNL     1       4.562   5.813  17.705  0.00  0.00    +0.000 A 
ENDROOT
BRANCH   1  15
ATOM     15  C   UNL     1       2.897   6.654  19.421  0.00  0.00    +0.000 C 
BRANCH  15  19
ATOM     16  C   UNL     1       0.463  10.328  19.274  0.00  0.00    +0.000 C 
ATOM     17  C   UNL     1       0.328   9.269  20.427  0.00  0.00    +0.000 C 
ATOM     18  C   UNL     1       1.583   8.384  20.561  0.00  0.00    +0.000 C 
ATOM     19  N   UNL     1       1.838   7.687  19.289  0.00  0.00    +0.000 NA
ATOM     20  C   UNL     1       2.132   8.687  18.242  0.00  0.00    +0.000 C 
ATOM     21  C   UNL     1       0.889   9.552  18.002  0.00  0.00    +0.000 C 
BRANCH  16  23
ATOM     22  C   UNL     1      -1.916  10.317  18.218  0.00  0.00    +0.000 C 
ATOM     23  C   UNL     1      -0.887  11.159  19.020  0.00  0.00    +0.000 C 
ATOM     24  C   UNL     1      -0.615  12.438  18.194  0.00  0.00    +0.000 C 
ATOM     25  C   UNL     1      -1.574  11.604  20.338  0.00  0.00    +0.000 C 
ENDBRANCH  16  23
BRANCH  16  26
ATOM     26  O   UNL     1       1.516  11.223  19.565  0.00  0.00    +0.000 OA
ATOM     27  H   UNL     1       1.829  11.638  18.721  0.00  0.00    +0.000 HD
ENDBRANCH  16  26
ENDBRANCH  15  19
ENDBRANCH   1  15
TORSDOF 4
ENDMDL
MODEL 2
REMARK VINA RESULT:      -8.4      0.964      1.294
REMARK  Name = 
REMARK  7 active torsions:
REMARK  status: ('A' for Active; 'I' for Inactive)
REMARK    1  A    between atoms: C_1  and  C_2
REMARK    2  A    between atoms: C_2  and  C_3
REMARK    3  A    between atoms: C_2  and  C_4
REMARK    4  A    between atoms: C_2  and  C_5
REMARK    5  A    between atoms: C_5  and  O_6
REMARK    6  A    between atoms: N_9  and  C_10
REMARK    7  A    between atoms: C_10  and  C_11
REMARK                            x       y       z     vdW  Elec       q    Type
REMARK                         _______ _______ _______ _____ _____    ______ ____
ROOT
ATOM      1  C   UNL     1       2.697   5.786  18.303  0.00  0.00    +0.000 C 
ATOM      2  C   UNL     1       2.370   4.522  19.116  0.00  0.00    +0.000 A 
ATOM      3  C   UNL     1       1.252   4.464  19.975  0.00  0.00    +0.000 A 
ATOM      4  C   UNL     1       0.983   3.332  20.744  0.00  0.00    +0.000 A 
ATOM      5  C   UNL     1       1.808   2.216  20.648  0.00  0.00    +0.000 A 
ATOM      6  C   UNL     1       2.899   2.231  19.782  0.00  0.00    +0.000 A 
ATOM      7  C   UNL     1       3.185   3.372  19.019  0.00  0.00    +0.000 A 
ATOM      8  O   UNL     1       4.250   3.338  18.192  0.00  0.00    +0.000 OA
ATOM      9  C   UNL     1       4.632   4.368  17.409  0.00  0.00    +0.000 A 
ATOM     10  C   UNL     1       5.747   4.197  16.580  0.00  0.00    +0.000 A 
ATOM     11  C   UNL     1       6.184   5.239  15.762  0.00  0.00    +0.000 A 
ATOM     12  C   UNL     1       5.501   6.454  15.759  0.00  0.00    +0.000 A 
ATOM     13  C   UNL     1       4.375   6.629  16.571  0.00  0.00    +0.000 A 
ATOM     14  C   UNL     1       3.928   5.592  17.415  0.00  0.00    +0.000 A 
ENDROOT
BRANCH   1  15
ATOM     15  C   UNL     1       2.908   7.031  19.235  0.00  0.00    +0.000 C 
BRANCH  15  19
ATOM     16  C   UNL     1       0.351  10.623  19.284  0.00  0.00    +0.000 C 
ATOM     17  C   UNL     1       0.238   9.489  20.366  0.00  0.00    +0.000 C 
ATOM     18  C   UNL     1       1.521   8.641  20.462  0.00  0.00    +0.000 C 
ATOM     19  N   UNL     1       1.816   8.034  19.153  0.00  0.00    +0.000 NA
ATOM     20  C   UNL     1       2.088   9.108  18.175  0.00  0.00    +0.000 C 
ATOM     21  C   UNL     1       0.820   9.945  17.972  0.00  0.00    +0.000 C 
BRANCH  16  23
ATOM     22  C   UNL     1      -1.647  11.843  20.420  0.00  0.00    +0.000 C 
ATOM     23  C   UNL     1      -1.023  11.424  19.062  0.00  0.00    +0.000 C 
ATOM     24  C   UNL     1      -2.074  10.551  18.338  0.00  0.00    +0.000 C 
ATOM     25  C   UNL     1      -0.838  12.712  18.216  0.00  0.00    +0.000 C 
ENDBRANCH  16  23
BRANCH  16  26
ATOM     26  O   UNL     1       1.370  11.533  19.646  0.00  0.00    +0.000 OA
ATOM     27  H   UNL     1       0.970  12.271  20.174  0.00  0.00    +0.000 HD
ENDBRANCH  16  26
ENDBRANCH  15  19
ENDBRANCH   1  15
TORSDOF 4
ENDMDL
MODEL 3
REMARK VINA RESULT:      -7.9      1.817      3.862
REMARK  Name = 
REMARK  7 active torsions:
REMARK  status: ('A' for Active; 'I' for Inactive)
REMARK    1  A    between atoms: C_1  and  C_2
REMARK    2  A    between atoms: C_2  and  C_3
REMARK    3  A    between atoms: C_2  and  C_4
REMARK    4  A    between atoms: C_2  and  C_5
REMARK    5  A    between atoms: C_5  and  O_6
REMARK    6  A    between atoms: N_9  and  C_10
REMARK    7  A    between atoms: C_10  and  C_11
REMARK                            x       y       z     vdW  Elec       q    Type
REMARK                         _______ _______ _______ _____ _____    ______ ____
ROOT
ATOM      1  C   UNL     1       3.344   6.099  18.975  0.00  0.00    +0.000 C 
ATOM      2  C   UNL     1       4.179   5.805  17.717  0.00  0.00    +0.000 A 
ATOM      3  C   UNL     1       4.576   6.833  16.836  0.00  0.00    +0.000 A 
ATOM      4  C   UNL     1       5.296   6.557  15.674  0.00  0.00    +0.000 A 
ATOM      5  C   UNL     1       5.666   5.248  15.380  0.00  0.00    +0.000 A 
ATOM      6  C   UNL     1       5.319   4.217  16.249  0.00  0.00    +0.000 A 
ATOM      7  C   UNL     1       4.580   4.485  17.411  0.00  0.00    +0.000 A 
ATOM      8  O   UNL     1       4.270   3.454  18.224  0.00  0.00    +0.000 OA
ATOM      9  C   UNL     1       3.563   3.579  19.366  0.00  0.00    +0.000 A 
ATOM     10  C   UNL     1       3.325   2.431  20.131  0.00  0.00    +0.000 A 
ATOM     11  C   UNL     1       2.590   2.511  21.314  0.00  0.00    +0.000 A 
ATOM     12  C   UNL     1       2.100   3.743  21.745  0.00  0.00    +0.000 A 
ATOM     13  C   UNL     1       2.347   4.899  20.998  0.00  0.00    +0.000 A 
ATOM     14  C   UNL     1       3.076   4.834  19.791  0.00  0.00    +0.000 A 
ENDROOT
BRANCH   1  15
ATOM     15  C   UNL     1       1.983   6.794  18.612  0.00  0.00    +0.000 C 
BRANCH  15  19
ATOM     16  C   UNL     1       1.120  11.113  18.822  0.00  0.00    +0.000 C 
ATOM     17  C   UNL     1       2.174  10.508  17.826  0.00  0.00    +0.000 C 
ATOM     18  C   UNL     1       1.936   9.009  17.558  0.00  0.00    +0.000 C 
ATOM     19  N   UNL     1       1.984   8.263  18.828  0.00  0.00    +0.000 NA
ATOM     20  C   UNL     1       0.881   8.721  19.698  0.00  0.00    +0.000 C 
ATOM     21  C   UNL     1       1.103  10.192  20.069  0.00  0.00    +0.000 C 
BRANCH  16  23
ATOM     22  C   UNL     1       0.241  13.561  18.891  0.00  0.00    +0.000 C 
ATOM     23  C   UNL     1       1.437  12.633  19.230  0.00  0.00    +0.000 C 
ATOM     24  C   UNL     1       2.661  13.180  18.459  0.00  0.00    +0.000 C 
ATOM     25  C   UNL     1       1.741  12.797  20.743  0.00  0.00    +0.000 C 
ENDBRANCH  16  23
BRANCH  16  26
ATOM     26  O   UNL     1      -0.172  11.039  18.257  0.00  0.00    +0.000 OA
ATOM     27  H   UNL     1      -0.461  10.091  18.232  0.00  0.00    +0.000 HD
ENDBRANCH  16  26
ENDBRANCH  15  19
ENDBRANCH   1  15
TORSDOF 4
ENDMDL
MODEL 4
REMARK VINA RESULT:      -7.9      0.917      1.586
REMARK  Name = 
REMARK  7 active torsions:
REMARK  status: ('A' for Active; 'I' for Inactive)
REMARK    1  A    between atoms: C_1  and  C_2
REMARK    2  A    between atoms: C_2  and  C_3
REMARK    3  A    between atoms: C_2  and  C_4
REMARK    4  A    between atoms: C_2  and  C_5
REMARK    5  A    between atoms: C_5  and  O_6
REMARK    6  A    between atoms: N_9  and  C_10
REMARK    7  A    between atoms: C_10  and  C_11
REMARK                            x       y       z     vdW  Elec       q    Type
REMARK                         _______ _______ _______ _____ _____    ______ ____
ROOT
ATOM      1  C   UNL     1       3.015   5.761  18.212  0.00  0.00    +0.000 C 
ATOM      2  C   UNL     1       2.494   4.316  18.292  0.00  0.00    +0.000 A 
ATOM      3  C   UNL     1       1.171   4.027  18.689  0.00  0.00    +0.000 A 
ATOM      4  C   UNL     1       0.716   2.714  18.802  0.00  0.00    +0.000 A 
ATOM      5  C   UNL     1       1.565   1.656  18.489  0.00  0.00    +0.000 A 
ATOM      6  C   UNL     1       2.865   1.911  18.061  0.00  0.00    +0.000 A 
ATOM      7  C   UNL     1       3.334   3.229  17.962  0.00  0.00    +0.000 A 
ATOM      8  O   UNL     1       4.600   3.427  17.538  0.00  0.00    +0.000 OA
ATOM      9  C   UNL     1       5.170   4.642  17.403  0.00  0.00    +0.000 A 
ATOM     10  C   UNL     1       6.487   4.712  16.936  0.00  0.00    +0.000 A 
ATOM     11  C   UNL     1       7.120   5.946  16.791  0.00  0.00    +0.000 A 
ATOM     12  C   UNL     1       6.434   7.119  17.100  0.00  0.00    +0.000 A 
ATOM     13  C   UNL     1       5.112   7.062  17.550  0.00  0.00    +0.000 A 
ATOM     14  C   UNL     1       4.460   5.822  17.718  0.00  0.00    +0.000 A 
ENDROOT
BRANCH   1  15
ATOM     15  C   UNL     1       2.897   6.493  19.596  0.00  0.00    +0.000 C 
BRANCH  15  19
ATOM     16  C   UNL     1       0.574  10.211  19.130  0.00  0.00    +0.000 C 
ATOM     17  C   UNL     1       1.587   9.704  18.040  0.00  0.00    +0.000 C 
ATOM     18  C   UNL     1       1.867   8.193  18.158  0.00  0.00    +0.000 C 
ATOM     19  N   UNL     1       2.401   7.889  19.497  0.00  0.00    +0.000 NA
ATOM     20  C   UNL     1       1.374   8.212  20.509  0.00  0.00    +0.000 C 
ATOM     21  C   UNL     1       1.107   9.721  20.499  0.00  0.00    +0.000 C 
BRANCH  16  23
ATOM     22  C   UNL     1       1.620  12.510  18.502  0.00  0.00    +0.000 C 
ATOM     23  C   UNL     1       0.383  11.806  19.119  0.00  0.00    +0.000 C 
ATOM     24  C   UNL     1       0.218  12.364  20.552  0.00  0.00    +0.000 C 
ATOM     25  C   UNL     1      -0.863  12.255  18.309  0.00  0.00    +0.000 C 
ENDBRANCH  16  23
BRANCH  16  26
ATOM     26  O   UNL     1      -0.680   9.588  18.946  0.00  0.00    +0.000 OA
ATOM     27  H   UNL     1      -0.558   8.771  18.397  0.00  0.00    +0.000 HD
ENDBRANCH  16  26
ENDBRANCH  15  19
ENDBRANCH   1  15
TORSDOF 4
ENDMDL
MODEL 5
REMARK VINA RESULT:      -7.7      1.418      3.956
REMARK  Name = 
REMARK  7 active torsions:
REMARK  status: ('A' for Active; 'I' for Inactive)
REMARK    1  A    between atoms: C_1  and  C_2
REMARK    2  A    between atoms: C_2  and  C_3
REMARK    3  A    between atoms: C_2  and  C_4
REMARK    4  A    between atoms: C_2  and  C_5
REMARK    5  A    between atoms: C_5  and  O_6
REMARK    6  A    between atoms: N_9  and  C_10
REMARK    7  A    between atoms: C_10  and  C_11
REMARK                            x       y       z     vdW  Elec       q    Type
REMARK                         _______ _______ _______ _____ _____    ______ ____
ROOT
ATOM      1  C   UNL     1       3.531   6.167  19.084  0.00  0.00    +0.000 C 
ATOM      2  C   UNL     1       4.823   5.920  18.287  0.00  0.00    +0.000 A 
ATOM      3  C   UNL     1       5.579   6.985  17.754  0.00  0.00    +0.000 A 
ATOM      4  C   UNL     1       6.726   6.755  16.995  0.00  0.00    +0.000 A 
ATOM      5  C   UNL     1       7.165   5.453  16.778  0.00  0.00    +0.000 A 
ATOM      6  C   UNL     1       6.459   4.382  17.322  0.00  0.00    +0.000 A 
ATOM      7  C   UNL     1       5.295   4.605  18.071  0.00  0.00    +0.000 A 
ATOM      8  O   UNL     1       4.647   3.537  18.581  0.00  0.00    +0.000 OA
ATOM      9  C   UNL     1       3.518   3.618  19.314  0.00  0.00    +0.000 A 
ATOM     10  C   UNL     1       2.954   2.433  19.800  0.00  0.00    +0.000 A 
ATOM     11  C   UNL     1       1.781   2.468  20.555  0.00  0.00    +0.000 A 
ATOM     12  C   UNL     1       1.173   3.690  20.837  0.00  0.00    +0.000 A 
ATOM     13  C   UNL     1       1.737   4.881  20.371  0.00  0.00    +0.000 A 
ATOM     14  C   UNL     1       2.915   4.864  19.594  0.00  0.00    +0.000 A 
ENDROOT
BRANCH   1  15
ATOM     15  C   UNL     1       2.472   6.955  18.233  0.00  0.00    +0.000 C 
BRANCH  15  19
ATOM     16  C   UNL     1       0.453  10.586  19.709  0.00  0.00    +0.000 C 
ATOM     17  C   UNL     1       1.325  10.575  18.402  0.00  0.00    +0.000 C 
ATOM     18  C   UNL     1       1.481   9.160  17.812  0.00  0.00    +0.000 C 
ATOM     19  N   UNL     1       2.094   8.269  18.813  0.00  0.00    +0.000 NA
ATOM     20  C   UNL     1       1.186   8.150  19.972  0.00  0.00    +0.000 C 
ATOM     21  C   UNL     1       1.052   9.516  20.656  0.00  0.00    +0.000 C 
BRANCH  16  23
ATOM     22  C   UNL     1      -0.452  13.024  19.595  0.00  0.00    +0.000 C 
ATOM     23  C   UNL     1       0.401  12.024  20.421  0.00  0.00    +0.000 C 
ATOM     24  C   UNL     1       1.813  12.642  20.549  0.00  0.00    +0.000 C 
ATOM     25  C   UNL     1      -0.202  11.965  21.850  0.00  0.00    +0.000 C 
ENDBRANCH  16  23
BRANCH  16  26
ATOM     26  O   UNL     1      -0.862  10.163  19.413  0.00  0.00    +0.000 OA
ATOM     27  H   UNL     1      -1.246  10.762  18.722  0.00  0.00    +0.000 HD
ENDBRANCH  16  26
ENDBRANCH  15  19
ENDBRANCH   1  15
TORSDOF 4
ENDMDL
MODEL 6
REMARK VINA RESULT:      -7.3      1.297      3.732
REMARK  Name = 
REMARK  7 active torsions:
REMARK  status: ('A' for Active; 'I' for Inactive)
REMARK    1  A    between atoms: C_1  and  C_2
REMARK    2  A    between atoms: C_2  and  C_3
REMARK    3  A    between atoms: C_2  and  C_4
REMARK    4  A    between atoms: C_2  and  C_5
REMARK    5  A    between atoms: C_5  and  O_6
REMARK    6  A    between atoms: N_9  and  C_10
REMARK    7  A    between atoms: C_10  and  C_11
REMARK                            x       y       z     vdW  Elec       q    Type
REMARK                         _______ _______ _______ _____ _____    ______ ____
ROOT
ATOM      1  C   UNL     1       3.521   6.088  19.121  0.00  0.00    +0.000 C 
ATOM      2  C   UNL     1       4.895   5.930  18.448  0.00  0.00    +0.000 A 
ATOM      3  C   UNL     1       5.508   6.997  17.758  0.00  0.00    +0.000 A 
ATOM      4  C   UNL     1       6.734   6.838  17.114  0.00  0.00    +0.000 A 
ATOM      5  C   UNL     1       7.394   5.614  17.170  0.00  0.00    +0.000 A 
ATOM      6  C   UNL     1       6.831   4.553  17.873  0.00  0.00    +0.000 A 
ATOM      7  C   UNL     1       5.590   4.701  18.509  0.00  0.00    +0.000 A 
ATOM      8  O   UNL     1       5.085   3.645  19.182  0.00  0.00    +0.000 OA
ATOM      9  C   UNL     1       3.904   3.659  19.832  0.00  0.00    +0.000 A 
ATOM     10  C   UNL     1       3.503   2.501  20.508  0.00  0.00    +0.000 A 
ATOM     11  C   UNL     1       2.284   2.466  21.185  0.00  0.00    +0.000 A 
ATOM     12  C   UNL     1       1.464   3.593  21.200  0.00  0.00    +0.000 A 
ATOM     13  C   UNL     1       1.864   4.761  20.543  0.00  0.00    +0.000 A 
ATOM     14  C   UNL     1       3.086   4.810  19.840  0.00  0.00    +0.000 A 
ENDROOT
BRANCH   1  15
ATOM     15  C   UNL     1       2.420   6.513  18.086  0.00  0.00    +0.000 C 
BRANCH  15  19
ATOM     16  C   UNL     1       0.766  10.379  19.414  0.00  0.00    +0.000 C 
ATOM     17  C   UNL     1       0.938   9.154  20.384  0.00  0.00    +0.000 C 
ATOM     18  C   UNL     1       1.978   8.140  19.869  0.00  0.00    +0.000 C 
ATOM     19  N   UNL     1       1.581   7.653  18.537  0.00  0.00    +0.000 NA
ATOM     20  C   UNL     1       1.585   8.786  17.589  0.00  0.00    +0.000 C 
ATOM     21  C   UNL     1       0.510   9.798  18.001  0.00  0.00    +0.000 C 
BRANCH  16  23
ATOM     22  C   UNL     1      -1.703  11.104  19.029  0.00  0.00    +0.000 C 
ATOM     23  C   UNL     1      -0.417  11.371  19.855  0.00  0.00    +0.000 C 
ATOM     24  C   UNL     1      -0.031  12.850  19.618  0.00  0.00    +0.000 C 
ATOM     25  C   UNL     1      -0.789  11.232  21.356  0.00  0.00    +0.000 C 
ENDBRANCH  16  23
BRANCH  16  26
ATOM     26  O   UNL     1       1.978  11.101  19.334  0.00  0.00    +0.000 OA
ATOM     27  H   UNL     1       1.786  12.067  19.454  0.00  0.00    +0.000 HD
ENDBRANCH  16  26
ENDBRANCH  15  19
ENDBRANCH   1  15
TORSDOF 4
ENDMDL
MODEL 7
REMARK VINA RESULT:      -7.2      3.065      7.652
REMARK  Name = 
REMARK  7 active torsions:
REMARK  status: ('A' for Active; 'I' for Inactive)
REMARK    1  A    between atoms: C_1  and  C_2
REMARK    2  A    between atoms: C_2  and  C_3
REMARK    3  A    between atoms: C_2  and  C_4
REMARK    4  A    between atoms: C_2  and  C_5
REMARK    5  A    between atoms: C_5  and  O_6
REMARK    6  A    between atoms: N_9  and  C_10
REMARK    7  A    between atoms: C_10  and  C_11
REMARK                            x       y       z     vdW  Elec       q    Type
REMARK                         _______ _______ _______ _____ _____    ______ ____
ROOT
ATOM      1  C   UNL     1       3.007   5.631  18.301  0.00  0.00    +0.000 C 
ATOM      2  C   UNL     1       2.413   6.996  18.691  0.00  0.00    +0.000 A 
ATOM      3  C   UNL     1       2.416   8.087  17.797  0.00  0.00    +0.000 A 
ATOM      4  C   UNL     1       1.916   9.334  18.169  0.00  0.00    +0.000 A 
ATOM      5  C   UNL     1       1.370   9.513  19.436  0.00  0.00    +0.000 A 
ATOM      6  C   UNL     1       1.321   8.445  20.328  0.00  0.00    +0.000 A 
ATOM      7  C   UNL     1       1.837   7.193  19.967  0.00  0.00    +0.000 A 
ATOM      8  O   UNL     1       1.764   6.187  20.863  0.00  0.00    +0.000 OA
ATOM      9  C   UNL     1       2.226   4.940  20.639  0.00  0.00    +0.000 A 
ATOM     10  C   UNL     1       2.071   3.981  21.647  0.00  0.00    +0.000 A 
ATOM     11  C   UNL     1       2.543   2.682  21.463  0.00  0.00    +0.000 A 
ATOM     12  C   UNL     1       3.161   2.330  20.264  0.00  0.00    +0.000 A 
ATOM     13  C   UNL     1       3.305   3.276  19.244  0.00  0.00    +0.000 A 
ATOM     14  C   UNL     1       2.847   4.599  19.418  0.00  0.00    +0.000 A 
ENDROOT
BRANCH   1  15
ATOM     15  C   UNL     1       4.521   5.755  17.906  0.00  0.00    +0.000 C 
BRANCH  15  19
ATOM     16  C   UNL     1       6.316   4.608  14.045  0.00  0.00    +0.000 C 
ATOM     17  C   UNL     1       5.295   5.795  14.185  0.00  0.00    +0.000 C 
ATOM     18  C   UNL     1       5.217   6.335  15.626  0.00  0.00    +0.000 C 
ATOM     19  N   UNL     1       4.829   5.250  16.544  0.00  0.00    +0.000 NA
ATOM     20  C   UNL     1       5.880   4.212  16.534  0.00  0.00    +0.000 C 
ATOM     21  C   UNL     1       5.953   3.575  15.142  0.00  0.00    +0.000 C 
BRANCH  16  23
ATOM     22  C   UNL     1       7.281   4.666  11.629  0.00  0.00    +0.000 C 
ATOM     23  C   UNL     1       6.304   3.934  12.588  0.00  0.00    +0.000 C 
ATOM     24  C   UNL     1       4.901   4.011  11.942  0.00  0.00    +0.000 C 
ATOM     25  C   UNL     1       6.712   2.437  12.617  0.00  0.00    +0.000 C 
ENDBRANCH  16  23
BRANCH  16  26
ATOM     26  O   UNL     1       7.621   5.060  14.342  0.00  0.00    +0.000 OA
ATOM     27  H   UNL     1       8.230   4.795  13.605  0.00  0.00    +0.000 HD
ENDBRANCH  16  26
ENDBRANCH  15  19
ENDBRANCH   1  15
TORSDOF 4
ENDMDL
MODEL 8
REMARK VINA RESULT:      -7.0      5.429      7.081
REMARK  Name = 
REMARK  7 active torsions:
REMARK  status: ('A' for Active; 'I' for Inactive)
REMARK    1  A    between atoms: C_1  and  C_2
REMARK    2  A    between atoms: C_2  and  C_3
REMARK    3  A    between atoms: C_2  and  C_4
REMARK    4  A    between atoms: C_2  and  C_5
REMARK    5  A    between atoms: C_5  and  O_6
REMARK    6  A    between atoms: N_9  and  C_10
REMARK    7  A    between atoms: C_10  and  C_11
REMARK                            x       y       z     vdW  Elec       q    Type
REMARK                         _______ _______ _______ _____ _____    ______ ____
ROOT
ATOM      1  C   UNL     1       1.193  10.581  19.272  0.00  0.00    +0.000 C 
ATOM      2  C   UNL     1       0.529  10.167  20.596  0.00  0.00    +0.000 A 
ATOM      3  C   UNL     1       0.132   8.835  20.841  0.00  0.00    +0.000 A 
ATOM      4  C   UNL     1      -0.509   8.473  22.025  0.00  0.00    +0.000 A 
ATOM      5  C   UNL     1      -0.741   9.429  23.009  0.00  0.00    +0.000 A 
ATOM      6  C   UNL     1      -0.329  10.744  22.811  0.00  0.00    +0.000 A 
ATOM      7  C   UNL     1       0.301  11.119  21.616  0.00  0.00    +0.000 A 
ATOM      8  O   UNL     1       0.686  12.404  21.471  0.00  0.00    +0.000 OA
ATOM      9  C   UNL     1       1.297  12.890  20.371  0.00  0.00    +0.000 A 
ATOM     10  C   UNL     1       1.662  14.241  20.354  0.00  0.00    +0.000 A 
ATOM     11  C   UNL     1       2.287  14.789  19.234  0.00  0.00    +0.000 A 
ATOM     12  C   UNL     1       2.561  13.986  18.129  0.00  0.00    +0.000 A 
ATOM     13  C   UNL     1       2.217  12.631  18.142  0.00  0.00    +0.000 A 
ATOM     14  C   UNL     1       1.571  12.063  19.260  0.00  0.00    +0.000 A 
ENDROOT
BRANCH   1  15
ATOM     15  C   UNL     1       0.273  10.259  18.042  0.00  0.00    +0.000 C 
BRANCH  15  19
ATOM     16  C   UNL     1      -3.964  11.464  17.864  0.00  0.00    +0.000 C 
ATOM     17  C   UNL     1      -2.907  12.217  18.750  0.00  0.00    +0.000 C 
ATOM     18  C   UNL     1      -1.462  11.978  18.269  0.00  0.00    +0.000 C 
ATOM     19  N   UNL     1      -1.166  10.535  18.280  0.00  0.00    +0.000 NA
ATOM     20  C   UNL     1      -2.054   9.854  17.316  0.00  0.00    +0.000 C 
ATOM     21  C   UNL     1      -3.508   9.985  17.783  0.00  0.00    +0.000 C 
BRANCH  16  23
ATOM     22  C   UNL     1      -6.353  12.428  17.491  0.00  0.00    +0.000 C 
ATOM     23  C   UNL     1      -5.461  11.577  18.435  0.00  0.00    +0.000 C 
ATOM     24  C   UNL     1      -5.487  12.268  19.818  0.00  0.00    +0.000 C 
ATOM     25  C   UNL     1      -6.145  10.195  18.603  0.00  0.00    +0.000 C 
ENDBRANCH  16  23
BRANCH  16  26
ATOM     26  O   UNL     1      -3.927  11.964  16.543  0.00  0.00    +0.000 OA
ATOM     27  H   UNL     1      -4.782  12.429  16.350  0.00  0.00    +0.000 HD
ENDBRANCH  16  26
ENDBRANCH  15  19
ENDBRANCH   1  15
TORSDOF 4
ENDMDL
MODEL 9
REMARK VINA RESULT:      -6.9      2.080      8.591
REMARK  Name = 
REMARK  7 active torsions:
REMARK  status: ('A' for Active; 'I' for Inactive)
REMARK    1  A    between atoms: C_1  and  C_2
REMARK    2  A    between atoms: C_2  and  C_3
REMARK    3  A    between atoms: C_2  and  C_4
REMARK    4  A    between atoms: C_2  and  C_5
REMARK    5  A    between atoms: C_5  and  O_6
REMARK    6  A    between atoms: N_9  and  C_10
REMARK    7  A    between atoms: C_10  and  C_11
REMARK                            x       y       z     vdW  Elec       q    Type
REMARK                         _______ _______ _______ _____ _____    ______ ____
ROOT
ATOM      1  C   UNL     1       0.327  10.838  18.607  0.00  0.00    +0.000 C 
ATOM      2  C   UNL     1       0.800  12.252  18.984  0.00  0.00    +0.000 A 
ATOM      3  C   UNL     1       2.157  12.532  19.251  0.00  0.00    +0.000 A 
ATOM      4  C   UNL     1       2.576  13.806  19.634  0.00  0.00    +0.000 A 
ATOM      5  C   UNL     1       1.651  14.841  19.728  0.00  0.00    +0.000 A 
ATOM      6  C   UNL     1       0.310  14.603  19.436  0.00  0.00    +0.000 A 
ATOM      7  C   UNL     1      -0.120  13.321  19.067  0.00  0.00    +0.000 A 
ATOM      8  O   UNL     1      -1.428  13.140  18.790  0.00  0.00    +0.000 OA
ATOM      9  C   UNL     1      -1.967  11.957  18.427  0.00  0.00    +0.000 A 
ATOM     10  C   UNL     1      -3.338  11.908  18.149  0.00  0.00    +0.000 A 
ATOM     11  C   UNL     1      -3.940  10.705  17.780  0.00  0.00    +0.000 A 
ATOM     12  C   UNL     1      -3.171   9.547  17.676  0.00  0.00    +0.000 A 
ATOM     13  C   UNL     1      -1.798   9.589  17.935  0.00  0.00    +0.000 A 
ATOM     14  C   UNL     1      -1.174  10.794  18.323  0.00  0.00    +0.000 A 
ENDROOT
BRANCH   1  15
ATOM     15  C   UNL     1       0.686   9.795  19.725  0.00  0.00    +0.000 C 
BRANCH  15  19
ATOM     16  C   UNL     1       3.113   6.418  18.258  0.00  0.00    +0.000 C 
ATOM     17  C   UNL     1       2.892   6.700  19.789  0.00  0.00    +0.000 C 
ATOM     18  C   UNL     1       1.639   7.558  20.052  0.00  0.00    +0.000 C 
ATOM     19  N   UNL     1       1.753   8.839  19.334  0.00  0.00    +0.000 NA
ATOM     20  C   UNL     1       1.790   8.574  17.881  0.00  0.00    +0.000 C 
ATOM     21  C   UNL     1       3.061   7.789  17.539  0.00  0.00    +0.000 C 
BRANCH  16  23
ATOM     22  C   UNL     1       5.485   6.581  17.201  0.00  0.00    +0.000 C 
ATOM     23  C   UNL     1       4.490   5.654  17.950  0.00  0.00    +0.000 C 
ATOM     24  C   UNL     1       4.261   4.420  17.046  0.00  0.00    +0.000 C 
ATOM     25  C   UNL     1       5.198   5.151  19.236  0.00  0.00    +0.000 C 
ENDBRANCH  16  23
BRANCH  16  26
ATOM     26  O   UNL     1       2.033   5.662  17.749  0.00  0.00    +0.000 OA
ATOM     27  H   UNL     1       1.680   6.109  16.938  0.00  0.00    +0.000 HD
ENDBRANCH  16  26
ENDBRANCH  15  19
ENDBRANCH   1  15
TORSDOF 4
ENDMDL
