MODEL 1
REMARK VINA RESULT:      -7.5      0.000      0.000
REMARK  Name = 
REMARK  7 active torsions:
REMARK  status: ('A' for Active; 'I' for Inactive)
REMARK    1  A    between atoms: S_2  and  C_4
REMARK    2  A    between atoms: S_2  and  N_11
REMARK    3  A    between atoms: C_4  and  C_5
REMARK    4  A    between atoms: C_14  and  O_15
REMARK    5  A    between atoms: C_16  and  O_17
REMARK    6  A    between atoms: C_23  and  O_24
REMARK    7  A    between atoms: C_25  and  O_26
REMARK                            x       y       z     vdW  Elec       q    Type
REMARK                         _______ _______ _______ _____ _____    ______ ____
ROOT
ATOM      1  N   UNL     1       3.520   4.763  18.593  0.00  0.00    +0.000 N 
ATOM      2  C   UNL     1       2.937   6.022  18.681  0.00  0.00    +0.000 A 
ATOM      3  C   UNL     1       2.933   7.144  17.826  0.00  0.00    +0.000 A 
ATOM      4  C   UNL     1       2.256   8.280  18.273  0.00  0.00    +0.000 A 
ATOM      5  C   UNL     1       1.596   8.299  19.498  0.00  0.00    +0.000 A 
ATOM      6  C   UNL     1       1.548   7.173  20.308  0.00  0.00    +0.000 A 
ATOM      7  C   UNL     1       2.234   6.014  19.895  0.00  0.00    +0.000 A 
ATOM      8  C   UNL     1       2.374   4.712  20.454  0.00  0.00    +0.000 A 
ATOM      9  C   UNL     1       1.732   3.990  21.479  0.00  0.00    +0.000 A 
ATOM     10  C   UNL     1       2.246   2.742  21.860  0.00  0.00    +0.000 A 
ATOM     11  C   UNL     1       3.461   2.312  21.351  0.00  0.00    +0.000 A 
ATOM     12  C   UNL     1       4.125   3.033  20.362  0.00  0.00    +0.000 A 
ATOM     13  C   UNL     1       3.469   4.135  19.820  0.00  0.00    +0.000 A 
ENDROOT
BRANCH   1  15
ATOM     14  O   UNL     1       2.053   4.075  16.648  0.00  0.00    +0.000 OA
ATOM     15  S   UNL     1       3.382   3.770  17.163  0.00  0.00    +0.000 S 
ATOM     16  O   UNL     1       3.717   2.428  17.616  0.00  0.00    +0.000 OA
BRANCH  15  17
ATOM     17  C   UNL     1       4.614   4.359  16.035  0.00  0.00    +0.000 C 
BRANCH  17  18
ATOM     18  C   UNL     1       5.763   5.180  16.565  0.00  0.00    +0.000 A 
ATOM     19  C   UNL     1       5.878   6.571  16.493  0.00  0.00    +0.000 A 
ATOM     20  C   UNL     1       6.857   7.240  17.238  0.00  0.00    +0.000 A 
ATOM     21  C   UNL     1       7.730   6.533  18.063  0.00  0.00    +0.000 A 
ATOM     22  C   UNL     1       7.657   5.148  18.115  0.00  0.00    +0.000 A 
ATOM     23  C   UNL     1       6.688   4.480  17.370  0.00  0.00    +0.000 A 
ENDBRANCH  17  18
ENDBRANCH  15  17
ENDBRANCH   1  15
BRANCH   4  24
ATOM     24  O   UNL     1       2.217   9.430  17.532  0.00  0.00    +0.000 OA
ATOM     25  H   UNL     1       2.513   9.211  16.631  0.00  0.00    +0.000 HD
ENDBRANCH   4  24
BRANCH   5  26
ATOM     26  O   UNL     1       0.975   9.439  19.928  0.00  0.00    +0.000 OA
ATOM     27  H   UNL     1       1.297  10.137  19.323  0.00  0.00    +0.000 HD
ENDBRANCH   5  26
BRANCH  11  28
ATOM     28  O   UNL     1       4.044   1.147  21.768  0.00  0.00    +0.000 OA
ATOM     29  H   UNL     1       4.952   1.134  21.407  0.00  0.00    +0.000 HD
ENDBRANCH  11  28
BRANCH  12  30
ATOM     30  O   UNL     1       5.373   2.651  19.955  0.00  0.00    +0.000 OA
ATOM     31  H   UNL     1       5.361   1.673  20.022  0.00  0.00    +0.000 HD
ENDBRANCH  12  30
TORSDOF 7
ENDMDL
MODEL 2
REMARK VINA RESULT:      -7.4      2.598      3.391
REMARK  Name = 
REMARK  7 active torsions:
REMARK  status: ('A' for Active; 'I' for Inactive)
REMARK    1  A    between atoms: S_2  and  C_4
REMARK    2  A    between atoms: S_2  and  N_11
REMARK    3  A    between atoms: C_4  and  C_5
REMARK    4  A    between atoms: C_14  and  O_15
REMARK    5  A    between atoms: C_16  and  O_17
REMARK    6  A    between atoms: C_23  and  O_24
REMARK    7  A    between atoms: C_25  and  O_26
REMARK                            x       y       z     vdW  Elec       q    Type
REMARK                         _______ _______ _______ _____ _____    ______ ____
ROOT
ATOM      1  N   UNL     1       4.465   6.075  17.719  0.00  0.00    +0.000 N 
ATOM      2  C   UNL     1       3.538   7.110  17.731  0.00  0.00    +0.000 A 
ATOM      3  C   UNL     1       3.653   8.509  17.589  0.00  0.00    +0.000 A 
ATOM      4  C   UNL     1       2.480   9.257  17.698  0.00  0.00    +0.000 A 
ATOM      5  C   UNL     1       1.247   8.650  17.916  0.00  0.00    +0.000 A 
ATOM      6  C   UNL     1       1.127   7.269  17.992  0.00  0.00    +0.000 A 
ATOM      7  C   UNL     1       2.294   6.485  17.902  0.00  0.00    +0.000 A 
ATOM      8  C   UNL     1       2.528   5.080  17.918  0.00  0.00    +0.000 A 
ATOM      9  C   UNL     1       1.722   3.931  17.800  0.00  0.00    +0.000 A 
ATOM     10  C   UNL     1       2.297   2.669  18.010  0.00  0.00    +0.000 A 
ATOM     11  C   UNL     1       3.592   2.574  18.494  0.00  0.00    +0.000 A 
ATOM     12  C   UNL     1       4.390   3.704  18.650  0.00  0.00    +0.000 A 
ATOM     13  C   UNL     1       3.882   4.917  18.192  0.00  0.00    +0.000 A 
ENDROOT
BRANCH   1  15
ATOM     14  O   UNL     1       6.925   5.760  17.215  0.00  0.00    +0.000 OA
ATOM     15  S   UNL     1       5.680   5.925  16.474  0.00  0.00    +0.000 S 
ATOM     16  O   UNL     1       5.469   7.080  15.616  0.00  0.00    +0.000 OA
BRANCH  15  17
ATOM     17  C   UNL     1       5.301   4.434  15.596  0.00  0.00    +0.000 C 
BRANCH  17  18
ATOM     18  C   UNL     1       5.985   4.163  14.279  0.00  0.00    +0.000 A 
ATOM     19  C   UNL     1       5.460   3.413  13.223  0.00  0.00    +0.000 A 
ATOM     20  C   UNL     1       6.070   3.442  11.963  0.00  0.00    +0.000 A 
ATOM     21  C   UNL     1       7.207   4.217  11.741  0.00  0.00    +0.000 A 
ATOM     22  C   UNL     1       7.765   4.936  12.788  0.00  0.00    +0.000 A 
ATOM     23  C   UNL     1       7.163   4.903  14.044  0.00  0.00    +0.000 A 
ENDBRANCH  17  18
ENDBRANCH  15  17
ENDBRANCH   1  15
BRANCH   4  24
ATOM     24  O   UNL     1       2.489  10.623  17.604  0.00  0.00    +0.000 OA
ATOM     25  H   UNL     1       2.884  10.858  16.746  0.00  0.00    +0.000 HD
ENDBRANCH   4  24
BRANCH   5  26
ATOM     26  O   UNL     1       0.120   9.411  18.058  0.00  0.00    +0.000 OA
ATOM     27  H   UNL     1       0.373  10.291  17.714  0.00  0.00    +0.000 HD
ENDBRANCH   5  26
BRANCH  11  28
ATOM     28  O   UNL     1       4.157   1.368  18.804  0.00  0.00    +0.000 OA
ATOM     29  H   UNL     1       4.022   1.224  19.761  0.00  0.00    +0.000 HD
ENDBRANCH  11  28
BRANCH  12  30
ATOM     30  O   UNL     1       5.622   3.600  19.231  0.00  0.00    +0.000 OA
ATOM     31  H   UNL     1       5.507   2.911  19.920  0.00  0.00    +0.000 HD
ENDBRANCH  12  30
TORSDOF 7
ENDMDL
MODEL 3
REMARK VINA RESULT:      -7.0      2.004      5.124
REMARK  Name = 
REMARK  7 active torsions:
REMARK  status: ('A' for Active; 'I' for Inactive)
REMARK    1  A    between atoms: S_2  and  C_4
REMARK    2  A    between atoms: S_2  and  N_11
REMARK    3  A    between atoms: C_4  and  C_5
REMARK    4  A    between atoms: C_14  and  O_15
REMARK    5  A    between atoms: C_16  and  O_17
REMARK    6  A    between atoms: C_23  and  O_24
REMARK    7  A    between atoms: C_25  and  O_26
REMARK                            x       y       z     vdW  Elec       q    Type
REMARK                         _______ _______ _______ _____ _____    ______ ____
ROOT
ATOM      1  N   UNL     1       4.356   4.892  18.175  0.00  0.00    +0.000 N 
ATOM      2  C   UNL     1       3.571   5.985  18.522  0.00  0.00    +0.000 A 
ATOM      3  C   UNL     1       2.830   6.312  19.678  0.00  0.00    +0.000 A 
ATOM      4  C   UNL     1       2.112   7.509  19.653  0.00  0.00    +0.000 A 
ATOM      5  C   UNL     1       2.141   8.353  18.548  0.00  0.00    +0.000 A 
ATOM      6  C   UNL     1       2.921   8.060  17.438  0.00  0.00    +0.000 A 
ATOM      7  C   UNL     1       3.646   6.853  17.422  0.00  0.00    +0.000 A 
ATOM      8  C   UNL     1       4.538   6.263  16.482  0.00  0.00    +0.000 A 
ATOM      9  C   UNL     1       5.225   6.712  15.337  0.00  0.00    +0.000 A 
ATOM     10  C   UNL     1       5.928   5.785  14.554  0.00  0.00    +0.000 A 
ATOM     11  C   UNL     1       5.802   4.429  14.812  0.00  0.00    +0.000 A 
ATOM     12  C   UNL     1       5.097   3.968  15.920  0.00  0.00    +0.000 A 
ATOM     13  C   UNL     1       4.624   4.917  16.823  0.00  0.00    +0.000 A 
ENDROOT
BRANCH   1  15
ATOM     14  O   UNL     1       5.754   5.290  20.247  0.00  0.00    +0.000 OA
ATOM     15  S   UNL     1       5.586   4.252  19.238  0.00  0.00    +0.000 S 
ATOM     16  O   UNL     1       6.680   3.887  18.352  0.00  0.00    +0.000 OA
BRANCH  15  17
ATOM     17  C   UNL     1       4.889   2.802  19.977  0.00  0.00    +0.000 C 
BRANCH  17  18
ATOM     18  C   UNL     1       3.388   2.657  20.040  0.00  0.00    +0.000 A 
ATOM     19  C   UNL     1       2.571   3.059  21.100  0.00  0.00    +0.000 A 
ATOM     20  C   UNL     1       1.180   3.107  20.941  0.00  0.00    +0.000 A 
ATOM     21  C   UNL     1       0.590   2.758  19.728  0.00  0.00    +0.000 A 
ATOM     22  C   UNL     1       1.384   2.317  18.678  0.00  0.00    +0.000 A 
ATOM     23  C   UNL     1       2.767   2.262  18.836  0.00  0.00    +0.000 A 
ENDBRANCH  17  18
ENDBRANCH  15  17
ENDBRANCH   1  15
BRANCH   4  24
ATOM     24  O   UNL     1       1.339   7.903  20.712  0.00  0.00    +0.000 OA
ATOM     25  H   UNL     1       0.938   8.760  20.482  0.00  0.00    +0.000 HD
ENDBRANCH   4  24
BRANCH   5  26
ATOM     26  O   UNL     1       1.396   9.500  18.537  0.00  0.00    +0.000 OA
ATOM     27  H   UNL     1       1.991  10.183  18.905  0.00  0.00    +0.000 HD
ENDBRANCH   5  26
BRANCH  11  28
ATOM     28  O   UNL     1       6.392   3.488  14.015  0.00  0.00    +0.000 OA
ATOM     29  H   UNL     1       5.826   2.692  14.041  0.00  0.00    +0.000 HD
ENDBRANCH  11  28
BRANCH  12  30
ATOM     30  O   UNL     1       4.892   2.628  16.094  0.00  0.00    +0.000 OA
ATOM     31  H   UNL     1       4.221   2.396  15.416  0.00  0.00    +0.000 HD
ENDBRANCH  12  30
TORSDOF 7
ENDMDL
MODEL 4
REMARK VINA RESULT:      -6.9      5.899      8.648
REMARK  Name = 
REMARK  7 active torsions:
REMARK  status: ('A' for Active; 'I' for Inactive)
REMARK    1  A    between atoms: S_2  and  C_4
REMARK    2  A    between atoms: S_2  and  N_11
REMARK    3  A    between atoms: C_4  and  C_5
REMARK    4  A    between atoms: C_14  and  O_15
REMARK    5  A    between atoms: C_16  and  O_17
REMARK    6  A    between atoms: C_23  and  O_24
REMARK    7  A    between atoms: C_25  and  O_26
REMARK                            x       y       z     vdW  Elec       q    Type
REMARK                         _______ _______ _______ _____ _____    ______ ____
ROOT
ATOM      1  N   UNL     1      -1.782  11.145  19.769  0.00  0.00    +0.000 N 
ATOM      2  C   UNL     1      -2.543  11.134  18.607  0.00  0.00    +0.000 A 
ATOM      3  C   UNL     1      -3.758  11.752  18.243  0.00  0.00    +0.000 A 
ATOM      4  C   UNL     1      -4.256  11.473  16.970  0.00  0.00    +0.000 A 
ATOM      5  C   UNL     1      -3.575  10.639  16.088  0.00  0.00    +0.000 A 
ATOM      6  C   UNL     1      -2.348  10.083  16.424  0.00  0.00    +0.000 A 
ATOM      7  C   UNL     1      -1.824  10.332  17.708  0.00  0.00    +0.000 A 
ATOM      8  C   UNL     1      -0.617   9.949  18.359  0.00  0.00    +0.000 A 
ATOM      9  C   UNL     1       0.608   9.388  17.946  0.00  0.00    +0.000 A 
ATOM     10  C   UNL     1       1.545   9.005  18.915  0.00  0.00    +0.000 A 
ATOM     11  C   UNL     1       1.196   9.021  20.256  0.00  0.00    +0.000 A 
ATOM     12  C   UNL     1      -0.025   9.539  20.678  0.00  0.00    +0.000 A 
ATOM     13  C   UNL     1      -0.831  10.147  19.719  0.00  0.00    +0.000 A 
ENDROOT
BRANCH   1  15
ATOM     14  O   UNL     1      -0.246  12.248  21.452  0.00  0.00    +0.000 OA
ATOM     15  S   UNL     1      -1.364  12.626  20.596  0.00  0.00    +0.000 S 
ATOM     16  O   UNL     1      -2.618  13.092  21.168  0.00  0.00    +0.000 OA
BRANCH  15  17
ATOM     17  C   UNL     1      -0.809  13.748  19.343  0.00  0.00    +0.000 C 
BRANCH  17  18
ATOM     18  C   UNL     1       0.669  13.873  19.070  0.00  0.00    +0.000 A 
ATOM     19  C   UNL     1       1.505  12.856  18.602  0.00  0.00    +0.000 A 
ATOM     20  C   UNL     1       2.795  13.154  18.146  0.00  0.00    +0.000 A 
ATOM     21  C   UNL     1       3.266  14.465  18.150  0.00  0.00    +0.000 A 
ATOM     22  C   UNL     1       2.465  15.483  18.650  0.00  0.00    +0.000 A 
ATOM     23  C   UNL     1       1.184  15.187  19.110  0.00  0.00    +0.000 A 
ENDBRANCH  17  18
ENDBRANCH  15  17
ENDBRANCH   1  15
BRANCH   4  24
ATOM     24  O   UNL     1      -5.442  11.999  16.532  0.00  0.00    +0.000 OA
ATOM     25  H   UNL     1      -5.356  12.167  15.577  0.00  0.00    +0.000 HD
ENDBRANCH   4  24
BRANCH   5  26
ATOM     26  O   UNL     1      -4.107  10.352  14.862  0.00  0.00    +0.000 OA
ATOM     27  H   UNL     1      -5.007  10.734  14.890  0.00  0.00    +0.000 HD
ENDBRANCH   5  26
BRANCH  11  28
ATOM     28  O   UNL     1       2.045   8.564  21.226  0.00  0.00    +0.000 OA
ATOM     29  H   UNL     1       2.861   8.267  20.779  0.00  0.00    +0.000 HD
ENDBRANCH  11  28
BRANCH  12  30
ATOM     30  O   UNL     1      -0.395   9.444  21.990  0.00  0.00    +0.000 OA
ATOM     31  H   UNL     1       0.453   9.463  22.483  0.00  0.00    +0.000 HD
ENDBRANCH  12  30
TORSDOF 7
ENDMDL
MODEL 5
REMARK VINA RESULT:      -6.9      6.446      8.598
REMARK  Name = 
REMARK  7 active torsions:
REMARK  status: ('A' for Active; 'I' for Inactive)
REMARK    1  A    between atoms: S_2  and  C_4
REMARK    2  A    between atoms: S_2  and  N_11
REMARK    3  A    between atoms: C_4  and  C_5
REMARK    4  A    between atoms: C_14  and  O_15
REMARK    5  A    between atoms: C_16  and  O_17
REMARK    6  A    between atoms: C_23  and  O_24
REMARK    7  A    between atoms: C_25  and  O_26
REMARK                            x       y       z     vdW  Elec       q    Type
REMARK                         _______ _______ _______ _____ _____    ______ ____
ROOT
ATOM      1  N   UNL     1      -1.384  11.657  20.588  0.00  0.00    +0.000 N 
ATOM      2  C   UNL     1      -1.979  11.436  19.351  0.00  0.00    +0.000 A 
ATOM      3  C   UNL     1      -3.045  12.061  18.670  0.00  0.00    +0.000 A 
ATOM      4  C   UNL     1      -3.403  11.531  17.429  0.00  0.00    +0.000 A 
ATOM      5  C   UNL     1      -2.724  10.448  16.877  0.00  0.00    +0.000 A 
ATOM      6  C   UNL     1      -1.635   9.877  17.520  0.00  0.00    +0.000 A 
ATOM      7  C   UNL     1      -1.258  10.377  18.782  0.00  0.00    +0.000 A 
ATOM      8  C   UNL     1      -0.207  10.050  19.686  0.00  0.00    +0.000 A 
ATOM      9  C   UNL     1       0.978   9.293  19.610  0.00  0.00    +0.000 A 
ATOM     10  C   UNL     1       1.722   9.068  20.777  0.00  0.00    +0.000 A 
ATOM     11  C   UNL     1       1.203   9.441  22.008  0.00  0.00    +0.000 A 
ATOM     12  C   UNL     1       0.014  10.159  22.102  0.00  0.00    +0.000 A 
ATOM     13  C   UNL     1      -0.573  10.591  20.915  0.00  0.00    +0.000 A 
ENDROOT
BRANCH   1  15
ATOM     14  O   UNL     1       0.381  13.017  21.788  0.00  0.00    +0.000 OA
ATOM     15  S   UNL     1      -0.891  13.247  21.116  0.00  0.00    +0.000 S 
ATOM     16  O   UNL     1      -2.039  13.761  21.847  0.00  0.00    +0.000 OA
BRANCH  15  17
ATOM     17  C   UNL     1      -0.631  14.195  19.643  0.00  0.00    +0.000 C 
BRANCH  17  18
ATOM     18  C   UNL     1       0.760  14.292  19.067  0.00  0.00    +0.000 A 
ATOM     19  C   UNL     1       1.647  15.357  19.243  0.00  0.00    +0.000 A 
ATOM     20  C   UNL     1       2.992  15.224  18.877  0.00  0.00    +0.000 A 
ATOM     21  C   UNL     1       3.468  14.032  18.334  0.00  0.00    +0.000 A 
ATOM     22  C   UNL     1       2.593  12.978  18.114  0.00  0.00    +0.000 A 
ATOM     23  C   UNL     1       1.253  13.111  18.472  0.00  0.00    +0.000 A 
ENDBRANCH  17  18
ENDBRANCH  15  17
ENDBRANCH   1  15
BRANCH   4  24
ATOM     24  O   UNL     1      -4.442  12.046  16.701  0.00  0.00    +0.000 OA
ATOM     25  H   UNL     1      -5.266  11.665  17.053  0.00  0.00    +0.000 HD
ENDBRANCH   4  24
BRANCH   5  26
ATOM     26  O   UNL     1      -3.122   9.925  15.678  0.00  0.00    +0.000 OA
ATOM     27  H   UNL     1      -3.202  10.700  15.087  0.00  0.00    +0.000 HD
ENDBRANCH   5  26
BRANCH  11  28
ATOM     28  O   UNL     1       1.850   9.154  23.178  0.00  0.00    +0.000 OA
ATOM     29  H   UNL     1       1.669   8.217  23.385  0.00  0.00    +0.000 HD
ENDBRANCH  11  28
BRANCH  12  30
ATOM     30  O   UNL     1      -0.536  10.419  23.326  0.00  0.00    +0.000 OA
ATOM     31  H   UNL     1      -1.459  10.096  23.250  0.00  0.00    +0.000 HD
ENDBRANCH  12  30
TORSDOF 7
ENDMDL
MODEL 6
REMARK VINA RESULT:      -6.9      2.331      5.607
REMARK  Name = 
REMARK  7 active torsions:
REMARK  status: ('A' for Active; 'I' for Inactive)
REMARK    1  A    between atoms: S_2  and  C_4
REMARK    2  A    between atoms: S_2  and  N_11
REMARK    3  A    between atoms: C_4  and  C_5
REMARK    4  A    between atoms: C_14  and  O_15
REMARK    5  A    between atoms: C_16  and  O_17
REMARK    6  A    between atoms: C_23  and  O_24
REMARK    7  A    between atoms: C_25  and  O_26
REMARK                            x       y       z     vdW  Elec       q    Type
REMARK                         _______ _______ _______ _____ _____    ______ ____
ROOT
ATOM      1  N   UNL     1       2.899   6.393  19.954  0.00  0.00    +0.000 N 
ATOM      2  C   UNL     1       3.941   6.041  19.104  0.00  0.00    +0.000 A 
ATOM      3  C   UNL     1       4.926   5.032  19.152  0.00  0.00    +0.000 A 
ATOM      4  C   UNL     1       5.858   5.005  18.115  0.00  0.00    +0.000 A 
ATOM      5  C   UNL     1       5.807   5.918  17.066  0.00  0.00    +0.000 A 
ATOM      6  C   UNL     1       4.799   6.869  16.987  0.00  0.00    +0.000 A 
ATOM      7  C   UNL     1       3.851   6.935  18.026  0.00  0.00    +0.000 A 
ATOM      8  C   UNL     1       2.705   7.749  18.250  0.00  0.00    +0.000 A 
ATOM      9  C   UNL     1       1.933   8.627  17.464  0.00  0.00    +0.000 A 
ATOM     10  C   UNL     1       0.928   9.388  18.077  0.00  0.00    +0.000 A 
ATOM     11  C   UNL     1       0.816   9.399  19.459  0.00  0.00    +0.000 A 
ATOM     12  C   UNL     1       1.596   8.562  20.252  0.00  0.00    +0.000 A 
ATOM     13  C   UNL     1       2.406   7.633  19.604  0.00  0.00    +0.000 A 
ENDROOT
BRANCH   1  15
ATOM     14  O   UNL     1       0.721   6.026  21.188  0.00  0.00    +0.000 OA
ATOM     15  S   UNL     1       1.773   5.218  20.586  0.00  0.00    +0.000 S 
ATOM     16  O   UNL     1       2.589   4.329  21.398  0.00  0.00    +0.000 OA
BRANCH  15  17
ATOM     17  C   UNL     1       1.133   4.347  19.182  0.00  0.00    +0.000 C 
BRANCH  17  18
ATOM     18  C   UNL     1       1.992   3.307  18.507  0.00  0.00    +0.000 A 
ATOM     19  C   UNL     1       2.551   3.409  17.230  0.00  0.00    +0.000 A 
ATOM     20  C   UNL     1       3.532   2.502  16.813  0.00  0.00    +0.000 A 
ATOM     21  C   UNL     1       3.968   1.486  17.661  0.00  0.00    +0.000 A 
ATOM     22  C   UNL     1       3.396   1.344  18.917  0.00  0.00    +0.000 A 
ATOM     23  C   UNL     1       2.415   2.242  19.331  0.00  0.00    +0.000 A 
ENDBRANCH  17  18
ENDBRANCH  15  17
ENDBRANCH   1  15
BRANCH   4  24
ATOM     24  O   UNL     1       6.871   4.083  18.084  0.00  0.00    +0.000 OA
ATOM     25  H   UNL     1       6.611   3.380  17.463  0.00  0.00    +0.000 HD
ENDBRANCH   4  24
BRANCH   5  26
ATOM     26  O   UNL     1       6.758   5.892  16.083  0.00  0.00    +0.000 OA
ATOM     27  H   UNL     1       6.937   6.834  15.890  0.00  0.00    +0.000 HD
ENDBRANCH   5  26
BRANCH  11  28
ATOM     28  O   UNL     1      -0.086  10.200  20.102  0.00  0.00    +0.000 OA
ATOM     29  H   UNL     1      -0.963   9.779  20.009  0.00  0.00    +0.000 HD
ENDBRANCH  11  28
BRANCH  12  30
ATOM     30  O   UNL     1       1.550   8.667  21.614  0.00  0.00    +0.000 OA
ATOM     31  H   UNL     1       2.429   9.029  21.859  0.00  0.00    +0.000 HD
ENDBRANCH  12  30
TORSDOF 7
ENDMDL
MODEL 7
REMARK VINA RESULT:      -6.9      2.413      5.581
REMARK  Name = 
REMARK  7 active torsions:
REMARK  status: ('A' for Active; 'I' for Inactive)
REMARK    1  A    between atoms: S_2  and  C_4
REMARK    2  A    between atoms: S_2  and  N_11
REMARK    3  A    between atoms: C_4  and  C_5
REMARK    4  A    between atoms: C_14  and  O_15
REMARK    5  A    between atoms: C_16  and  O_17
REMARK    6  A    between atoms: C_23  and  O_24
REMARK    7  A    between atoms: C_25  and  O_26
REMARK                            x       y       z     vdW  Elec       q    Type
REMARK                         _______ _______ _______ _____ _____    ______ ____
ROOT
ATOM      1  N   UNL     1       3.219   5.587  17.686  0.00  0.00    +0.000 N 
ATOM      2  C   UNL     1       4.600   5.488  17.571  0.00  0.00    +0.000 A 
ATOM      3  C   UNL     1       5.562   6.224  16.847  0.00  0.00    +0.000 A 
ATOM      4  C   UNL     1       6.889   5.802  16.945  0.00  0.00    +0.000 A 
ATOM      5  C   UNL     1       7.251   4.717  17.738  0.00  0.00    +0.000 A 
ATOM      6  C   UNL     1       6.312   4.035  18.499  0.00  0.00    +0.000 A 
ATOM      7  C   UNL     1       4.961   4.425  18.411  0.00  0.00    +0.000 A 
ATOM      8  C   UNL     1       3.772   3.972  19.051  0.00  0.00    +0.000 A 
ATOM      9  C   UNL     1       3.483   3.148  20.156  0.00  0.00    +0.000 A 
ATOM     10  C   UNL     1       2.151   2.799  20.417  0.00  0.00    +0.000 A 
ATOM     11  C   UNL     1       1.161   3.121  19.502  0.00  0.00    +0.000 A 
ATOM     12  C   UNL     1       1.438   3.905  18.386  0.00  0.00    +0.000 A 
ATOM     13  C   UNL     1       2.714   4.452  18.285  0.00  0.00    +0.000 A 
ENDROOT
BRANCH   1  15
ATOM     14  O   UNL     1       1.108   6.951  17.384  0.00  0.00    +0.000 OA
ATOM     15  S   UNL     1       2.415   7.104  18.010  0.00  0.00    +0.000 S 
ATOM     16  O   UNL     1       3.350   8.119  17.549  0.00  0.00    +0.000 OA
BRANCH  15  17
ATOM     17  C   UNL     1       2.233   7.196  19.769  0.00  0.00    +0.000 C 
BRANCH  17  18
ATOM     18  C   UNL     1       1.473   8.353  20.370  0.00  0.00    +0.000 A 
ATOM     19  C   UNL     1       1.073   9.509  19.695  0.00  0.00    +0.000 A 
ATOM     20  C   UNL     1       0.161  10.392  20.285  0.00  0.00    +0.000 A 
ATOM     21  C   UNL     1      -0.364  10.134  21.549  0.00  0.00    +0.000 A 
ATOM     22  C   UNL     1       0.053   9.012  22.251  0.00  0.00    +0.000 A 
ATOM     23  C   UNL     1       0.966   8.136  21.669  0.00  0.00    +0.000 A 
ENDBRANCH  17  18
ENDBRANCH  15  17
ENDBRANCH   1  15
BRANCH   4  24
ATOM     24  O   UNL     1       7.894   6.429  16.259  0.00  0.00    +0.000 OA
ATOM     25  H   UNL     1       7.507   7.199  15.806  0.00  0.00    +0.000 HD
ENDBRANCH   4  24
BRANCH   5  26
ATOM     26  O   UNL     1       8.553   4.301  17.783  0.00  0.00    +0.000 OA
ATOM     27  H   UNL     1       8.967   4.866  18.466  0.00  0.00    +0.000 HD
ENDBRANCH   5  26
BRANCH  11  28
ATOM     28  O   UNL     1      -0.135   2.716  19.671  0.00  0.00    +0.000 OA
ATOM     29  H   UNL     1      -0.196   1.800  19.337  0.00  0.00    +0.000 HD
ENDBRANCH  11  28
BRANCH  12  30
ATOM     30  O   UNL     1       0.475   4.118  17.440  0.00  0.00    +0.000 OA
ATOM     31  H   UNL     1       0.411   5.095  17.375  0.00  0.00    +0.000 HD
ENDBRANCH  12  30
TORSDOF 7
ENDMDL
MODEL 8
REMARK VINA RESULT:      -6.9      2.294      5.212
REMARK  Name = 
REMARK  7 active torsions:
REMARK  status: ('A' for Active; 'I' for Inactive)
REMARK    1  A    between atoms: S_2  and  C_4
REMARK    2  A    between atoms: S_2  and  N_11
REMARK    3  A    between atoms: C_4  and  C_5
REMARK    4  A    between atoms: C_14  and  O_15
REMARK    5  A    between atoms: C_16  and  O_17
REMARK    6  A    between atoms: C_23  and  O_24
REMARK    7  A    between atoms: C_25  and  O_26
REMARK                            x       y       z     vdW  Elec       q    Type
REMARK                         _______ _______ _______ _____ _____    ______ ____
ROOT
ATOM      1  N   UNL     1       4.231   5.426  17.709  0.00  0.00    +0.000 N 
ATOM      2  C   UNL     1       3.794   4.172  18.119  0.00  0.00    +0.000 A 
ATOM      3  C   UNL     1       4.249   2.861  17.862  0.00  0.00    +0.000 A 
ATOM      4  C   UNL     1       3.518   1.814  18.426  0.00  0.00    +0.000 A 
ATOM      5  C   UNL     1       2.404   2.051  19.225  0.00  0.00    +0.000 A 
ATOM      6  C   UNL     1       1.998   3.343  19.529  0.00  0.00    +0.000 A 
ATOM      7  C   UNL     1       2.702   4.423  18.963  0.00  0.00    +0.000 A 
ATOM      8  C   UNL     1       2.574   5.837  19.075  0.00  0.00    +0.000 A 
ATOM      9  C   UNL     1       1.882   6.713  19.933  0.00  0.00    +0.000 A 
ATOM     10  C   UNL     1       1.877   8.086  19.649  0.00  0.00    +0.000 A 
ATOM     11  C   UNL     1       2.401   8.544  18.450  0.00  0.00    +0.000 A 
ATOM     12  C   UNL     1       3.058   7.684  17.574  0.00  0.00    +0.000 A 
ATOM     13  C   UNL     1       3.273   6.375  17.999  0.00  0.00    +0.000 A 
ENDROOT
BRANCH   1  15
ATOM     14  O   UNL     1       6.231   5.785  19.219  0.00  0.00    +0.000 OA
ATOM     15  S   UNL     1       5.907   5.907  17.803  0.00  0.00    +0.000 S 
ATOM     16  O   UNL     1       5.956   7.197  17.134  0.00  0.00    +0.000 OA
BRANCH  15  17
ATOM     17  C   UNL     1       6.815   4.703  16.873  0.00  0.00    +0.000 C 
BRANCH  17  18
ATOM     18  C   UNL     1       6.746   4.732  15.366  0.00  0.00    +0.000 A 
ATOM     19  C   UNL     1       7.674   5.336  14.515  0.00  0.00    +0.000 A 
ATOM     20  C   UNL     1       7.642   5.081  13.138  0.00  0.00    +0.000 A 
ATOM     21  C   UNL     1       6.688   4.223  12.596  0.00  0.00    +0.000 A 
ATOM     22  C   UNL     1       5.732   3.646  13.421  0.00  0.00    +0.000 A 
ATOM     23  C   UNL     1       5.759   3.903  14.790  0.00  0.00    +0.000 A 
ENDBRANCH  17  18
ENDBRANCH  15  17
ENDBRANCH   1  15
BRANCH   4  24
ATOM     24  O   UNL     1       3.859   0.505  18.213  0.00  0.00    +0.000 OA
ATOM     25  H   UNL     1       3.506   0.246  17.344  0.00  0.00    +0.000 HD
ENDBRANCH   4  24
BRANCH   5  26
ATOM     26  O   UNL     1       1.685   1.005  19.732  0.00  0.00    +0.000 OA
ATOM     27  H   UNL     1       1.510   0.430  18.960  0.00  0.00    +0.000 HD
ENDBRANCH   5  26
BRANCH  11  28
ATOM     28  O   UNL     1       2.331   9.861  18.090  0.00  0.00    +0.000 OA
ATOM     29  H   UNL     1       1.518  10.226  18.491  0.00  0.00    +0.000 HD
ENDBRANCH  11  28
BRANCH  12  30
ATOM     30  O   UNL     1       3.469   8.132  16.350  0.00  0.00    +0.000 OA
ATOM     31  H   UNL     1       4.063   7.424  16.021  0.00  0.00    +0.000 HD
ENDBRANCH  12  30
TORSDOF 7
ENDMDL
MODEL 9
REMARK VINA RESULT:      -6.9      7.210      9.351
REMARK  Name = 
REMARK  7 active torsions:
REMARK  status: ('A' for Active; 'I' for Inactive)
REMARK    1  A    between atoms: S_2  and  C_4
REMARK    2  A    between atoms: S_2  and  N_11
REMARK    3  A    between atoms: C_4  and  C_5
REMARK    4  A    between atoms: C_14  and  O_15
REMARK    5  A    between atoms: C_16  and  O_17
REMARK    6  A    between atoms: C_23  and  O_24
REMARK    7  A    between atoms: C_25  and  O_26
REMARK                            x       y       z     vdW  Elec       q    Type
REMARK                         _______ _______ _______ _____ _____    ______ ____
ROOT
ATOM      1  N   UNL     1       0.781  11.888  20.328  0.00  0.00    +0.000 N 
ATOM      2  C   UNL     1       1.326  12.949  19.615  0.00  0.00    +0.000 A 
ATOM      3  C   UNL     1       2.483  13.082  18.819  0.00  0.00    +0.000 A 
ATOM      4  C   UNL     1       2.740  14.343  18.278  0.00  0.00    +0.000 A 
ATOM      5  C   UNL     1       1.882  15.417  18.496  0.00  0.00    +0.000 A 
ATOM      6  C   UNL     1       0.711  15.268  19.226  0.00  0.00    +0.000 A 
ATOM      7  C   UNL     1       0.429  14.012  19.799  0.00  0.00    +0.000 A 
ATOM      8  C   UNL     1      -0.660  13.514  20.569  0.00  0.00    +0.000 A 
ATOM      9  C   UNL     1      -1.960  13.966  20.871  0.00  0.00    +0.000 A 
ATOM     10  C   UNL     1      -2.728  13.259  21.807  0.00  0.00    +0.000 A 
ATOM     11  C   UNL     1      -2.150  12.237  22.543  0.00  0.00    +0.000 A 
ATOM     12  C   UNL     1      -0.854  11.802  22.280  0.00  0.00    +0.000 A 
ATOM     13  C   UNL     1      -0.204  12.349  21.177  0.00  0.00    +0.000 A 
ENDROOT
BRANCH   1  15
ATOM     14  O   UNL     1       1.144   9.401  20.621  0.00  0.00    +0.000 OA
ATOM     15  S   UNL     1       0.574  10.302  19.627  0.00  0.00    +0.000 S 
ATOM     16  O   UNL     1       1.155  10.410  18.298  0.00  0.00    +0.000 OA
BRANCH  15  17
ATOM     17  C   UNL     1      -1.174  10.040  19.511  0.00  0.00    +0.000 C 
BRANCH  17  18
ATOM     18  C   UNL     1      -1.892  10.429  18.243  0.00  0.00    +0.000 A 
ATOM     19  C   UNL     1      -1.747   9.814  16.997  0.00  0.00    +0.000 A 
ATOM     20  C   UNL     1      -2.646  10.093  15.961  0.00  0.00    +0.000 A 
ATOM     21  C   UNL     1      -3.699  10.984  16.153  0.00  0.00    +0.000 A 
ATOM     22  C   UNL     1      -3.835  11.636  17.371  0.00  0.00    +0.000 A 
ATOM     23  C   UNL     1      -2.937  11.365  18.401  0.00  0.00    +0.000 A 
ENDBRANCH  17  18
ENDBRANCH  15  17
ENDBRANCH   1  15
BRANCH   4  24
ATOM     24  O   UNL     1       3.852  14.584  17.516  0.00  0.00    +0.000 OA
ATOM     25  H   UNL     1       4.346  13.749  17.443  0.00  0.00    +0.000 HD
ENDBRANCH   4  24
BRANCH   5  26
ATOM     26  O   UNL     1       2.180  16.651  17.986  0.00  0.00    +0.000 OA
ATOM     27  H   UNL     1       3.077  16.846  18.325  0.00  0.00    +0.000 HD
ENDBRANCH   5  26
BRANCH  11  28
ATOM     28  O   UNL     1      -2.835  11.586  23.531  0.00  0.00    +0.000 OA
ATOM     29  H   UNL     1      -2.770  10.629  23.346  0.00  0.00    +0.000 HD
ENDBRANCH  11  28
BRANCH  12  30
ATOM     30  O   UNL     1      -0.265  10.871  23.088  0.00  0.00    +0.000 OA
ATOM     31  H   UNL     1      -0.766  10.929  23.930  0.00  0.00    +0.000 HD
ENDBRANCH  12  30
TORSDOF 7
ENDMDL
