MODEL 1
REMARK VINA RESULT:      -8.5      0.000      0.000
REMARK  Name = 
REMARK  8 active torsions:
REMARK  status: ('A' for Active; 'I' for Inactive)
REMARK    1  A    between atoms: C_1  and  C_2
REMARK    2  A    between atoms: C_4  and  C_5
REMARK    3  A    between atoms: C_6  and  C_7
REMARK    4  A    between atoms: C_11  and  C_12
REMARK    5  A    between atoms: C_14  and  C_15
REMARK    6  A    between atoms: C_16  and  N_17
REMARK    7  A    between atoms: N_23  and  C_24
REMARK    8  A    between atoms: C_27  and  C_28
REMARK                            x       y       z     vdW  Elec       q    Type
REMARK                         _______ _______ _______ _____ _____    ______ ____
ROOT
ATOM      1  N   UNL     1       1.431   8.072  20.802  0.00  0.00    +0.000 N 
ATOM      2  C   UNL     1       0.541   9.167  20.640  0.00  0.00    +0.000 A 
ATOM      3  C   UNL     1       0.391  10.042  21.700  0.00  0.00    +0.000 A 
ATOM      4  C   UNL     1      -0.460  11.095  21.507  0.00  0.00    +0.000 A 
ATOM      5  N   UNL     1      -1.142  11.282  20.373  0.00  0.00    +0.000 NA
ATOM      6  C   UNL     1      -0.972  10.378  19.393  0.00  0.00    +0.000 A 
ATOM      7  N   UNL     1      -1.634  10.575  18.179  0.00  0.00    +0.000 N 
ATOM      8  N   UNL     1      -0.162   9.318  19.502  0.00  0.00    +0.000 NA
ATOM      9  H   UNL     1       2.076   8.262  21.564  0.00  0.00    +0.000 HD
ATOM     10  H   UNL     1      -1.333   9.900  17.490  0.00  0.00    +0.000 HD
ENDROOT
BRANCH   1  18
ATOM     11  C   UNL     1       2.148   5.276  21.174  0.00  0.00    +0.000 C 
ATOM     12  C   UNL     1       2.659   6.120  20.036  0.00  0.00    +0.000 A 
ATOM     13  C   UNL     1       3.629   5.546  19.190  0.00  0.00    +0.000 A 
ATOM     14  C   UNL     1       3.967   6.102  17.952  0.00  0.00    +0.000 A 
ATOM     15  C   UNL     1       3.408   7.356  17.684  0.00  0.00    +0.000 A 
ATOM     16  C   UNL     1       2.650   8.081  18.626  0.00  0.00    +0.000 A 
ATOM     17  C   UNL     1       2.425   9.538  18.312  0.00  0.00    +0.000 C 
ATOM     18  C   UNL     1       2.186   7.427  19.782  0.00  0.00    +0.000 A 
BRANCH  14  19
ATOM     19  C   UNL     1       4.856   5.394  16.976  0.00  0.00    +0.000 A 
ATOM     20  C   UNL     1       6.130   5.929  16.608  0.00  0.00    +0.000 A 
ATOM     21  C   UNL     1       6.743   7.198  17.157  0.00  0.00    +0.000 C 
ATOM     22  C   UNL     1       6.929   5.275  15.647  0.00  0.00    +0.000 A 
ATOM     23  C   UNL     1       6.539   4.073  15.081  0.00  0.00    +0.000 A 
ATOM     24  C   UNL     1       5.329   3.511  15.453  0.00  0.00    +0.000 A 
ATOM     25  C   UNL     1       4.470   4.155  16.367  0.00  0.00    +0.000 A 
ATOM     26  C   UNL     1       3.164   3.439  16.634  0.00  0.00    +0.000 C 
ENDBRANCH  14  19
ENDBRANCH   1  18
BRANCH   7  27
ATOM     27  C   UNL     1      -2.926  11.092  18.019  0.00  0.00    +0.000 A 
ATOM     28  C   UNL     1      -3.561  11.040  16.771  0.00  0.00    +0.000 A 
ATOM     29  C   UNL     1      -4.802  11.652  16.577  0.00  0.00    +0.000 A 
ATOM     30  C   UNL     1      -5.436  12.304  17.634  0.00  0.00    +0.000 A 
ATOM     31  C   UNL     1      -4.836  12.331  18.895  0.00  0.00    +0.000 A 
ATOM     32  C   UNL     1      -3.595  11.728  19.075  0.00  0.00    +0.000 A 
BRANCH  30  33
ATOM     33  C   UNL     1      -6.691  12.962  17.436  0.00  0.00    +0.000 C 
ATOM     34  N   UNL     1      -7.709  13.507  17.277  0.00  0.00    +0.000 NA
ENDBRANCH  30  33
ENDBRANCH   7  27
TORSDOF 4
ENDMDL
MODEL 2
REMARK VINA RESULT:      -8.5      0.064      1.560
REMARK  Name = 
REMARK  8 active torsions:
REMARK  status: ('A' for Active; 'I' for Inactive)
REMARK    1  A    between atoms: C_1  and  C_2
REMARK    2  A    between atoms: C_4  and  C_5
REMARK    3  A    between atoms: C_6  and  C_7
REMARK    4  A    between atoms: C_11  and  C_12
REMARK    5  A    between atoms: C_14  and  C_15
REMARK    6  A    between atoms: C_16  and  N_17
REMARK    7  A    between atoms: N_23  and  C_24
REMARK    8  A    between atoms: C_27  and  C_28
REMARK                            x       y       z     vdW  Elec       q    Type
REMARK                         _______ _______ _______ _____ _____    ______ ____
ROOT
ATOM      1  N   UNL     1       1.411   8.032  20.840  0.00  0.00    +0.000 N 
ATOM      2  C   UNL     1       0.524   9.130  20.688  0.00  0.00    +0.000 A 
ATOM      3  C   UNL     1       0.372   9.993  21.757  0.00  0.00    +0.000 A 
ATOM      4  C   UNL     1      -0.478  11.050  21.573  0.00  0.00    +0.000 A 
ATOM      5  N   UNL     1      -1.155  11.249  20.438  0.00  0.00    +0.000 NA
ATOM      6  C   UNL     1      -0.984  10.355  19.449  0.00  0.00    +0.000 A 
ATOM      7  N   UNL     1      -1.643  10.567  18.236  0.00  0.00    +0.000 N 
ATOM      8  N   UNL     1      -0.176   9.293  19.549  0.00  0.00    +0.000 NA
ATOM      9  H   UNL     1       2.055   8.213  21.606  0.00  0.00    +0.000 HD
ATOM     10  H   UNL     1      -1.341   9.899  17.541  0.00  0.00    +0.000 HD
ENDROOT
BRANCH   1  18
ATOM     11  C   UNL     1       2.141   5.236  21.193  0.00  0.00    +0.000 C 
ATOM     12  C   UNL     1       2.648   6.090  20.060  0.00  0.00    +0.000 A 
ATOM     13  C   UNL     1       3.620   5.526  19.210  0.00  0.00    +0.000 A 
ATOM     14  C   UNL     1       3.954   6.092  17.976  0.00  0.00    +0.000 A 
ATOM     15  C   UNL     1       3.389   7.345  17.716  0.00  0.00    +0.000 A 
ATOM     16  C   UNL     1       2.629   8.061  18.663  0.00  0.00    +0.000 A 
ATOM     17  C   UNL     1       2.397   9.518  18.359  0.00  0.00    +0.000 C 
ATOM     18  C   UNL     1       2.169   7.397  19.815  0.00  0.00    +0.000 A 
BRANCH  14  19
ATOM     19  C   UNL     1       4.845   5.394  16.994  0.00  0.00    +0.000 A 
ATOM     20  C   UNL     1       4.463   4.154  16.394  0.00  0.00    +0.000 A 
ATOM     21  C   UNL     1       3.153   3.432  16.625  0.00  0.00    +0.000 C 
ATOM     22  C   UNL     1       5.338   3.486  15.513  0.00  0.00    +0.000 A 
ATOM     23  C   UNL     1       6.557   4.035  15.153  0.00  0.00    +0.000 A 
ATOM     24  C   UNL     1       6.934   5.256  15.686  0.00  0.00    +0.000 A 
ATOM     25  C   UNL     1       6.117   5.935  16.615  0.00  0.00    +0.000 A 
ATOM     26  C   UNL     1       6.688   7.233  17.142  0.00  0.00    +0.000 C 
ENDBRANCH  14  19
ENDBRANCH   1  18
BRANCH   7  27
ATOM     27  C   UNL     1      -2.934  11.087  18.078  0.00  0.00    +0.000 A 
ATOM     28  C   UNL     1      -3.611  10.947  16.859  0.00  0.00    +0.000 A 
ATOM     29  C   UNL     1      -4.850  11.560  16.658  0.00  0.00    +0.000 A 
ATOM     30  C   UNL     1      -5.442  12.300  17.681  0.00  0.00    +0.000 A 
ATOM     31  C   UNL     1      -4.801  12.415  18.917  0.00  0.00    +0.000 A 
ATOM     32  C   UNL     1      -3.560  11.811  19.103  0.00  0.00    +0.000 A 
BRANCH  30  33
ATOM     33  C   UNL     1      -6.696  12.956  17.473  0.00  0.00    +0.000 C 
ATOM     34  N   UNL     1      -7.714  13.499  17.312  0.00  0.00    +0.000 NA
ENDBRANCH  30  33
ENDBRANCH   7  27
TORSDOF 4
ENDMDL
MODEL 3
REMARK VINA RESULT:      -8.2      6.919      8.474
REMARK  Name = 
REMARK  8 active torsions:
REMARK  status: ('A' for Active; 'I' for Inactive)
REMARK    1  A    between atoms: C_1  and  C_2
REMARK    2  A    between atoms: C_4  and  C_5
REMARK    3  A    between atoms: C_6  and  C_7
REMARK    4  A    between atoms: C_11  and  C_12
REMARK    5  A    between atoms: C_14  and  C_15
REMARK    6  A    between atoms: C_16  and  N_17
REMARK    7  A    between atoms: N_23  and  C_24
REMARK    8  A    between atoms: C_27  and  C_28
REMARK                            x       y       z     vdW  Elec       q    Type
REMARK                         _______ _______ _______ _____ _____    ______ ____
ROOT
ATOM      1  N   UNL     1       4.528  16.880  19.727  0.00  0.00    +0.000 N 
ATOM      2  C   UNL     1       3.164  16.486  19.731  0.00  0.00    +0.000 A 
ATOM      3  C   UNL     1       2.246  17.321  19.122  0.00  0.00    +0.000 A 
ATOM      4  C   UNL     1       0.943  16.905  19.129  0.00  0.00    +0.000 A 
ATOM      5  N   UNL     1       0.546  15.767  19.707  0.00  0.00    +0.000 NA
ATOM      6  C   UNL     1       1.485  15.017  20.308  0.00  0.00    +0.000 A 
ATOM      7  N   UNL     1       1.105  13.799  20.876  0.00  0.00    +0.000 N 
ATOM      8  N   UNL     1       2.780  15.353  20.349  0.00  0.00    +0.000 NA
ATOM      9  H   UNL     1       4.685  17.570  18.996  0.00  0.00    +0.000 HD
ATOM     10  H   UNL     1       1.913  13.278  21.186  0.00  0.00    +0.000 HD
ENDROOT
BRANCH   1  18
ATOM     11  C   UNL     1       6.449  17.133  21.899  0.00  0.00    +0.000 C 
ATOM     12  C   UNL     1       6.667  16.254  20.696  0.00  0.00    +0.000 A 
ATOM     13  C   UNL     1       7.923  15.626  20.573  0.00  0.00    +0.000 A 
ATOM     14  C   UNL     1       8.151  14.578  19.677  0.00  0.00    +0.000 A 
ATOM     15  C   UNL     1       7.105  14.307  18.789  0.00  0.00    +0.000 A 
ATOM     16  C   UNL     1       5.940  15.095  18.705  0.00  0.00    +0.000 A 
ATOM     17  C   UNL     1       5.087  14.886  17.480  0.00  0.00    +0.000 C 
ATOM     18  C   UNL     1       5.665  16.024  19.726  0.00  0.00    +0.000 A 
BRANCH  14  19
ATOM     19  C   UNL     1       9.426  13.790  19.679  0.00  0.00    +0.000 A 
ATOM     20  C   UNL     1      10.508  14.124  18.806  0.00  0.00    +0.000 A 
ATOM     21  C   UNL     1      10.529  15.286  17.838  0.00  0.00    +0.000 C 
ATOM     22  C   UNL     1      11.679  13.339  18.785  0.00  0.00    +0.000 A 
ATOM     23  C   UNL     1      11.844  12.267  19.646  0.00  0.00    +0.000 A 
ATOM     24  C   UNL     1      10.829  11.948  20.532  0.00  0.00    +0.000 A 
ATOM     25  C   UNL     1       9.617  12.669  20.551  0.00  0.00    +0.000 A 
ATOM     26  C   UNL     1       8.589  12.168  21.542  0.00  0.00    +0.000 C 
ENDBRANCH  14  19
ENDBRANCH   1  18
BRANCH   7  27
ATOM     27  C   UNL     1      -0.095  13.544  21.553  0.00  0.00    +0.000 A 
ATOM     28  C   UNL     1      -0.417  14.251  22.719  0.00  0.00    +0.000 A 
ATOM     29  C   UNL     1      -1.555  13.923  23.460  0.00  0.00    +0.000 A 
ATOM     30  C   UNL     1      -2.401  12.901  23.031  0.00  0.00    +0.000 A 
ATOM     31  C   UNL     1      -2.118  12.213  21.849  0.00  0.00    +0.000 A 
ATOM     32  C   UNL     1      -0.975  12.539  21.125  0.00  0.00    +0.000 A 
BRANCH  30  33
ATOM     33  C   UNL     1      -3.552  12.538  23.800  0.00  0.00    +0.000 C 
ATOM     34  N   UNL     1      -4.483  12.233  24.431  0.00  0.00    +0.000 NA
ENDBRANCH  30  33
ENDBRANCH   7  27
TORSDOF 4
ENDMDL
MODEL 4
REMARK VINA RESULT:      -8.2      3.271     11.039
REMARK  Name = 
REMARK  8 active torsions:
REMARK  status: ('A' for Active; 'I' for Inactive)
REMARK    1  A    between atoms: C_1  and  C_2
REMARK    2  A    between atoms: C_4  and  C_5
REMARK    3  A    between atoms: C_6  and  C_7
REMARK    4  A    between atoms: C_11  and  C_12
REMARK    5  A    between atoms: C_14  and  C_15
REMARK    6  A    between atoms: C_16  and  N_17
REMARK    7  A    between atoms: N_23  and  C_24
REMARK    8  A    between atoms: C_27  and  C_28
REMARK                            x       y       z     vdW  Elec       q    Type
REMARK                         _______ _______ _______ _____ _____    ______ ____
ROOT
ATOM      1  N   UNL     1      -1.116  13.258  18.711  0.00  0.00    +0.000 N 
ATOM      2  C   UNL     1       0.043  12.437  18.702  0.00  0.00    +0.000 A 
ATOM      3  C   UNL     1       1.182  12.930  18.095  0.00  0.00    +0.000 A 
ATOM      4  C   UNL     1       2.286  12.122  18.118  0.00  0.00    +0.000 A 
ATOM      5  N   UNL     1       2.284  10.905  18.670  0.00  0.00    +0.000 NA
ATOM      6  C   UNL     1       1.135  10.474  19.217  0.00  0.00    +0.000 A 
ATOM      7  N   UNL     1       1.120   9.227  19.844  0.00  0.00    +0.000 N 
ATOM      8  N   UNL     1       0.011  11.200  19.233  0.00  0.00    +0.000 NA
ATOM      9  H   UNL     1      -0.853  14.226  18.548  0.00  0.00    +0.000 HD
ATOM     10  H   UNL     1       0.240   9.071  20.315  0.00  0.00    +0.000 HD
ENDROOT
BRANCH   1  18
ATOM     11  C   UNL     1      -3.394  11.478  18.370  0.00  0.00    +0.000 C 
ATOM     12  C   UNL     1      -3.312  12.526  19.449  0.00  0.00    +0.000 A 
ATOM     13  C   UNL     1      -4.458  12.722  20.247  0.00  0.00    +0.000 A 
ATOM     14  C   UNL     1      -4.421  13.442  21.445  0.00  0.00    +0.000 A 
ATOM     15  C   UNL     1      -3.217  14.100  21.715  0.00  0.00    +0.000 A 
ATOM     16  C   UNL     1      -2.141  14.147  20.804  0.00  0.00    +0.000 A 
ATOM     17  C   UNL     1      -1.076  15.172  21.092  0.00  0.00    +0.000 C 
ATOM     18  C   UNL     1      -2.142  13.277  19.698  0.00  0.00    +0.000 A 
BRANCH  14  19
ATOM     19  C   UNL     1      -5.590  13.491  22.382  0.00  0.00    +0.000 A 
ATOM     20  C   UNL     1      -5.513  12.935  23.697  0.00  0.00    +0.000 A 
ATOM     21  C   UNL     1      -4.288  12.289  24.307  0.00  0.00    +0.000 C 
ATOM     22  C   UNL     1      -6.639  12.943  24.544  0.00  0.00    +0.000 A 
ATOM     23  C   UNL     1      -7.827  13.542  24.159  0.00  0.00    +0.000 A 
ATOM     24  C   UNL     1      -7.916  14.127  22.907  0.00  0.00    +0.000 A 
ATOM     25  C   UNL     1      -6.834  14.094  22.003  0.00  0.00    +0.000 A 
ATOM     26  C   UNL     1      -7.102  14.733  20.658  0.00  0.00    +0.000 C 
ENDBRANCH  14  19
ENDBRANCH   1  18
BRANCH   7  27
ATOM     27  C   UNL     1       1.808   8.082  19.420  0.00  0.00    +0.000 A 
ATOM     28  C   UNL     1       1.963   6.988  20.283  0.00  0.00    +0.000 A 
ATOM     29  C   UNL     1       2.743   5.891  19.908  0.00  0.00    +0.000 A 
ATOM     30  C   UNL     1       3.359   5.862  18.658  0.00  0.00    +0.000 A 
ATOM     31  C   UNL     1       3.182   6.925  17.769  0.00  0.00    +0.000 A 
ATOM     32  C   UNL     1       2.413   8.019  18.157  0.00  0.00    +0.000 A 
BRANCH  30  33
ATOM     33  C   UNL     1       4.186   4.757  18.279  0.00  0.00    +0.000 C 
ATOM     34  N   UNL     1       4.857   3.852  17.981  0.00  0.00    +0.000 NA
ENDBRANCH  30  33
ENDBRANCH   7  27
TORSDOF 4
ENDMDL
MODEL 5
REMARK VINA RESULT:      -8.1      3.299      4.114
REMARK  Name = 
REMARK  8 active torsions:
REMARK  status: ('A' for Active; 'I' for Inactive)
REMARK    1  A    between atoms: C_1  and  C_2
REMARK    2  A    between atoms: C_4  and  C_5
REMARK    3  A    between atoms: C_6  and  C_7
REMARK    4  A    between atoms: C_11  and  C_12
REMARK    5  A    between atoms: C_14  and  C_15
REMARK    6  A    between atoms: C_16  and  N_17
REMARK    7  A    between atoms: N_23  and  C_24
REMARK    8  A    between atoms: C_27  and  C_28
REMARK                            x       y       z     vdW  Elec       q    Type
REMARK                         _______ _______ _______ _____ _____    ______ ____
ROOT
ATOM      1  N   UNL     1       0.713   7.696  20.408  0.00  0.00    +0.000 N 
ATOM      2  C   UNL     1       0.564   8.986  20.983  0.00  0.00    +0.000 A 
ATOM      3  C   UNL     1      -0.235   9.107  22.104  0.00  0.00    +0.000 A 
ATOM      4  C   UNL     1      -0.345  10.360  22.643  0.00  0.00    +0.000 A 
ATOM      5  N   UNL     1       0.258  11.432  22.121  0.00  0.00    +0.000 NA
ATOM      6  C   UNL     1       0.996  11.249  21.013  0.00  0.00    +0.000 A 
ATOM      7  N   UNL     1       1.677  12.343  20.476  0.00  0.00    +0.000 N 
ATOM      8  N   UNL     1       1.152  10.059  20.421  0.00  0.00    +0.000 NA
ATOM      9  H   UNL     1       0.465   6.984  21.090  0.00  0.00    +0.000 HD
ATOM     10  H   UNL     1       2.286  12.055  19.723  0.00  0.00    +0.000 HD
ENDROOT
BRANCH   1  18
ATOM     11  C   UNL     1       1.515   9.057  17.964  0.00  0.00    +0.000 C 
ATOM     12  C   UNL     1       2.136   7.770  18.439  0.00  0.00    +0.000 A 
ATOM     13  C   UNL     1       3.063   7.144  17.582  0.00  0.00    +0.000 A 
ATOM     14  C   UNL     1       3.911   6.121  18.016  0.00  0.00    +0.000 A 
ATOM     15  C   UNL     1       3.663   5.640  19.306  0.00  0.00    +0.000 A 
ATOM     16  C   UNL     1       2.567   6.059  20.089  0.00  0.00    +0.000 A 
ATOM     17  C   UNL     1       2.245   5.203  21.286  0.00  0.00    +0.000 C 
ATOM     18  C   UNL     1       1.844   7.202  19.700  0.00  0.00    +0.000 A 
BRANCH  14  19
ATOM     19  C   UNL     1       5.020   5.588  17.161  0.00  0.00    +0.000 A 
ATOM     20  C   UNL     1       6.226   6.328  16.960  0.00  0.00    +0.000 A 
ATOM     21  C   UNL     1       6.550   7.667  17.587  0.00  0.00    +0.000 C 
ATOM     22  C   UNL     1       7.236   5.834  16.109  0.00  0.00    +0.000 A 
ATOM     23  C   UNL     1       7.122   4.598  15.496  0.00  0.00    +0.000 A 
ATOM     24  C   UNL     1       5.982   3.840  15.708  0.00  0.00    +0.000 A 
ATOM     25  C   UNL     1       4.921   4.317  16.505  0.00  0.00    +0.000 A 
ATOM     26  C   UNL     1       3.726   3.394  16.601  0.00  0.00    +0.000 C 
ENDBRANCH  14  19
ENDBRANCH   1  18
BRANCH   7  27
ATOM     27  C   UNL     1       1.207  13.662  20.423  0.00  0.00    +0.000 A 
ATOM     28  C   UNL     1       1.704  14.628  21.308  0.00  0.00    +0.000 A 
ATOM     29  C   UNL     1       1.161  15.915  21.337  0.00  0.00    +0.000 A 
ATOM     30  C   UNL     1       0.130  16.261  20.464  0.00  0.00    +0.000 A 
ATOM     31  C   UNL     1      -0.350  15.323  19.547  0.00  0.00    +0.000 A 
ATOM     32  C   UNL     1       0.190  14.040  19.535  0.00  0.00    +0.000 A 
BRANCH  30  33
ATOM     33  C   UNL     1      -0.454  17.567  20.509  0.00  0.00    +0.000 C 
ATOM     34  N   UNL     1      -0.928  18.631  20.533  0.00  0.00    +0.000 NA
ENDBRANCH  30  33
ENDBRANCH   7  27
TORSDOF 4
ENDMDL
MODEL 6
REMARK VINA RESULT:      -8.0      1.725      2.658
REMARK  Name = 
REMARK  8 active torsions:
REMARK  status: ('A' for Active; 'I' for Inactive)
REMARK    1  A    between atoms: C_1  and  C_2
REMARK    2  A    between atoms: C_4  and  C_5
REMARK    3  A    between atoms: C_6  and  C_7
REMARK    4  A    between atoms: C_11  and  C_12
REMARK    5  A    between atoms: C_14  and  C_15
REMARK    6  A    between atoms: C_16  and  N_17
REMARK    7  A    between atoms: N_23  and  C_24
REMARK    8  A    between atoms: C_27  and  C_28
REMARK                            x       y       z     vdW  Elec       q    Type
REMARK                         _______ _______ _______ _____ _____    ______ ____
ROOT
ATOM      1  N   UNL     1       1.826   9.627  19.931  0.00  0.00    +0.000 N 
ATOM      2  C   UNL     1       0.922  10.574  19.380  0.00  0.00    +0.000 A 
ATOM      3  C   UNL     1       1.318  11.897  19.334  0.00  0.00    +0.000 A 
ATOM      4  C   UNL     1       0.432  12.782  18.782  0.00  0.00    +0.000 A 
ATOM      5  N   UNL     1      -0.770  12.417  18.326  0.00  0.00    +0.000 NA
ATOM      6  C   UNL     1      -1.104  11.120  18.428  0.00  0.00    +0.000 A 
ATOM      7  N   UNL     1      -2.334  10.704  17.914  0.00  0.00    +0.000 N 
ATOM      8  N   UNL     1      -0.298  10.192  18.957  0.00  0.00    +0.000 NA
ATOM      9  H   UNL     1       2.769  10.007  19.924  0.00  0.00    +0.000 HD
ATOM     10  H   UNL     1      -2.416   9.697  17.943  0.00  0.00    +0.000 HD
ENDROOT
BRANCH   1  18
ATOM     11  C   UNL     1       0.936   7.635  21.857  0.00  0.00    +0.000 C 
ATOM     12  C   UNL     1       1.650   7.291  20.576  0.00  0.00    +0.000 A 
ATOM     13  C   UNL     1       2.006   5.942  20.377  0.00  0.00    +0.000 A 
ATOM     14  C   UNL     1       2.405   5.449  19.130  0.00  0.00    +0.000 A 
ATOM     15  C   UNL     1       2.593   6.414  18.135  0.00  0.00    +0.000 A 
ATOM     16  C   UNL     1       2.509   7.800  18.377  0.00  0.00    +0.000 A 
ATOM     17  C   UNL     1       3.077   8.693  17.304  0.00  0.00    +0.000 C 
ATOM     18  C   UNL     1       1.941   8.252  19.582  0.00  0.00    +0.000 A 
BRANCH  14  19
ATOM     19  C   UNL     1       2.601   3.986  18.877  0.00  0.00    +0.000 A 
ATOM     20  C   UNL     1       3.752   3.499  18.182  0.00  0.00    +0.000 A 
ATOM     21  C   UNL     1       4.892   4.349  17.668  0.00  0.00    +0.000 C 
ATOM     22  C   UNL     1       3.893   2.124  17.907  0.00  0.00    +0.000 A 
ATOM     23  C   UNL     1       2.963   1.200  18.352  0.00  0.00    +0.000 A 
ATOM     24  C   UNL     1       1.860   1.639  19.067  0.00  0.00    +0.000 A 
ATOM     25  C   UNL     1       1.647   3.010  19.317  0.00  0.00    +0.000 A 
ATOM     26  C   UNL     1       0.374   3.334  20.068  0.00  0.00    +0.000 C 
ENDBRANCH  14  19
ENDBRANCH   1  18
BRANCH   7  27
ATOM     27  C   UNL     1      -3.535  11.425  17.962  0.00  0.00    +0.000 A 
ATOM     28  C   UNL     1      -4.293  11.618  16.799  0.00  0.00    +0.000 A 
ATOM     29  C   UNL     1      -5.430  12.429  16.817  0.00  0.00    +0.000 A 
ATOM     30  C   UNL     1      -5.839  13.039  18.003  0.00  0.00    +0.000 A 
ATOM     31  C   UNL     1      -5.119  12.824  19.180  0.00  0.00    +0.000 A 
ATOM     32  C   UNL     1      -3.980  12.024  19.149  0.00  0.00    +0.000 A 
BRANCH  30  33
ATOM     33  C   UNL     1      -6.984  13.897  18.023  0.00  0.00    +0.000 C 
ATOM     34  N   UNL     1      -7.916  14.595  18.051  0.00  0.00    +0.000 NA
ENDBRANCH  30  33
ENDBRANCH   7  27
TORSDOF 4
ENDMDL
MODEL 7
REMARK VINA RESULT:      -8.0      6.982      8.537
REMARK  Name = 
REMARK  8 active torsions:
REMARK  status: ('A' for Active; 'I' for Inactive)
REMARK    1  A    between atoms: C_1  and  C_2
REMARK    2  A    between atoms: C_4  and  C_5
REMARK    3  A    between atoms: C_6  and  C_7
REMARK    4  A    between atoms: C_11  and  C_12
REMARK    5  A    between atoms: C_14  and  C_15
REMARK    6  A    between atoms: C_16  and  N_17
REMARK    7  A    between atoms: N_23  and  C_24
REMARK    8  A    between atoms: C_27  and  C_28
REMARK                            x       y       z     vdW  Elec       q    Type
REMARK                         _______ _______ _______ _____ _____    ______ ____
ROOT
ATOM      1  N   UNL     1       4.302  17.082  19.696  0.00  0.00    +0.000 N 
ATOM      2  C   UNL     1       3.006  16.505  19.763  0.00  0.00    +0.000 A 
ATOM      3  C   UNL     1       1.979  17.139  19.091  0.00  0.00    +0.000 A 
ATOM      4  C   UNL     1       0.746  16.549  19.161  0.00  0.00    +0.000 A 
ATOM      5  N   UNL     1       0.514  15.431  19.855  0.00  0.00    +0.000 NA
ATOM      6  C   UNL     1       1.551  14.882  20.510  0.00  0.00    +0.000 A 
ATOM      7  N   UNL     1       1.347  13.687  21.202  0.00  0.00    +0.000 N 
ATOM      8  N   UNL     1       2.786  15.397  20.496  0.00  0.00    +0.000 NA
ATOM      9  H   UNL     1       4.359  17.711  18.899  0.00  0.00    +0.000 HD
ATOM     10  H   UNL     1       2.221  13.316  21.549  0.00  0.00    +0.000 HD
ENDROOT
BRANCH   1  18
ATOM     11  C   UNL     1       4.940  15.178  17.589  0.00  0.00    +0.000 C 
ATOM     12  C   UNL     1       5.784  15.366  18.822  0.00  0.00    +0.000 A 
ATOM     13  C   UNL     1       6.865  14.481  19.006  0.00  0.00    +0.000 A 
ATOM     14  C   UNL     1       7.880  14.722  19.938  0.00  0.00    +0.000 A 
ATOM     15  C   UNL     1       7.665  15.808  20.794  0.00  0.00    +0.000 A 
ATOM     16  C   UNL     1       6.467  16.549  20.814  0.00  0.00    +0.000 A 
ATOM     17  C   UNL     1       6.262  17.440  22.012  0.00  0.00    +0.000 C 
ATOM     18  C   UNL     1       5.547  16.396  19.760  0.00  0.00    +0.000 A 
BRANCH  14  19
ATOM     19  C   UNL     1       9.119  13.882  20.002  0.00  0.00    +0.000 A 
ATOM     20  C   UNL     1      10.223  14.117  19.125  0.00  0.00    +0.000 A 
ATOM     21  C   UNL     1      10.305  15.218  18.090  0.00  0.00    +0.000 C 
ATOM     22  C   UNL     1      11.359  13.283  19.164  0.00  0.00    +0.000 A 
ATOM     23  C   UNL     1      11.469  12.258  20.089  0.00  0.00    +0.000 A 
ATOM     24  C   UNL     1      10.432  12.035  20.980  0.00  0.00    +0.000 A 
ATOM     25  C   UNL     1       9.253  12.807  20.941  0.00  0.00    +0.000 A 
ATOM     26  C   UNL     1       8.194  12.412  21.947  0.00  0.00    +0.000 C 
ENDBRANCH  14  19
ENDBRANCH   1  18
BRANCH   7  27
ATOM     27  C   UNL     1       0.196  13.336  21.921  0.00  0.00    +0.000 A 
ATOM     28  C   UNL     1      -0.373  12.064  21.771  0.00  0.00    +0.000 A 
ATOM     29  C   UNL     1      -1.581  11.746  22.397  0.00  0.00    +0.000 A 
ATOM     30  C   UNL     1      -2.224  12.687  23.201  0.00  0.00    +0.000 A 
ATOM     31  C   UNL     1      -1.650  13.946  23.394  0.00  0.00    +0.000 A 
ATOM     32  C   UNL     1      -0.452  14.256  22.757  0.00  0.00    +0.000 A 
BRANCH  30  33
ATOM     33  C   UNL     1      -3.478  12.381  23.819  0.00  0.00    +0.000 C 
ATOM     34  N   UNL     1      -4.501  12.143  24.322  0.00  0.00    +0.000 NA
ENDBRANCH  30  33
ENDBRANCH   7  27
TORSDOF 4
ENDMDL
MODEL 8
REMARK VINA RESULT:      -8.0      3.254     10.937
REMARK  Name = 
REMARK  8 active torsions:
REMARK  status: ('A' for Active; 'I' for Inactive)
REMARK    1  A    between atoms: C_1  and  C_2
REMARK    2  A    between atoms: C_4  and  C_5
REMARK    3  A    between atoms: C_6  and  C_7
REMARK    4  A    between atoms: C_11  and  C_12
REMARK    5  A    between atoms: C_14  and  C_15
REMARK    6  A    between atoms: C_16  and  N_17
REMARK    7  A    between atoms: N_23  and  C_24
REMARK    8  A    between atoms: C_27  and  C_28
REMARK                            x       y       z     vdW  Elec       q    Type
REMARK                         _______ _______ _______ _____ _____    ______ ____
ROOT
ATOM      1  N   UNL     1      -0.956  13.381  18.716  0.00  0.00    +0.000 N 
ATOM      2  C   UNL     1       0.194  12.548  18.710  0.00  0.00    +0.000 A 
ATOM      3  C   UNL     1       1.358  13.053  18.161  0.00  0.00    +0.000 A 
ATOM      4  C   UNL     1       2.452  12.232  18.185  0.00  0.00    +0.000 A 
ATOM      5  N   UNL     1       2.420  10.993  18.686  0.00  0.00    +0.000 NA
ATOM      6  C   UNL     1       1.249  10.553  19.177  0.00  0.00    +0.000 A 
ATOM      7  N   UNL     1       1.201   9.281  19.751  0.00  0.00    +0.000 N 
ATOM      8  N   UNL     1       0.132  11.291  19.188  0.00  0.00    +0.000 NA
ATOM      9  H   UNL     1      -0.678  14.353  18.602  0.00  0.00    +0.000 HD
ATOM     10  H   UNL     1       0.305   9.116  20.187  0.00  0.00    +0.000 HD
ENDROOT
BRANCH   1  18
ATOM     11  C   UNL     1      -3.078  11.414  18.405  0.00  0.00    +0.000 C 
ATOM     12  C   UNL     1      -3.113  12.519  19.428  0.00  0.00    +0.000 A 
ATOM     13  C   UNL     1      -4.297  12.666  20.179  0.00  0.00    +0.000 A 
ATOM     14  C   UNL     1      -4.355  13.449  21.337  0.00  0.00    +0.000 A 
ATOM     15  C   UNL     1      -3.214  14.212  21.606  0.00  0.00    +0.000 A 
ATOM     16  C   UNL     1      -2.116  14.295  20.726  0.00  0.00    +0.000 A 
ATOM     17  C   UNL     1      -1.142  15.414  20.989  0.00  0.00    +0.000 C 
ATOM     18  C   UNL     1      -2.013  13.372  19.669  0.00  0.00    +0.000 A 
BRANCH  14  19
ATOM     19  C   UNL     1      -5.555  13.455  22.234  0.00  0.00    +0.000 A 
ATOM     20  C   UNL     1      -6.813  13.970  21.790  0.00  0.00    +0.000 A 
ATOM     21  C   UNL     1      -7.102  14.514  20.409  0.00  0.00    +0.000 C 
ATOM     22  C   UNL     1      -7.916  14.017  22.667  0.00  0.00    +0.000 A 
ATOM     23  C   UNL     1      -7.838  13.512  23.954  0.00  0.00    +0.000 A 
ATOM     24  C   UNL     1      -6.643  12.967  24.395  0.00  0.00    +0.000 A 
ATOM     25  C   UNL     1      -5.497  12.950  23.574  0.00  0.00    +0.000 A 
ATOM     26  C   UNL     1      -4.257  12.366  24.216  0.00  0.00    +0.000 C 
ENDBRANCH  14  19
ENDBRANCH   1  18
BRANCH   7  27
ATOM     27  C   UNL     1       1.891   8.147  19.303  0.00  0.00    +0.000 A 
ATOM     28  C   UNL     1       2.477   8.131  18.029  0.00  0.00    +0.000 A 
ATOM     29  C   UNL     1       3.068   6.967  17.533  0.00  0.00    +0.000 A 
ATOM     30  C   UNL     1       3.103   5.810  18.311  0.00  0.00    +0.000 A 
ATOM     31  C   UNL     1       2.561   5.820  19.598  0.00  0.00    +0.000 A 
ATOM     32  C   UNL     1       1.964   6.982  20.079  0.00  0.00    +0.000 A 
BRANCH  30  33
ATOM     33  C   UNL     1       3.678   4.604  17.798  0.00  0.00    +0.000 C 
ATOM     34  N   UNL     1       4.151   3.621  17.390  0.00  0.00    +0.000 NA
ENDBRANCH  30  33
ENDBRANCH   7  27
TORSDOF 4
ENDMDL
MODEL 9
REMARK VINA RESULT:      -7.9      6.867      8.783
REMARK  Name = 
REMARK  8 active torsions:
REMARK  status: ('A' for Active; 'I' for Inactive)
REMARK    1  A    between atoms: C_1  and  C_2
REMARK    2  A    between atoms: C_4  and  C_5
REMARK    3  A    between atoms: C_6  and  C_7
REMARK    4  A    between atoms: C_11  and  C_12
REMARK    5  A    between atoms: C_14  and  C_15
REMARK    6  A    between atoms: C_16  and  N_17
REMARK    7  A    between atoms: N_23  and  C_24
REMARK    8  A    between atoms: C_27  and  C_28
REMARK                            x       y       z     vdW  Elec       q    Type
REMARK                         _______ _______ _______ _____ _____    ______ ____
ROOT
ATOM      1  N   UNL     1       5.018  16.984  20.811  0.00  0.00    +0.000 N 
ATOM      2  C   UNL     1       3.637  16.669  20.714  0.00  0.00    +0.000 A 
ATOM      3  C   UNL     1       2.770  17.669  20.318  0.00  0.00    +0.000 A 
ATOM      4  C   UNL     1       1.448  17.329  20.218  0.00  0.00    +0.000 A 
ATOM      5  N   UNL     1       0.988  16.108  20.507  0.00  0.00    +0.000 NA
ATOM      6  C   UNL     1       1.880  15.190  20.916  0.00  0.00    +0.000 A 
ATOM      7  N   UNL     1       1.434  13.893  21.176  0.00  0.00    +0.000 N 
ATOM      8  N   UNL     1       3.189  15.442  21.043  0.00  0.00    +0.000 NA
ATOM      9  H   UNL     1       5.220  17.819  20.267  0.00  0.00    +0.000 HD
ATOM     10  H   UNL     1       2.211  13.274  21.357  0.00  0.00    +0.000 HD
ENDROOT
BRANCH   1  18
ATOM     11  C   UNL     1       6.856  16.541  23.024  0.00  0.00    +0.000 C 
ATOM     12  C   UNL     1       7.083  16.004  21.635  0.00  0.00    +0.000 A 
ATOM     13  C   UNL     1       8.312  15.363  21.384  0.00  0.00    +0.000 A 
ATOM     14  C   UNL     1       8.529  14.580  20.245  0.00  0.00    +0.000 A 
ATOM     15  C   UNL     1       7.509  14.614  19.288  0.00  0.00    +0.000 A 
ATOM     16  C   UNL     1       6.386  15.461  19.387  0.00  0.00    +0.000 A 
ATOM     17  C   UNL     1       5.577  15.633  18.128  0.00  0.00    +0.000 C 
ATOM     18  C   UNL     1       6.113  16.097  20.612  0.00  0.00    +0.000 A 
BRANCH  14  19
ATOM     19  C   UNL     1       9.765  13.750  20.072  0.00  0.00    +0.000 A 
ATOM     20  C   UNL     1       9.886  12.461  20.677  0.00  0.00    +0.000 A 
ATOM     21  C   UNL     1       8.819  11.773  21.501  0.00  0.00    +0.000 C 
ATOM     22  C   UNL     1      11.077  11.718  20.546  0.00  0.00    +0.000 A 
ATOM     23  C   UNL     1      12.135  12.179  19.782  0.00  0.00    +0.000 A 
ATOM     24  C   UNL     1      12.027  13.406  19.148  0.00  0.00    +0.000 A 
ATOM     25  C   UNL     1      10.878  14.210  19.295  0.00  0.00    +0.000 A 
ATOM     26  C   UNL     1      10.932  15.543  18.581  0.00  0.00    +0.000 C 
ENDBRANCH  14  19
ENDBRANCH   1  18
BRANCH   7  27
ATOM     27  C   UNL     1       0.212  13.545  21.766  0.00  0.00    +0.000 A 
ATOM     28  C   UNL     1      -0.394  14.396  22.700  0.00  0.00    +0.000 A 
ATOM     29  C   UNL     1      -1.553  14.004  23.375  0.00  0.00    +0.000 A 
ATOM     30  C   UNL     1      -2.136  12.766  23.108  0.00  0.00    +0.000 A 
ATOM     31  C   UNL     1      -1.569  11.922  22.150  0.00  0.00    +0.000 A 
ATOM     32  C   UNL     1      -0.408  12.317  21.492  0.00  0.00    +0.000 A 
BRANCH  30  33
ATOM     33  C   UNL     1      -3.304  12.344  23.817  0.00  0.00    +0.000 C 
ATOM     34  N   UNL     1      -4.261  12.009  24.392  0.00  0.00    +0.000 NA
ENDBRANCH  30  33
ENDBRANCH   7  27
TORSDOF 4
ENDMDL
