MODEL 1
REMARK VINA RESULT:      -6.9      0.000      0.000
REMARK  Name = 
REMARK  7 active torsions:
REMARK  status: ('A' for Active; 'I' for Inactive)
REMARK    1  A    between atoms: C_1  and  C_2
REMARK    2  A    between atoms: C_2  and  O_3
REMARK    3  A    between atoms: O_3  and  C_4
REMARK    4  A    between atoms: N_6  and  C_7
REMARK    5  A    between atoms: C_7  and  C_8
REMARK    6  A    between atoms: C_8  and  C_9
REMARK    7  A    between atoms: C_15  and  C_16
REMARK                            x       y       z     vdW  Elec       q    Type
REMARK                         _______ _______ _______ _____ _____    ______ ____
ROOT
ATOM      1  C   UNL     1       4.737   6.063  18.046  0.00  0.00    +0.000 C 
ENDROOT
BRANCH   1   2
ATOM      2  C   UNL     1       4.831   4.651  18.572  0.00  0.00    +0.000 C 
ATOM      3  O   UNL     1       5.743   4.313  19.335  0.00  0.00    +0.000 OA
ATOM      4  N   UNL     1       3.832   3.771  18.173  0.00  0.00    +0.000 N 
ATOM      5  C   UNL     1       2.709   4.099  17.296  0.00  0.00    +0.000 C 
ATOM      6  C   UNL     1       1.384   3.940  18.039  0.00  0.00    +0.000 C 
ATOM      7  C   UNL     1       1.277   2.560  18.697  0.00  0.00    +0.000 C 
ATOM      8  C   UNL     1       2.511   2.215  19.552  0.00  0.00    +0.000 C 
ATOM      9  C   UNL     1       2.537   3.022  20.853  0.00  0.00    +0.000 C 
ATOM     10  C   UNL     1       3.798   2.427  18.740  0.00  0.00    +0.000 C 
ENDBRANCH   1   2
BRANCH   1  11
ATOM     11  C   UNL     1       6.005   6.472  17.310  0.00  0.00    +0.000 C 
BRANCH  11  14
ATOM     12  C   UNL     1       7.080   4.931  15.736  0.00  0.00    +0.000 C 
ATOM     13  O   UNL     1       7.858   4.461  16.551  0.00  0.00    +0.000 OA
ATOM     14  N   UNL     1       6.100   5.836  16.013  0.00  0.00    +0.000 N 
ATOM     15  H   UNL     1       5.679   6.272  15.204  0.00  0.00    +0.000 HD
BRANCH  12  16
ATOM     16  O   UNL     1       7.094   4.696  14.404  0.00  0.00    +0.000 OA
BRANCH  16  18
ATOM     17  C   UNL     1       6.260   3.516  12.505  0.00  0.00    +0.000 C 
ATOM     18  C   UNL     1       5.940   4.006  13.905  0.00  0.00    +0.000 C 
ENDBRANCH  16  18
ENDBRANCH  12  16
ENDBRANCH  11  14
ENDBRANCH   1  11
TORSDOF 5
ENDMDL
MODEL 2
REMARK VINA RESULT:      -6.8      1.608      2.705
REMARK  Name = 
REMARK  7 active torsions:
REMARK  status: ('A' for Active; 'I' for Inactive)
REMARK    1  A    between atoms: C_1  and  C_2
REMARK    2  A    between atoms: C_2  and  O_3
REMARK    3  A    between atoms: O_3  and  C_4
REMARK    4  A    between atoms: N_6  and  C_7
REMARK    5  A    between atoms: C_7  and  C_8
REMARK    6  A    between atoms: C_8  and  C_9
REMARK    7  A    between atoms: C_15  and  C_16
REMARK                            x       y       z     vdW  Elec       q    Type
REMARK                         _______ _______ _______ _____ _____    ______ ____
ROOT
ATOM      1  C   UNL     1       3.993   3.887  16.833  0.00  0.00    +0.000 C 
ENDROOT
BRANCH   1   2
ATOM      2  C   UNL     1       4.267   3.663  18.302  0.00  0.00    +0.000 C 
ATOM      3  O   UNL     1       5.241   4.183  18.856  0.00  0.00    +0.000 OA
ATOM      4  N   UNL     1       3.359   2.868  18.989  0.00  0.00    +0.000 N 
ATOM      5  C   UNL     1       2.170   2.238  18.413  0.00  0.00    +0.000 C 
ATOM      6  C   UNL     1       0.904   2.785  19.068  0.00  0.00    +0.000 C 
ATOM      7  C   UNL     1       0.979   2.688  20.596  0.00  0.00    +0.000 C 
ATOM      8  C   UNL     1       2.278   3.292  21.162  0.00  0.00    +0.000 C 
ATOM      9  C   UNL     1       2.266   4.822  21.089  0.00  0.00    +0.000 C 
ATOM     10  C   UNL     1       3.500   2.710  20.434  0.00  0.00    +0.000 C 
ENDBRANCH   1   2
BRANCH   1  11
ATOM     11  C   UNL     1       5.269   3.809  16.008  0.00  0.00    +0.000 C 
BRANCH  11  14
ATOM     12  C   UNL     1       7.251   5.238  16.196  0.00  0.00    +0.000 C 
ATOM     13  O   UNL     1       8.032   4.323  16.400  0.00  0.00    +0.000 OA
ATOM     14  N   UNL     1       5.926   5.096  15.915  0.00  0.00    +0.000 N 
ATOM     15  H   UNL     1       5.382   5.946  15.972  0.00  0.00    +0.000 HD
BRANCH  12  16
ATOM     16  O   UNL     1       7.540   6.557  16.283  0.00  0.00    +0.000 OA
BRANCH  16  18
ATOM     17  C   UNL     1       7.908   6.778  18.630  0.00  0.00    +0.000 C 
ATOM     18  C   UNL     1       7.040   7.204  17.461  0.00  0.00    +0.000 C 
ENDBRANCH  16  18
ENDBRANCH  12  16
ENDBRANCH  11  14
ENDBRANCH   1  11
TORSDOF 5
ENDMDL
MODEL 3
REMARK VINA RESULT:      -6.8      1.768      2.903
REMARK  Name = 
REMARK  7 active torsions:
REMARK  status: ('A' for Active; 'I' for Inactive)
REMARK    1  A    between atoms: C_1  and  C_2
REMARK    2  A    between atoms: C_2  and  O_3
REMARK    3  A    between atoms: O_3  and  C_4
REMARK    4  A    between atoms: N_6  and  C_7
REMARK    5  A    between atoms: C_7  and  C_8
REMARK    6  A    between atoms: C_8  and  C_9
REMARK    7  A    between atoms: C_15  and  C_16
REMARK                            x       y       z     vdW  Elec       q    Type
REMARK                         _______ _______ _______ _____ _____    ______ ____
ROOT
ATOM      1  C   UNL     1       4.209   3.815  16.845  0.00  0.00    +0.000 C 
ENDROOT
BRANCH   1   2
ATOM      2  C   UNL     1       4.361   3.612  18.334  0.00  0.00    +0.000 C 
ATOM      3  O   UNL     1       5.294   4.131  18.958  0.00  0.00    +0.000 OA
ATOM      4  N   UNL     1       3.392   2.836  18.958  0.00  0.00    +0.000 N 
ATOM      5  C   UNL     1       2.247   2.210  18.298  0.00  0.00    +0.000 C 
ATOM      6  C   UNL     1       0.938   2.779  18.841  0.00  0.00    +0.000 C 
ATOM      7  C   UNL     1       0.890   2.705  20.371  0.00  0.00    +0.000 C 
ATOM      8  C   UNL     1       2.146   3.305  21.031  0.00  0.00    +0.000 C 
ATOM      9  C   UNL     1       2.156   4.834  20.935  0.00  0.00    +0.000 C 
ATOM     10  C   UNL     1       3.415   2.700  20.411  0.00  0.00    +0.000 C 
ENDBRANCH   1   2
BRANCH   1  11
ATOM     11  C   UNL     1       5.542   3.685  16.123  0.00  0.00    +0.000 C 
BRANCH  11  14
ATOM     12  C   UNL     1       6.454   5.957  16.004  0.00  0.00    +0.000 C 
ATOM     13  O   UNL     1       5.589   6.387  15.257  0.00  0.00    +0.000 OA
ATOM     14  N   UNL     1       6.479   4.706  16.542  0.00  0.00    +0.000 N 
ATOM     15  H   UNL     1       7.356   4.442  16.970  0.00  0.00    +0.000 HD
BRANCH  12  16
ATOM     16  O   UNL     1       7.578   6.614  16.373  0.00  0.00    +0.000 OA
BRANCH  16  18
ATOM     17  C   UNL     1       7.959   8.508  17.773  0.00  0.00    +0.000 C 
ATOM     18  C   UNL     1       7.602   7.034  17.744  0.00  0.00    +0.000 C 
ENDBRANCH  16  18
ENDBRANCH  12  16
ENDBRANCH  11  14
ENDBRANCH   1  11
TORSDOF 5
ENDMDL
MODEL 4
REMARK VINA RESULT:      -6.8      1.616      2.069
REMARK  Name = 
REMARK  7 active torsions:
REMARK  status: ('A' for Active; 'I' for Inactive)
REMARK    1  A    between atoms: C_1  and  C_2
REMARK    2  A    between atoms: C_2  and  O_3
REMARK    3  A    between atoms: O_3  and  C_4
REMARK    4  A    between atoms: N_6  and  C_7
REMARK    5  A    between atoms: C_7  and  C_8
REMARK    6  A    between atoms: C_8  and  C_9
REMARK    7  A    between atoms: C_15  and  C_16
REMARK                            x       y       z     vdW  Elec       q    Type
REMARK                         _______ _______ _______ _____ _____    ______ ____
ROOT
ATOM      1  C   UNL     1       4.841   5.876  18.259  0.00  0.00    +0.000 C 
ENDROOT
BRANCH   1   2
ATOM      2  C   UNL     1       3.738   4.996  17.720  0.00  0.00    +0.000 C 
ATOM      3  O   UNL     1       3.910   4.300  16.714  0.00  0.00    +0.000 OA
ATOM      4  N   UNL     1       2.541   4.997  18.426  0.00  0.00    +0.000 N 
ATOM      5  C   UNL     1       2.266   5.770  19.636  0.00  0.00    +0.000 C 
ATOM      6  C   UNL     1       1.985   4.840  20.815  0.00  0.00    +0.000 C 
ATOM      7  C   UNL     1       0.897   3.817  20.471  0.00  0.00    +0.000 C 
ATOM      8  C   UNL     1       1.180   3.075  19.150  0.00  0.00    +0.000 C 
ATOM      9  C   UNL     1       2.320   2.065  19.307  0.00  0.00    +0.000 C 
ATOM     10  C   UNL     1       1.477   4.080  18.027  0.00  0.00    +0.000 C 
ENDBRANCH   1   2
BRANCH   1  11
ATOM     11  C   UNL     1       6.047   5.057  18.694  0.00  0.00    +0.000 C 
BRANCH  11  14
ATOM     12  C   UNL     1       7.370   5.259  16.641  0.00  0.00    +0.000 C 
ATOM     13  O   UNL     1       7.548   6.462  16.739  0.00  0.00    +0.000 OA
ATOM     14  N   UNL     1       6.738   4.479  17.562  0.00  0.00    +0.000 N 
ATOM     15  H   UNL     1       6.497   3.550  17.242  0.00  0.00    +0.000 HD
BRANCH  12  16
ATOM     16  O   UNL     1       7.700   4.495  15.574  0.00  0.00    +0.000 OA
BRANCH  16  18
ATOM     17  C   UNL     1       6.000   3.913  14.005  0.00  0.00    +0.000 C 
ATOM     18  C   UNL     1       7.100   4.903  14.337  0.00  0.00    +0.000 C 
ENDBRANCH  16  18
ENDBRANCH  12  16
ENDBRANCH  11  14
ENDBRANCH   1  11
TORSDOF 5
ENDMDL
MODEL 5
REMARK VINA RESULT:      -6.7      1.521      1.761
REMARK  Name = 
REMARK  7 active torsions:
REMARK  status: ('A' for Active; 'I' for Inactive)
REMARK    1  A    between atoms: C_1  and  C_2
REMARK    2  A    between atoms: C_2  and  O_3
REMARK    3  A    between atoms: O_3  and  C_4
REMARK    4  A    between atoms: N_6  and  C_7
REMARK    5  A    between atoms: C_7  and  C_8
REMARK    6  A    between atoms: C_8  and  C_9
REMARK    7  A    between atoms: C_15  and  C_16
REMARK                            x       y       z     vdW  Elec       q    Type
REMARK                         _______ _______ _______ _____ _____    ______ ____
ROOT
ATOM      1  C   UNL     1       4.555   3.778  16.948  0.00  0.00    +0.000 C 
ENDROOT
BRANCH   1   2
ATOM      2  C   UNL     1       4.547   3.546  18.440  0.00  0.00    +0.000 C 
ATOM      3  O   UNL     1       5.456   3.975  19.158  0.00  0.00    +0.000 OA
ATOM      4  N   UNL     1       3.459   2.852  18.955  0.00  0.00    +0.000 N 
ATOM      5  C   UNL     1       2.332   2.336  18.179  0.00  0.00    +0.000 C 
ATOM      6  C   UNL     1       1.031   3.012  18.606  0.00  0.00    +0.000 C 
ATOM      7  C   UNL     1       0.831   2.926  20.123  0.00  0.00    +0.000 C 
ATOM      8  C   UNL     1       2.065   3.406  20.910  0.00  0.00    +0.000 C 
ATOM      9  C   UNL     1       2.217   4.929  20.844  0.00  0.00    +0.000 C 
ATOM     10  C   UNL     1       3.331   2.699  20.401  0.00  0.00    +0.000 C 
ENDBRANCH   1   2
BRANCH   1  11
ATOM     11  C   UNL     1       5.954   4.090  16.438  0.00  0.00    +0.000 C 
BRANCH  11  14
ATOM     12  C   UNL     1       6.895   4.673  14.251  0.00  0.00    +0.000 C 
ATOM     13  O   UNL     1       7.728   5.450  14.690  0.00  0.00    +0.000 OA
ATOM     14  N   UNL     1       6.055   3.911  15.005  0.00  0.00    +0.000 N 
ATOM     15  H   UNL     1       5.297   3.478  14.495  0.00  0.00    +0.000 HD
BRANCH  12  16
ATOM     16  O   UNL     1       6.604   4.482  12.944  0.00  0.00    +0.000 OA
BRANCH  16  18
ATOM     17  C   UNL     1       4.911   3.302  11.748  0.00  0.00    +0.000 C 
ATOM     18  C   UNL     1       6.145   3.163  12.619  0.00  0.00    +0.000 C 
ENDBRANCH  16  18
ENDBRANCH  12  16
ENDBRANCH  11  14
ENDBRANCH   1  11
TORSDOF 5
ENDMDL
MODEL 6
REMARK VINA RESULT:      -6.6      1.332      1.865
REMARK  Name = 
REMARK  7 active torsions:
REMARK  status: ('A' for Active; 'I' for Inactive)
REMARK    1  A    between atoms: C_1  and  C_2
REMARK    2  A    between atoms: C_2  and  O_3
REMARK    3  A    between atoms: O_3  and  C_4
REMARK    4  A    between atoms: N_6  and  C_7
REMARK    5  A    between atoms: C_7  and  C_8
REMARK    6  A    between atoms: C_8  and  C_9
REMARK    7  A    between atoms: C_15  and  C_16
REMARK                            x       y       z     vdW  Elec       q    Type
REMARK                         _______ _______ _______ _____ _____    ______ ____
ROOT
ATOM      1  C   UNL     1       5.530   4.506  18.791  0.00  0.00    +0.000 C 
ENDROOT
BRANCH   1   2
ATOM      2  C   UNL     1       4.256   4.150  18.063  0.00  0.00    +0.000 C 
ATOM      3  O   UNL     1       4.280   3.488  17.020  0.00  0.00    +0.000 OA
ATOM      4  N   UNL     1       3.069   4.585  18.639  0.00  0.00    +0.000 N 
ATOM      5  C   UNL     1       2.954   5.349  19.881  0.00  0.00    +0.000 C 
ATOM      6  C   UNL     1       2.190   4.549  20.934  0.00  0.00    +0.000 C 
ATOM      7  C   UNL     1       0.848   4.047  20.387  0.00  0.00    +0.000 C 
ATOM      8  C   UNL     1       0.997   3.314  19.040  0.00  0.00    +0.000 C 
ATOM      9  C   UNL     1       1.635   1.933  19.219  0.00  0.00    +0.000 C 
ATOM     10  C   UNL     1       1.798   4.173  18.050  0.00  0.00    +0.000 C 
ENDBRANCH   1   2
BRANCH   1  11
ATOM     11  C   UNL     1       6.184   5.748  18.202  0.00  0.00    +0.000 C 
BRANCH  11  14
ATOM     12  C   UNL     1       6.995   5.223  15.950  0.00  0.00    +0.000 C 
ATOM     13  O   UNL     1       7.923   4.523  16.324  0.00  0.00    +0.000 OA
ATOM     14  N   UNL     1       6.057   5.787  16.761  0.00  0.00    +0.000 N 
ATOM     15  H   UNL     1       5.482   6.494  16.323  0.00  0.00    +0.000 HD
BRANCH  12  16
ATOM     16  O   UNL     1       6.771   5.624  14.678  0.00  0.00    +0.000 OA
BRANCH  16  18
ATOM     17  C   UNL     1       5.786   3.787  13.516  0.00  0.00    +0.000 C 
ATOM     18  C   UNL     1       7.038   4.628  13.681  0.00  0.00    +0.000 C 
ENDBRANCH  16  18
ENDBRANCH  12  16
ENDBRANCH  11  14
ENDBRANCH   1  11
TORSDOF 5
ENDMDL
MODEL 7
REMARK VINA RESULT:      -6.6      1.888      2.987
REMARK  Name = 
REMARK  7 active torsions:
REMARK  status: ('A' for Active; 'I' for Inactive)
REMARK    1  A    between atoms: C_1  and  C_2
REMARK    2  A    between atoms: C_2  and  O_3
REMARK    3  A    between atoms: O_3  and  C_4
REMARK    4  A    between atoms: N_6  and  C_7
REMARK    5  A    between atoms: C_7  and  C_8
REMARK    6  A    between atoms: C_8  and  C_9
REMARK    7  A    between atoms: C_15  and  C_16
REMARK                            x       y       z     vdW  Elec       q    Type
REMARK                         _______ _______ _______ _____ _____    ______ ____
ROOT
ATOM      1  C   UNL     1       4.902   3.679  17.765  0.00  0.00    +0.000 C 
ENDROOT
BRANCH   1   2
ATOM      2  C   UNL     1       3.600   2.955  18.013  0.00  0.00    +0.000 C 
ATOM      3  O   UNL     1       3.519   1.728  17.888  0.00  0.00    +0.000 OA
ATOM      4  N   UNL     1       2.520   3.735  18.406  0.00  0.00    +0.000 N 
ATOM      5  C   UNL     1       2.541   5.184  18.601  0.00  0.00    +0.000 C 
ATOM      6  C   UNL     1       2.245   5.534  20.058  0.00  0.00    +0.000 C 
ATOM      7  C   UNL     1       0.956   4.861  20.542  0.00  0.00    +0.000 C 
ATOM      8  C   UNL     1       0.934   3.349  20.252  0.00  0.00    +0.000 C 
ATOM      9  C   UNL     1       1.884   2.585  21.180  0.00  0.00    +0.000 C 
ATOM     10  C   UNL     1       1.267   3.083  18.775  0.00  0.00    +0.000 C 
ENDBRANCH   1   2
BRANCH   1  11
ATOM     11  C   UNL     1       5.123   3.944  16.283  0.00  0.00    +0.000 C 
BRANCH  11  14
ATOM     12  C   UNL     1       7.167   5.295  16.295  0.00  0.00    +0.000 C 
ATOM     13  O   UNL     1       7.915   4.367  16.561  0.00  0.00    +0.000 OA
ATOM     14  N   UNL     1       5.830   5.187  16.061  0.00  0.00    +0.000 N 
ATOM     15  H   UNL     1       5.324   6.063  16.056  0.00  0.00    +0.000 HD
BRANCH  12  16
ATOM     16  O   UNL     1       7.514   6.603  16.258  0.00  0.00    +0.000 OA
BRANCH  16  18
ATOM     17  C   UNL     1       8.161   7.472  18.384  0.00  0.00    +0.000 C 
ATOM     18  C   UNL     1       7.039   7.380  17.366  0.00  0.00    +0.000 C 
ENDBRANCH  16  18
ENDBRANCH  12  16
ENDBRANCH  11  14
ENDBRANCH   1  11
TORSDOF 5
ENDMDL
MODEL 8
REMARK VINA RESULT:      -6.6      2.628      6.082
REMARK  Name = 
REMARK  7 active torsions:
REMARK  status: ('A' for Active; 'I' for Inactive)
REMARK    1  A    between atoms: C_1  and  C_2
REMARK    2  A    between atoms: C_2  and  O_3
REMARK    3  A    between atoms: O_3  and  C_4
REMARK    4  A    between atoms: N_6  and  C_7
REMARK    5  A    between atoms: C_7  and  C_8
REMARK    6  A    between atoms: C_8  and  C_9
REMARK    7  A    between atoms: C_15  and  C_16
REMARK                            x       y       z     vdW  Elec       q    Type
REMARK                         _______ _______ _______ _____ _____    ______ ____
ROOT
ATOM      1  C   UNL     1       3.688   2.856  17.572  0.00  0.00    +0.000 C 
ENDROOT
BRANCH   1   2
ATOM      2  C   UNL     1       4.577   3.541  18.583  0.00  0.00    +0.000 C 
ATOM      3  O   UNL     1       5.008   2.934  19.569  0.00  0.00    +0.000 OA
ATOM      4  N   UNL     1       4.897   4.869  18.330  0.00  0.00    +0.000 N 
ATOM      5  C   UNL     1       4.450   5.649  17.176  0.00  0.00    +0.000 C 
ATOM      6  C   UNL     1       5.643   6.077  16.324  0.00  0.00    +0.000 C 
ATOM      7  C   UNL     1       6.711   6.778  17.171  0.00  0.00    +0.000 C 
ATOM      8  C   UNL     1       7.103   5.964  18.419  0.00  0.00    +0.000 C 
ATOM      9  C   UNL     1       7.952   4.743  18.050  0.00  0.00    +0.000 C 
ATOM     10  C   UNL     1       5.847   5.552  19.203  0.00  0.00    +0.000 C 
ENDBRANCH   1   2
BRANCH   1  11
ATOM     11  C   UNL     1       2.925   1.695  18.193  0.00  0.00    +0.000 C 
BRANCH  11  14
ATOM     12  C   UNL     1       1.036   2.503  19.531  0.00  0.00    +0.000 C 
ATOM     13  O   UNL     1       0.233   2.492  18.611  0.00  0.00    +0.000 OA
ATOM     14  N   UNL     1       2.324   2.065  19.458  0.00  0.00    +0.000 N 
ATOM     15  H   UNL     1       2.910   2.326  20.239  0.00  0.00    +0.000 HD
BRANCH  12  16
ATOM     16  O   UNL     1       0.819   3.017  20.763  0.00  0.00    +0.000 OA
BRANCH  16  18
ATOM     17  C   UNL     1       1.863   5.162  20.715  0.00  0.00    +0.000 C 
ATOM     18  C   UNL     1       1.917   3.764  21.303  0.00  0.00    +0.000 C 
ENDBRANCH  16  18
ENDBRANCH  12  16
ENDBRANCH  11  14
ENDBRANCH   1  11
TORSDOF 5
ENDMDL
MODEL 9
REMARK VINA RESULT:      -6.6      2.031      3.070
REMARK  Name = 
REMARK  7 active torsions:
REMARK  status: ('A' for Active; 'I' for Inactive)
REMARK    1  A    between atoms: C_1  and  C_2
REMARK    2  A    between atoms: C_2  and  O_3
REMARK    3  A    between atoms: O_3  and  C_4
REMARK    4  A    between atoms: N_6  and  C_7
REMARK    5  A    between atoms: C_7  and  C_8
REMARK    6  A    between atoms: C_8  and  C_9
REMARK    7  A    between atoms: C_15  and  C_16
REMARK                            x       y       z     vdW  Elec       q    Type
REMARK                         _______ _______ _______ _____ _____    ______ ____
ROOT
ATOM      1  C   UNL     1       4.320   4.764  17.143  0.00  0.00    +0.000 C 
ENDROOT
BRANCH   1   2
ATOM      2  C   UNL     1       4.199   4.537  18.631  0.00  0.00    +0.000 C 
ATOM      3  O   UNL     1       4.760   5.286  19.439  0.00  0.00    +0.000 OA
ATOM      4  N   UNL     1       3.411   3.466  19.035  0.00  0.00    +0.000 N 
ATOM      5  C   UNL     1       2.695   2.552  18.145  0.00  0.00    +0.000 C 
ATOM      6  C   UNL     1       1.188   2.656  18.369  0.00  0.00    +0.000 C 
ATOM      7  C   UNL     1       0.832   2.488  19.850  0.00  0.00    +0.000 C 
ATOM      8  C   UNL     1       1.658   3.411  20.765  0.00  0.00    +0.000 C 
ATOM      9  C   UNL     1       1.208   4.870  20.647  0.00  0.00    +0.000 C 
ATOM     10  C   UNL     1       3.157   3.265  20.458  0.00  0.00    +0.000 C 
ENDBRANCH   1   2
BRANCH   1  11
ATOM     11  C   UNL     1       5.763   4.644  16.674  0.00  0.00    +0.000 C 
BRANCH  11  14
ATOM     12  C   UNL     1       7.600   5.590  17.992  0.00  0.00    +0.000 C 
ATOM     13  O   UNL     1       8.043   4.513  18.358  0.00  0.00    +0.000 OA
ATOM     14  N   UNL     1       6.566   5.762  17.122  0.00  0.00    +0.000 N 
ATOM     15  H   UNL     1       6.194   6.701  17.079  0.00  0.00    +0.000 HD
BRANCH  12  16
ATOM     16  O   UNL     1       8.004   6.803  18.436  0.00  0.00    +0.000 OA
BRANCH  16  18
ATOM     17  C   UNL     1       8.362   9.138  18.101  0.00  0.00    +0.000 C 
ATOM     18  C   UNL     1       7.655   7.900  17.582  0.00  0.00    +0.000 C 
ENDBRANCH  16  18
ENDBRANCH  12  16
ENDBRANCH  11  14
ENDBRANCH   1  11
TORSDOF 5
ENDMDL
