MODEL 1
REMARK VINA RESULT:      -9.6      0.000      0.000
REMARK  Name = 
REMARK  5 active torsions:
REMARK  status: ('A' for Active; 'I' for Inactive)
REMARK    1  A    between atoms: C_1  and  C_2
REMARK    2  A    between atoms: C_6  and  N_7
REMARK    3  A    between atoms: C_13  and  C_14
REMARK    4  A    between atoms: C_14  and  N_15
REMARK    5  A    between atoms: N_18  and  C_19
REMARK                            x       y       z     vdW  Elec       q    Type
REMARK                         _______ _______ _______ _____ _____    ______ ____
ROOT
ATOM      1  N   UNL     1       8.490   9.306  17.807  0.00  0.00    +0.000 N 
ATOM      2  C   UNL     1       8.183   7.940  17.939  0.00  0.00    +0.000 A 
ATOM      3  N   UNL     1       8.430   7.314  19.080  0.00  0.00    +0.000 NA
ATOM      4  C   UNL     1       8.133   6.028  19.132  0.00  0.00    +0.000 A 
ATOM      5  N   UNL     1       8.360   5.392  20.337  0.00  0.00    +0.000 N 
ATOM      6  N   UNL     1       7.586   5.331  18.152  0.00  0.00    +0.000 NA
ATOM      7  C   UNL     1       7.363   6.012  17.024  0.00  0.00    +0.000 A 
ATOM      8  N   UNL     1       7.630   7.325  16.875  0.00  0.00    +0.000 NA
ATOM      9  H   UNL     1       8.207   9.642  16.897  0.00  0.00    +0.000 HD
ATOM     10  H   UNL     1       8.385   6.076  21.082  0.00  0.00    +0.000 HD
ATOM     11  H   UNL     1       7.727   4.611  20.446  0.00  0.00    +0.000 HD
ENDROOT
BRANCH   1  17
ATOM     12  C   UNL     1      11.908  12.903  18.183  0.00  0.00    +0.000 C 
ATOM     13  C   UNL     1      10.868  12.024  18.817  0.00  0.00    +0.000 A 
ATOM     14  C   UNL     1      10.631  12.107  20.191  0.00  0.00    +0.000 A 
ATOM     15  C   UNL     1       9.674  11.282  20.777  0.00  0.00    +0.000 A 
ATOM     16  C   UNL     1       8.963  10.362  20.001  0.00  0.00    +0.000 A 
ATOM     17  C   UNL     1       9.179  10.224  18.621  0.00  0.00    +0.000 A 
ATOM     18  C   UNL     1      10.140  11.090  18.048  0.00  0.00    +0.000 A 
ENDBRANCH   1  17
BRANCH   7  19
ATOM     19  C   UNL     1       6.763   5.219  15.839  0.00  0.00    +0.000 C 
BRANCH  19  20
ATOM     20  N   UNL     1       5.343   5.498  15.510  0.00  0.00    +0.000 NA
ATOM     21  C   UNL     1       4.495   4.281  15.414  0.00  0.00    +0.000 C 
ATOM     22  C   UNL     1       4.026   3.584  16.738  0.00  0.00    +0.000 C 
ATOM     23  N   UNL     1       3.614   4.561  17.774  0.00  0.00    +0.000 N 
ATOM     24  C   UNL     1       4.451   5.775  17.859  0.00  0.00    +0.000 C 
ATOM     25  C   UNL     1       4.702   6.396  16.479  0.00  0.00    +0.000 C 
BRANCH  23  26
ATOM     26  C   UNL     1       2.756   4.276  18.838  0.00  0.00    +0.000 A 
ATOM     27  C   UNL     1       2.828   4.919  20.085  0.00  0.00    +0.000 A 
ATOM     28  C   UNL     1       2.105   4.449  21.201  0.00  0.00    +0.000 A 
ATOM     29  C   UNL     1       1.276   3.337  21.097  0.00  0.00    +0.000 A 
ATOM     30  C   UNL     1       1.111   2.740  19.862  0.00  0.00    +0.000 A 
ATOM     31  C   UNL     1       1.813   3.231  18.757  0.00  0.00    +0.000 A 
ENDBRANCH  23  26
ENDBRANCH  19  20
ENDBRANCH   7  19
TORSDOF 4
ENDMDL
MODEL 2
REMARK VINA RESULT:      -9.1      0.421      1.354
REMARK  Name = 
REMARK  5 active torsions:
REMARK  status: ('A' for Active; 'I' for Inactive)
REMARK    1  A    between atoms: C_1  and  C_2
REMARK    2  A    between atoms: C_6  and  N_7
REMARK    3  A    between atoms: C_13  and  C_14
REMARK    4  A    between atoms: C_14  and  N_15
REMARK    5  A    between atoms: N_18  and  C_19
REMARK                            x       y       z     vdW  Elec       q    Type
REMARK                         _______ _______ _______ _____ _____    ______ ____
ROOT
ATOM      1  N   UNL     1       8.518   9.417  17.927  0.00  0.00    +0.000 N 
ATOM      2  C   UNL     1       8.199   8.050  18.008  0.00  0.00    +0.000 A 
ATOM      3  N   UNL     1       8.437   7.380  19.126  0.00  0.00    +0.000 NA
ATOM      4  C   UNL     1       8.128   6.097  19.130  0.00  0.00    +0.000 A 
ATOM      5  N   UNL     1       8.347   5.414  20.312  0.00  0.00    +0.000 N 
ATOM      6  N   UNL     1       7.577   5.441  18.124  0.00  0.00    +0.000 NA
ATOM      7  C   UNL     1       7.363   6.165  17.022  0.00  0.00    +0.000 A 
ATOM      8  N   UNL     1       7.642   7.480  16.921  0.00  0.00    +0.000 NA
ATOM      9  H   UNL     1       8.240   9.789  17.030  0.00  0.00    +0.000 HD
ATOM     10  H   UNL     1       8.377   6.071  21.081  0.00  0.00    +0.000 HD
ATOM     11  H   UNL     1       7.706   4.636  20.390  0.00  0.00    +0.000 HD
ENDROOT
BRANCH   1  17
ATOM     12  C   UNL     1       8.739  11.821  22.279  0.00  0.00    +0.000 C 
ATOM     13  C   UNL     1       9.340  11.489  20.943  0.00  0.00    +0.000 A 
ATOM     14  C   UNL     1      10.545  12.082  20.556  0.00  0.00    +0.000 A 
ATOM     15  C   UNL     1      11.092  11.781  19.311  0.00  0.00    +0.000 A 
ATOM     16  C   UNL     1      10.436  10.904  18.443  0.00  0.00    +0.000 A 
ATOM     17  C   UNL     1       9.213  10.299  18.776  0.00  0.00    +0.000 A 
ATOM     18  C   UNL     1       8.690  10.605  20.054  0.00  0.00    +0.000 A 
ENDBRANCH   1  17
BRANCH   7  19
ATOM     19  C   UNL     1       6.759   5.421  15.807  0.00  0.00    +0.000 C 
BRANCH  19  20
ATOM     20  N   UNL     1       5.337   5.713  15.496  0.00  0.00    +0.000 NA
ATOM     21  C   UNL     1       4.489   4.500  15.353  0.00  0.00    +0.000 C 
ATOM     22  C   UNL     1       4.025   3.749  16.649  0.00  0.00    +0.000 C 
ATOM     23  N   UNL     1       3.618   4.683  17.726  0.00  0.00    +0.000 N 
ATOM     24  C   UNL     1       4.455   5.892  17.858  0.00  0.00    +0.000 C 
ATOM     25  C   UNL     1       4.700   6.570  16.503  0.00  0.00    +0.000 C 
BRANCH  23  26
ATOM     26  C   UNL     1       2.764   4.354  18.781  0.00  0.00    +0.000 A 
ATOM     27  C   UNL     1       2.795   4.993  20.031  0.00  0.00    +0.000 A 
ATOM     28  C   UNL     1       2.085   4.485  21.139  0.00  0.00    +0.000 A 
ATOM     29  C   UNL     1       1.308   3.337  21.022  0.00  0.00    +0.000 A 
ATOM     30  C   UNL     1       1.181   2.740  19.783  0.00  0.00    +0.000 A 
ATOM     31  C   UNL     1       1.870   3.268  18.687  0.00  0.00    +0.000 A 
ENDBRANCH  23  26
ENDBRANCH  19  20
ENDBRANCH   7  19
TORSDOF 4
ENDMDL
MODEL 3
REMARK VINA RESULT:      -8.9      5.102      7.258
REMARK  Name = 
REMARK  5 active torsions:
REMARK  status: ('A' for Active; 'I' for Inactive)
REMARK    1  A    between atoms: C_1  and  C_2
REMARK    2  A    between atoms: C_6  and  N_7
REMARK    3  A    between atoms: C_13  and  C_14
REMARK    4  A    between atoms: C_14  and  N_15
REMARK    5  A    between atoms: N_18  and  C_19
REMARK                            x       y       z     vdW  Elec       q    Type
REMARK                         _______ _______ _______ _____ _____    ______ ____
ROOT
ATOM      1  N   UNL     1       1.518  10.739  17.913  0.00  0.00    +0.000 N 
ATOM      2  C   UNL     1       1.695   9.553  18.647  0.00  0.00    +0.000 A 
ATOM      3  N   UNL     1       1.377   9.517  19.933  0.00  0.00    +0.000 NA
ATOM      4  C   UNL     1       1.582   8.377  20.566  0.00  0.00    +0.000 A 
ATOM      5  N   UNL     1       1.214   8.337  21.898  0.00  0.00    +0.000 N 
ATOM      6  N   UNL     1       2.048   7.270  20.015  0.00  0.00    +0.000 NA
ATOM      7  C   UNL     1       2.355   7.365  18.718  0.00  0.00    +0.000 A 
ATOM      8  N   UNL     1       2.180   8.484  17.986  0.00  0.00    +0.000 NA
ATOM      9  H   UNL     1       1.768  10.593  16.945  0.00  0.00    +0.000 HD
ATOM     10  H   UNL     1       0.532   9.061  22.082  0.00  0.00    +0.000 HD
ATOM     11  H   UNL     1       0.973   7.393  22.166  0.00  0.00    +0.000 HD
ENDROOT
BRANCH   1  17
ATOM     12  C   UNL     1       2.980  15.434  18.682  0.00  0.00    +0.000 C 
ATOM     13  C   UNL     1       1.893  14.398  18.646  0.00  0.00    +0.000 A 
ATOM     14  C   UNL     1       0.588  14.748  19.002  0.00  0.00    +0.000 A 
ATOM     15  C   UNL     1      -0.415  13.781  18.979  0.00  0.00    +0.000 A 
ATOM     16  C   UNL     1      -0.120  12.464  18.619  0.00  0.00    +0.000 A 
ATOM     17  C   UNL     1       1.179  12.057  18.274  0.00  0.00    +0.000 A 
ATOM     18  C   UNL     1       2.174  13.062  18.284  0.00  0.00    +0.000 A 
ENDBRANCH   1  17
BRANCH   7  19
ATOM     19  C   UNL     1       2.945   6.102  18.047  0.00  0.00    +0.000 C 
BRANCH  19  20
ATOM     20  N   UNL     1       4.400   5.875  18.233  0.00  0.00    +0.000 NA
ATOM     21  C   UNL     1       4.822   4.465  18.029  0.00  0.00    +0.000 C 
ATOM     22  C   UNL     1       4.951   3.922  16.563  0.00  0.00    +0.000 C 
ATOM     23  N   UNL     1       5.576   4.908  15.650  0.00  0.00    +0.000 N 
ATOM     24  C   UNL     1       5.164   6.310  15.863  0.00  0.00    +0.000 C 
ATOM     25  C   UNL     1       5.222   6.705  17.344  0.00  0.00    +0.000 C 
BRANCH  23  26
ATOM     26  C   UNL     1       6.222   4.585  14.454  0.00  0.00    +0.000 A 
ATOM     27  C   UNL     1       7.371   5.246  13.991  0.00  0.00    +0.000 A 
ATOM     28  C   UNL     1       7.857   5.053  12.681  0.00  0.00    +0.000 A 
ATOM     29  C   UNL     1       7.220   4.178  11.806  0.00  0.00    +0.000 A 
ATOM     30  C   UNL     1       6.144   3.442  12.263  0.00  0.00    +0.000 A 
ATOM     31  C   UNL     1       5.687   3.624  13.572  0.00  0.00    +0.000 A 
ENDBRANCH  23  26
ENDBRANCH  19  20
ENDBRANCH   7  19
TORSDOF 4
ENDMDL
MODEL 4
REMARK VINA RESULT:      -8.7      4.162      7.790
REMARK  Name = 
REMARK  5 active torsions:
REMARK  status: ('A' for Active; 'I' for Inactive)
REMARK    1  A    between atoms: C_1  and  C_2
REMARK    2  A    between atoms: C_6  and  N_7
REMARK    3  A    between atoms: C_13  and  C_14
REMARK    4  A    between atoms: C_14  and  N_15
REMARK    5  A    between atoms: N_18  and  C_19
REMARK                            x       y       z     vdW  Elec       q    Type
REMARK                         _______ _______ _______ _____ _____    ______ ____
ROOT
ATOM      1  N   UNL     1       2.128   8.115  20.335  0.00  0.00    +0.000 N 
ATOM      2  C   UNL     1       2.360   6.734  20.203  0.00  0.00    +0.000 A 
ATOM      3  N   UNL     1       1.411   5.870  20.530  0.00  0.00    +0.000 NA
ATOM      4  C   UNL     1       1.699   4.588  20.396  0.00  0.00    +0.000 A 
ATOM      5  N   UNL     1       0.691   3.695  20.706  0.00  0.00    +0.000 N 
ATOM      6  N   UNL     1       2.841   4.106  19.938  0.00  0.00    +0.000 NA
ATOM      7  C   UNL     1       3.762   5.023  19.627  0.00  0.00    +0.000 A 
ATOM      8  N   UNL     1       3.562   6.352  19.727  0.00  0.00    +0.000 NA
ATOM      9  H   UNL     1       2.930   8.637  20.010  0.00  0.00    +0.000 HD
ATOM     10  H   UNL     1      -0.205   4.162  20.647  0.00  0.00    +0.000 HD
ATOM     11  H   UNL     1       0.805   2.842  20.176  0.00  0.00    +0.000 HD
ENDROOT
BRANCH   1  17
ATOM     12  C   UNL     1      -1.477  11.494  19.742  0.00  0.00    +0.000 C 
ATOM     13  C   UNL     1      -0.718  10.540  20.620  0.00  0.00    +0.000 A 
ATOM     14  C   UNL     1      -1.032  10.445  21.978  0.00  0.00    +0.000 A 
ATOM     15  C   UNL     1      -0.318   9.568  22.791  0.00  0.00    +0.000 A 
ATOM     16  C   UNL     1       0.718   8.796  22.260  0.00  0.00    +0.000 A 
ATOM     17  C   UNL     1       1.087   8.869  20.907  0.00  0.00    +0.000 A 
ATOM     18  C   UNL     1       0.332   9.751  20.099  0.00  0.00    +0.000 A 
ENDBRANCH   1  17
BRANCH   7  19
ATOM     19  C   UNL     1       5.128   4.495  19.128  0.00  0.00    +0.000 C 
BRANCH  19  20
ATOM     20  N   UNL     1       6.030   5.493  18.499  0.00  0.00    +0.000 NA
ATOM     21  C   UNL     1       7.295   4.916  17.972  0.00  0.00    +0.000 C 
ATOM     22  C   UNL     1       7.257   4.132  16.615  0.00  0.00    +0.000 C 
ATOM     23  N   UNL     1       6.395   4.794  15.606  0.00  0.00    +0.000 N 
ATOM     24  C   UNL     1       5.145   5.376  16.134  0.00  0.00    +0.000 C 
ATOM     25  C   UNL     1       5.392   6.217  17.393  0.00  0.00    +0.000 C 
BRANCH  23  26
ATOM     26  C   UNL     1       6.508   4.614  14.226  0.00  0.00    +0.000 A 
ATOM     27  C   UNL     1       5.763   3.666  13.505  0.00  0.00    +0.000 A 
ATOM     28  C   UNL     1       6.066   3.353  12.163  0.00  0.00    +0.000 A 
ATOM     29  C   UNL     1       7.107   3.995  11.499  0.00  0.00    +0.000 A 
ATOM     30  C   UNL     1       7.797   4.999  12.151  0.00  0.00    +0.000 A 
ATOM     31  C   UNL     1       7.470   5.317  13.473  0.00  0.00    +0.000 A 
ENDBRANCH  23  26
ENDBRANCH  19  20
ENDBRANCH   7  19
TORSDOF 4
ENDMDL
MODEL 5
REMARK VINA RESULT:      -8.6      5.205      7.487
REMARK  Name = 
REMARK  5 active torsions:
REMARK  status: ('A' for Active; 'I' for Inactive)
REMARK    1  A    between atoms: C_1  and  C_2
REMARK    2  A    between atoms: C_6  and  N_7
REMARK    3  A    between atoms: C_13  and  C_14
REMARK    4  A    between atoms: C_14  and  N_15
REMARK    5  A    between atoms: N_18  and  C_19
REMARK                            x       y       z     vdW  Elec       q    Type
REMARK                         _______ _______ _______ _____ _____    ______ ____
ROOT
ATOM      1  N   UNL     1       1.640  10.746  18.006  0.00  0.00    +0.000 N 
ATOM      2  C   UNL     1       1.767   9.535  18.710  0.00  0.00    +0.000 A 
ATOM      3  N   UNL     1       1.445   9.478  19.994  0.00  0.00    +0.000 NA
ATOM      4  C   UNL     1       1.602   8.315  20.598  0.00  0.00    +0.000 A 
ATOM      5  N   UNL     1       1.230   8.257  21.928  0.00  0.00    +0.000 N 
ATOM      6  N   UNL     1       2.025   7.205  20.019  0.00  0.00    +0.000 NA
ATOM      7  C   UNL     1       2.339   7.321  18.726  0.00  0.00    +0.000 A 
ATOM      8  N   UNL     1       2.210   8.464  18.022  0.00  0.00    +0.000 NA
ATOM      9  H   UNL     1       1.885  10.614  17.035  0.00  0.00    +0.000 HD
ATOM     10  H   UNL     1       0.577   9.003  22.130  0.00  0.00    +0.000 HD
ATOM     11  H   UNL     1       0.950   7.316  22.172  0.00  0.00    +0.000 HD
ENDROOT
BRANCH   1  17
ATOM     12  C   UNL     1      -1.548  13.949  20.090  0.00  0.00    +0.000 C 
ATOM     13  C   UNL     1      -0.220  13.666  19.447  0.00  0.00    +0.000 A 
ATOM     14  C   UNL     1       0.679  14.711  19.221  0.00  0.00    +0.000 A 
ATOM     15  C   UNL     1       1.904  14.445  18.614  0.00  0.00    +0.000 A 
ATOM     16  C   UNL     1       2.230  13.146  18.215  0.00  0.00    +0.000 A 
ATOM     17  C   UNL     1       1.353  12.066  18.400  0.00  0.00    +0.000 A 
ATOM     18  C   UNL     1       0.125  12.358  19.039  0.00  0.00    +0.000 A 
ENDBRANCH   1  17
BRANCH   7  19
ATOM     19  C   UNL     1       2.879   6.053  18.023  0.00  0.00    +0.000 C 
BRANCH  19  20
ATOM     20  N   UNL     1       4.313   5.738  18.242  0.00  0.00    +0.000 NA
ATOM     21  C   UNL     1       4.667   4.320  17.974  0.00  0.00    +0.000 C 
ATOM     22  C   UNL     1       4.818   3.850  16.485  0.00  0.00    +0.000 C 
ATOM     23  N   UNL     1       5.525   4.849  15.648  0.00  0.00    +0.000 N 
ATOM     24  C   UNL     1       5.179   6.257  15.925  0.00  0.00    +0.000 C 
ATOM     25  C   UNL     1       5.207   6.569  17.427  0.00  0.00    +0.000 C 
BRANCH  23  26
ATOM     26  C   UNL     1       6.193   4.555  14.457  0.00  0.00    +0.000 A 
ATOM     27  C   UNL     1       7.346   5.233  14.028  0.00  0.00    +0.000 A 
ATOM     28  C   UNL     1       7.856   5.071  12.724  0.00  0.00    +0.000 A 
ATOM     29  C   UNL     1       7.240   4.212  11.819  0.00  0.00    +0.000 A 
ATOM     30  C   UNL     1       6.160   3.460  12.240  0.00  0.00    +0.000 A 
ATOM     31  C   UNL     1       5.680   3.611  13.544  0.00  0.00    +0.000 A 
ENDBRANCH  23  26
ENDBRANCH  19  20
ENDBRANCH   7  19
TORSDOF 4
ENDMDL
MODEL 6
REMARK VINA RESULT:      -8.5      6.500      9.187
REMARK  Name = 
REMARK  5 active torsions:
REMARK  status: ('A' for Active; 'I' for Inactive)
REMARK    1  A    between atoms: C_1  and  C_2
REMARK    2  A    between atoms: C_6  and  N_7
REMARK    3  A    between atoms: C_13  and  C_14
REMARK    4  A    between atoms: C_14  and  N_15
REMARK    5  A    between atoms: N_18  and  C_19
REMARK                            x       y       z     vdW  Elec       q    Type
REMARK                         _______ _______ _______ _____ _____    ______ ____
ROOT
ATOM      1  N   UNL     1       4.309   7.500  16.876  0.00  0.00    +0.000 N 
ATOM      2  C   UNL     1       3.296   7.723  17.826  0.00  0.00    +0.000 A 
ATOM      3  N   UNL     1       3.195   6.931  18.884  0.00  0.00    +0.000 NA
ATOM      4  C   UNL     1       2.213   7.186  19.728  0.00  0.00    +0.000 A 
ATOM      5  N   UNL     1       2.136   6.378  20.846  0.00  0.00    +0.000 N 
ATOM      6  N   UNL     1       1.349   8.180  19.617  0.00  0.00    +0.000 NA
ATOM      7  C   UNL     1       1.496   8.944  18.531  0.00  0.00    +0.000 A 
ATOM      8  N   UNL     1       2.468   8.764  17.613  0.00  0.00    +0.000 NA
ATOM      9  H   UNL     1       4.276   8.209  16.157  0.00  0.00    +0.000 HD
ATOM     10  H   UNL     1       3.038   5.952  21.018  0.00  0.00    +0.000 HD
ATOM     11  H   UNL     1       1.706   6.879  21.612  0.00  0.00    +0.000 HD
ENDROOT
BRANCH   1  17
ATOM     12  C   UNL     1       6.127   3.911  13.948  0.00  0.00    +0.000 C 
ATOM     13  C   UNL     1       6.167   4.687  15.233  0.00  0.00    +0.000 A 
ATOM     14  C   UNL     1       7.096   4.350  16.220  0.00  0.00    +0.000 A 
ATOM     15  C   UNL     1       7.121   5.065  17.415  0.00  0.00    +0.000 A 
ATOM     16  C   UNL     1       6.212   6.104  17.638  0.00  0.00    +0.000 A 
ATOM     17  C   UNL     1       5.245   6.467  16.687  0.00  0.00    +0.000 A 
ATOM     18  C   UNL     1       5.256   5.740  15.474  0.00  0.00    +0.000 A 
ENDBRANCH   1  17
BRANCH   7  19
ATOM     19  C   UNL     1       0.476  10.092  18.343  0.00  0.00    +0.000 C 
BRANCH  19  20
ATOM     20  N   UNL     1       0.146  10.885  19.554  0.00  0.00    +0.000 NA
ATOM     21  C   UNL     1       1.302  11.623  20.126  0.00  0.00    +0.000 C 
ATOM     22  C   UNL     1       1.777  12.942  19.423  0.00  0.00    +0.000 C 
ATOM     23  N   UNL     1       0.640  13.787  18.986  0.00  0.00    +0.000 N 
ATOM     24  C   UNL     1      -0.512  13.051  18.429  0.00  0.00    +0.000 C 
ATOM     25  C   UNL     1      -0.919  11.867  19.316  0.00  0.00    +0.000 C 
BRANCH  23  26
ATOM     26  C   UNL     1       0.715  15.163  18.759  0.00  0.00    +0.000 A 
ATOM     27  C   UNL     1      -0.412  15.989  18.618  0.00  0.00    +0.000 A 
ATOM     28  C   UNL     1      -0.303  17.319  18.163  0.00  0.00    +0.000 A 
ATOM     29  C   UNL     1       0.939  17.867  17.855  0.00  0.00    +0.000 A 
ATOM     30  C   UNL     1       2.075  17.112  18.073  0.00  0.00    +0.000 A 
ATOM     31  C   UNL     1       1.955  15.803  18.549  0.00  0.00    +0.000 A 
ENDBRANCH  23  26
ENDBRANCH  19  20
ENDBRANCH   7  19
TORSDOF 4
ENDMDL
MODEL 7
REMARK VINA RESULT:      -8.5      5.825      8.447
REMARK  Name = 
REMARK  5 active torsions:
REMARK  status: ('A' for Active; 'I' for Inactive)
REMARK    1  A    between atoms: C_1  and  C_2
REMARK    2  A    between atoms: C_6  and  N_7
REMARK    3  A    between atoms: C_13  and  C_14
REMARK    4  A    between atoms: C_14  and  N_15
REMARK    5  A    between atoms: N_18  and  C_19
REMARK                            x       y       z     vdW  Elec       q    Type
REMARK                         _______ _______ _______ _____ _____    ______ ____
ROOT
ATOM      1  N   UNL     1       4.426   6.456  18.245  0.00  0.00    +0.000 N 
ATOM      2  C   UNL     1       3.460   6.111  19.207  0.00  0.00    +0.000 A 
ATOM      3  N   UNL     1       3.407   4.873  19.676  0.00  0.00    +0.000 NA
ATOM      4  C   UNL     1       2.467   4.612  20.566  0.00  0.00    +0.000 A 
ATOM      5  N   UNL     1       2.442   3.328  21.076  0.00  0.00    +0.000 N 
ATOM      6  N   UNL     1       1.602   5.490  21.043  0.00  0.00    +0.000 NA
ATOM      7  C   UNL     1       1.700   6.721  20.532  0.00  0.00    +0.000 A 
ATOM      8  N   UNL     1       2.626   7.084  19.622  0.00  0.00    +0.000 NA
ATOM      9  H   UNL     1       4.361   7.439  18.021  0.00  0.00    +0.000 HD
ATOM     10  H   UNL     1       3.349   2.897  20.954  0.00  0.00    +0.000 HD
ATOM     11  H   UNL     1       2.050   3.329  22.008  0.00  0.00    +0.000 HD
ENDROOT
BRANCH   1  17
ATOM     12  C   UNL     1       5.547   4.182  13.963  0.00  0.00    +0.000 C 
ATOM     13  C   UNL     1       5.923   4.584  15.360  0.00  0.00    +0.000 A 
ATOM     14  C   UNL     1       7.150   4.183  15.893  0.00  0.00    +0.000 A 
ATOM     15  C   UNL     1       7.489   4.549  17.194  0.00  0.00    +0.000 A 
ATOM     16  C   UNL     1       6.603   5.298  17.972  0.00  0.00    +0.000 A 
ATOM     17  C   UNL     1       5.349   5.708  17.491  0.00  0.00    +0.000 A 
ATOM     18  C   UNL     1       5.039   5.342  16.160  0.00  0.00    +0.000 A 
ENDBRANCH   1  17
BRANCH   7  19
ATOM     19  C   UNL     1       0.676   7.766  21.034  0.00  0.00    +0.000 C 
BRANCH  19  20
ATOM     20  N   UNL     1       1.232   9.060  21.506  0.00  0.00    +0.000 NA
ATOM     21  C   UNL     1       0.987  10.195  20.579  0.00  0.00    +0.000 C 
ATOM     22  C   UNL     1      -0.439  10.848  20.548  0.00  0.00    +0.000 C 
ATOM     23  N   UNL     1      -1.017  11.002  21.905  0.00  0.00    +0.000 N 
ATOM     24  C   UNL     1      -0.763   9.877  22.826  0.00  0.00    +0.000 C 
ATOM     25  C   UNL     1       0.712   9.455  22.821  0.00  0.00    +0.000 C 
BRANCH  23  26
ATOM     26  C   UNL     1      -2.016  11.919  22.243  0.00  0.00    +0.000 A 
ATOM     27  C   UNL     1      -2.448  12.143  23.560  0.00  0.00    +0.000 A 
ATOM     28  C   UNL     1      -3.606  12.897  23.839  0.00  0.00    +0.000 A 
ATOM     29  C   UNL     1      -4.352  13.466  22.811  0.00  0.00    +0.000 A 
ATOM     30  C   UNL     1      -3.900  13.343  21.511  0.00  0.00    +0.000 A 
ATOM     31  C   UNL     1      -2.736  12.614  21.250  0.00  0.00    +0.000 A 
ENDBRANCH  23  26
ENDBRANCH  19  20
ENDBRANCH   7  19
TORSDOF 4
ENDMDL
MODEL 8
REMARK VINA RESULT:      -8.4      1.795      2.460
REMARK  Name = 
REMARK  5 active torsions:
REMARK  status: ('A' for Active; 'I' for Inactive)
REMARK    1  A    between atoms: C_1  and  C_2
REMARK    2  A    between atoms: C_6  and  N_7
REMARK    3  A    between atoms: C_13  and  C_14
REMARK    4  A    between atoms: C_14  and  N_15
REMARK    5  A    between atoms: N_18  and  C_19
REMARK                            x       y       z     vdW  Elec       q    Type
REMARK                         _______ _______ _______ _____ _____    ______ ____
ROOT
ATOM      1  N   UNL     1       8.046   8.836  17.466  0.00  0.00    +0.000 N 
ATOM      2  C   UNL     1       7.915   7.466  17.751  0.00  0.00    +0.000 A 
ATOM      3  N   UNL     1       8.166   7.017  18.973  0.00  0.00    +0.000 NA
ATOM      4  C   UNL     1       8.039   5.718  19.170  0.00  0.00    +0.000 A 
ATOM      5  N   UNL     1       8.267   5.264  20.455  0.00  0.00    +0.000 N 
ATOM      6  N   UNL     1       7.655   4.842  18.258  0.00  0.00    +0.000 NA
ATOM      7  C   UNL     1       7.419   5.349  17.044  0.00  0.00    +0.000 A 
ATOM      8  N   UNL     1       7.520   6.660  16.746  0.00  0.00    +0.000 NA
ATOM      9  H   UNL     1       7.782   9.021  16.508  0.00  0.00    +0.000 HD
ATOM     10  H   UNL     1       8.152   6.028  21.109  0.00  0.00    +0.000 HD
ATOM     11  H   UNL     1       7.737   4.421  20.627  0.00  0.00    +0.000 HD
ENDROOT
BRANCH   1  17
ATOM     12  C   UNL     1       8.728  13.755  17.794  0.00  0.00    +0.000 C 
ATOM     13  C   UNL     1       8.885  12.377  18.373  0.00  0.00    +0.000 A 
ATOM     14  C   UNL     1       9.553  12.205  19.587  0.00  0.00    +0.000 A 
ATOM     15  C   UNL     1       9.706  10.925  20.114  0.00  0.00    +0.000 A 
ATOM     16  C   UNL     1       9.211   9.813  19.426  0.00  0.00    +0.000 A 
ATOM     17  C   UNL     1       8.552   9.931  18.193  0.00  0.00    +0.000 A 
ATOM     18  C   UNL     1       8.390  11.243  17.691  0.00  0.00    +0.000 A 
ENDBRANCH   1  17
BRANCH   7  19
ATOM     19  C   UNL     1       7.010   4.347  15.938  0.00  0.00    +0.000 C 
BRANCH  19  20
ATOM     20  N   UNL     1       5.553   4.173  15.713  0.00  0.00    +0.000 NA
ATOM     21  C   UNL     1       4.807   3.718  16.915  0.00  0.00    +0.000 C 
ATOM     22  C   UNL     1       4.482   4.762  18.040  0.00  0.00    +0.000 C 
ATOM     23  N   UNL     1       4.057   6.071  17.488  0.00  0.00    +0.000 N 
ATOM     24  C   UNL     1       4.792   6.514  16.287  0.00  0.00    +0.000 C 
ATOM     25  C   UNL     1       4.902   5.400  15.238  0.00  0.00    +0.000 C 
BRANCH  23  26
ATOM     26  C   UNL     1       3.295   7.014  18.180  0.00  0.00    +0.000 A 
ATOM     27  C   UNL     1       2.780   6.799  19.469  0.00  0.00    +0.000 A 
ATOM     28  C   UNL     1       1.830   7.671  20.041  0.00  0.00    +0.000 A 
ATOM     29  C   UNL     1       1.384   8.792  19.348  0.00  0.00    +0.000 A 
ATOM     30  C   UNL     1       1.941   9.083  18.118  0.00  0.00    +0.000 A 
ATOM     31  C   UNL     1       2.901   8.225  17.573  0.00  0.00    +0.000 A 
ENDBRANCH  23  26
ENDBRANCH  19  20
ENDBRANCH   7  19
TORSDOF 4
ENDMDL
MODEL 9
REMARK VINA RESULT:      -8.4      4.095      7.755
REMARK  Name = 
REMARK  5 active torsions:
REMARK  status: ('A' for Active; 'I' for Inactive)
REMARK    1  A    between atoms: C_1  and  C_2
REMARK    2  A    between atoms: C_6  and  N_7
REMARK    3  A    between atoms: C_13  and  C_14
REMARK    4  A    between atoms: C_14  and  N_15
REMARK    5  A    between atoms: N_18  and  C_19
REMARK                            x       y       z     vdW  Elec       q    Type
REMARK                         _______ _______ _______ _____ _____    ______ ____
ROOT
ATOM      1  N   UNL     1       2.156   8.244  19.517  0.00  0.00    +0.000 N 
ATOM      2  C   UNL     1       2.454   6.879  19.684  0.00  0.00    +0.000 A 
ATOM      3  N   UNL     1       1.534   6.055  20.165  0.00  0.00    +0.000 NA
ATOM      4  C   UNL     1       1.883   4.791  20.310  0.00  0.00    +0.000 A 
ATOM      5  N   UNL     1       0.907   3.932  20.778  0.00  0.00    +0.000 N 
ATOM      6  N   UNL     1       3.060   4.282  19.990  0.00  0.00    +0.000 NA
ATOM      7  C   UNL     1       3.949   5.158  19.514  0.00  0.00    +0.000 A 
ATOM      8  N   UNL     1       3.686   6.467  19.327  0.00  0.00    +0.000 NA
ATOM      9  H   UNL     1       2.944   8.726  19.107  0.00  0.00    +0.000 HD
ATOM     10  H   UNL     1      -0.007   4.331  20.602  0.00  0.00    +0.000 HD
ATOM     11  H   UNL     1       1.076   2.994  20.442  0.00  0.00    +0.000 HD
ENDROOT
BRANCH   1  17
ATOM     12  C   UNL     1      -0.706  10.075  23.153  0.00  0.00    +0.000 C 
ATOM     13  C   UNL     1      -0.359   9.974  21.695  0.00  0.00    +0.000 A 
ATOM     14  C   UNL     1      -1.138  10.642  20.748  0.00  0.00    +0.000 A 
ATOM     15  C   UNL     1      -0.819  10.537  19.396  0.00  0.00    +0.000 A 
ATOM     16  C   UNL     1       0.263   9.755  18.983  0.00  0.00    +0.000 A 
ATOM     17  C   UNL     1       1.064   9.047  19.893  0.00  0.00    +0.000 A 
ATOM     18  C   UNL     1       0.732   9.189  21.261  0.00  0.00    +0.000 A 
ENDBRANCH   1  17
BRANCH   7  19
ATOM     19  C   UNL     1       5.353   4.608  19.168  0.00  0.00    +0.000 C 
BRANCH  19  20
ATOM     20  N   UNL     1       6.282   5.549  18.492  0.00  0.00    +0.000 NA
ATOM     21  C   UNL     1       7.490   4.898  17.921  0.00  0.00    +0.000 C 
ATOM     22  C   UNL     1       7.353   4.105  16.575  0.00  0.00    +0.000 C 
ATOM     23  N   UNL     1       6.488   4.804  15.595  0.00  0.00    +0.000 N 
ATOM     24  C   UNL     1       5.295   5.459  16.166  0.00  0.00    +0.000 C 
ATOM     25  C   UNL     1       5.639   6.297  17.405  0.00  0.00    +0.000 C 
BRANCH  23  26
ATOM     26  C   UNL     1       6.533   4.606  14.213  0.00  0.00    +0.000 A 
ATOM     27  C   UNL     1       5.730   3.673  13.538  0.00  0.00    +0.000 A 
ATOM     28  C   UNL     1       5.963   3.337  12.188  0.00  0.00    +0.000 A 
ATOM     29  C   UNL     1       6.992   3.941  11.470  0.00  0.00    +0.000 A 
ATOM     30  C   UNL     1       7.739   4.931  12.078  0.00  0.00    +0.000 A 
ATOM     31  C   UNL     1       7.481   5.273  13.409  0.00  0.00    +0.000 A 
ENDBRANCH  23  26
ENDBRANCH  19  20
ENDBRANCH   7  19
TORSDOF 4
ENDMDL
