MODEL 1
REMARK VINA RESULT:      -8.6      0.000      0.000
REMARK  Name = 
REMARK  4 active torsions:
REMARK  status: ('A' for Active; 'I' for Inactive)
REMARK    1  A    between atoms: C_1  and  O_2
REMARK    2  A    between atoms: O_2  and  C_3
REMARK    3  A    between atoms: C_8  and  O_9
REMARK    4  A    between atoms: O_9  and  C_10
REMARK                            x       y       z     vdW  Elec       q    Type
REMARK                         _______ _______ _______ _____ _____    ______ ____
ROOT
ATOM      1  C   UNL     1      -0.373  10.200  21.112  0.00  0.00    +0.000 A 
ATOM      2  C   UNL     1      -0.189   9.008  21.827  0.00  0.00    +0.000 A 
ATOM      3  C   UNL     1       0.670   8.014  21.362  0.00  0.00    +0.000 A 
ATOM      4  C   UNL     1       1.337   8.168  20.146  0.00  0.00    +0.000 A 
ATOM      5  C   UNL     1       1.097   9.331  19.398  0.00  0.00    +0.000 A 
ATOM      6  C   UNL     1       0.245  10.358  19.859  0.00  0.00    +0.000 A 
ATOM      7  C   UNL     1       1.861   9.510  18.148  0.00  0.00    +0.000 C 
ATOM      8  N   UNL     1       2.665   8.649  17.625  0.00  0.00    +0.000 NA
ATOM      9  C   UNL     1       2.688   7.300  18.191  0.00  0.00    +0.000 C 
ATOM     10  C   UNL     1       2.443   7.235  19.713  0.00  0.00    +0.000 C 
ATOM     11  C   UNL     1       2.253   5.753  20.091  0.00  0.00    +0.000 C 
ATOM     12  C   UNL     1       3.504   4.936  19.754  0.00  0.00    +0.000 C 
ATOM     13  C   UNL     1       3.929   5.117  18.296  0.00  0.00    +0.000 C 
ATOM     14  C   UNL     1       5.212   4.336  17.964  0.00  0.00    +0.000 C 
ATOM     15  C   UNL     1       5.407   4.474  16.470  0.00  0.00    +0.000 C 
ATOM     16  O   UNL     1       6.517   3.817  15.881  0.00  0.00    +0.000 OA
ATOM     17  C   UNL     1       6.566   4.476  14.599  0.00  0.00    +0.000 C 
ATOM     18  O   UNL     1       6.015   5.806  14.716  0.00  0.00    +0.000 OA
ATOM     19  C   UNL     1       5.676   5.910  16.097  0.00  0.00    +0.000 C 
ATOM     20  C   UNL     1       4.468   6.780  16.402  0.00  0.00    +0.000 C 
ATOM     21  C   UNL     1       4.040   6.616  17.882  0.00  0.00    +0.000 C 
ENDROOT
BRANCH   1  23
ATOM     22  C   UNL     1      -1.231  11.260  23.044  0.00  0.00    +0.000 C 
ATOM     23  O   UNL     1      -1.146  11.212  21.620  0.00  0.00    +0.000 OA
ENDBRANCH   1  23
BRANCH   6  24
ATOM     24  O   UNL     1       0.186  11.460  19.045  0.00  0.00    +0.000 OA
ATOM     25  C   UNL     1      -1.016  11.760  18.355  0.00  0.00    +0.000 C 
ENDBRANCH   6  24
TORSDOF 2
ENDMDL
MODEL 2
REMARK VINA RESULT:      -7.6      1.414      8.224
REMARK  Name = 
REMARK  4 active torsions:
REMARK  status: ('A' for Active; 'I' for Inactive)
REMARK    1  A    between atoms: C_1  and  O_2
REMARK    2  A    between atoms: O_2  and  C_3
REMARK    3  A    between atoms: C_8  and  O_9
REMARK    4  A    between atoms: O_9  and  C_10
REMARK                            x       y       z     vdW  Elec       q    Type
REMARK                         _______ _______ _______ _____ _____    ______ ____
ROOT
ATOM      1  C   UNL     1       5.037   4.605  16.782  0.00  0.00    +0.000 A 
ATOM      2  C   UNL     1       4.923   5.791  16.044  0.00  0.00    +0.000 A 
ATOM      3  C   UNL     1       4.200   6.879  16.533  0.00  0.00    +0.000 A 
ATOM      4  C   UNL     1       3.537   6.792  17.757  0.00  0.00    +0.000 A 
ATOM      5  C   UNL     1       3.594   5.580  18.461  0.00  0.00    +0.000 A 
ATOM      6  C   UNL     1       4.334   4.473  17.993  0.00  0.00    +0.000 A 
ATOM      7  C   UNL     1       2.944   5.527  19.786  0.00  0.00    +0.000 C 
ATOM      8  N   UNL     1       2.241   6.467  20.320  0.00  0.00    +0.000 NA
ATOM      9  C   UNL     1       1.879   7.612  19.484  0.00  0.00    +0.000 C 
ATOM     10  C   UNL     1       2.938   8.004  18.433  0.00  0.00    +0.000 C 
ATOM     11  C   UNL     1       2.299   9.045  17.494  0.00  0.00    +0.000 C 
ATOM     12  C   UNL     1       1.881  10.299  18.268  0.00  0.00    +0.000 C 
ATOM     13  C   UNL     1       0.986   9.961  19.462  0.00  0.00    +0.000 C 
ATOM     14  C   UNL     1       0.601  11.211  20.271  0.00  0.00    +0.000 C 
ATOM     15  C   UNL     1      -0.406  10.746  21.300  0.00  0.00    +0.000 C 
ATOM     16  O   UNL     1      -0.958  11.715  22.175  0.00  0.00    +0.000 OA
ATOM     17  C   UNL     1      -1.533  10.862  23.186  0.00  0.00    +0.000 C 
ATOM     18  O   UNL     1      -0.797   9.621  23.249  0.00  0.00    +0.000 OA
ATOM     19  C   UNL     1       0.230   9.788  22.275  0.00  0.00    +0.000 C 
ATOM     20  C   UNL     1       0.666   8.515  21.571  0.00  0.00    +0.000 C 
ATOM     21  C   UNL     1       1.587   8.845  20.370  0.00  0.00    +0.000 C 
ENDROOT
BRANCH   1  23
ATOM     22  C   UNL     1       6.286   3.694  14.993  0.00  0.00    +0.000 C 
ATOM     23  O   UNL     1       5.825   3.575  16.338  0.00  0.00    +0.000 OA
ENDBRANCH   1  23
BRANCH   6  24
ATOM     24  O   UNL     1       4.352   3.397  18.841  0.00  0.00    +0.000 OA
ATOM     25  C   UNL     1       3.623   2.227  18.507  0.00  0.00    +0.000 C 
ENDBRANCH   6  24
TORSDOF 2
ENDMDL
MODEL 3
REMARK VINA RESULT:      -7.5      1.696      8.288
REMARK  Name = 
REMARK  4 active torsions:
REMARK  status: ('A' for Active; 'I' for Inactive)
REMARK    1  A    between atoms: C_1  and  O_2
REMARK    2  A    between atoms: O_2  and  C_3
REMARK    3  A    between atoms: C_8  and  O_9
REMARK    4  A    between atoms: O_9  and  C_10
REMARK                            x       y       z     vdW  Elec       q    Type
REMARK                         _______ _______ _______ _____ _____    ______ ____
ROOT
ATOM      1  C   UNL     1       4.418   4.990  17.610  0.00  0.00    +0.000 A 
ATOM      2  C   UNL     1       4.405   6.131  16.795  0.00  0.00    +0.000 A 
ATOM      3  C   UNL     1       3.701   7.275  17.168  0.00  0.00    +0.000 A 
ATOM      4  C   UNL     1       2.956   7.292  18.347  0.00  0.00    +0.000 A 
ATOM      5  C   UNL     1       2.913   6.126  19.125  0.00  0.00    +0.000 A 
ATOM      6  C   UNL     1       3.633   4.962  18.776  0.00  0.00    +0.000 A 
ATOM      7  C   UNL     1       2.176   6.182  20.403  0.00  0.00    +0.000 C 
ATOM      8  N   UNL     1       1.482   7.181  20.831  0.00  0.00    +0.000 NA
ATOM      9  C   UNL     1       1.227   8.284  19.905  0.00  0.00    +0.000 C 
ATOM     10  C   UNL     1       2.368   8.566  18.907  0.00  0.00    +0.000 C 
ATOM     11  C   UNL     1       1.838   9.571  17.865  0.00  0.00    +0.000 C 
ATOM     12  C   UNL     1       1.425  10.887  18.532  0.00  0.00    +0.000 C 
ATOM     13  C   UNL     1       0.440  10.661  19.681  0.00  0.00    +0.000 C 
ATOM     14  C   UNL     1       0.059  11.974  20.385  0.00  0.00    +0.000 C 
ATOM     15  C   UNL     1      -1.033  11.615  21.370  0.00  0.00    +0.000 C 
ATOM     16  O   UNL     1      -1.598  12.658  22.145  0.00  0.00    +0.000 OA
ATOM     17  C   UNL     1      -2.274  11.895  23.164  0.00  0.00    +0.000 C 
ATOM     18  O   UNL     1      -1.599  10.632  23.352  0.00  0.00    +0.000 OA
ATOM     19  C   UNL     1      -0.504  10.696  22.441  0.00  0.00    +0.000 C 
ATOM     20  C   UNL     1      -0.080   9.364  21.847  0.00  0.00    +0.000 C 
ATOM     21  C   UNL     1       0.932   9.582  20.693  0.00  0.00    +0.000 C 
ENDROOT
BRANCH   1  23
ATOM     22  C   UNL     1       5.661   3.871  15.937  0.00  0.00    +0.000 C 
ATOM     23  O   UNL     1       5.188   3.903  17.283  0.00  0.00    +0.000 OA
ENDBRANCH   1  23
BRANCH   6  24
ATOM     24  O   UNL     1       3.548   3.942  19.686  0.00  0.00    +0.000 OA
ATOM     25  C   UNL     1       2.780   2.789  19.380  0.00  0.00    +0.000 C 
ENDBRANCH   6  24
TORSDOF 2
ENDMDL
MODEL 4
REMARK VINA RESULT:      -7.5      2.292      8.047
REMARK  Name = 
REMARK  4 active torsions:
REMARK  status: ('A' for Active; 'I' for Inactive)
REMARK    1  A    between atoms: C_1  and  O_2
REMARK    2  A    between atoms: O_2  and  C_3
REMARK    3  A    between atoms: C_8  and  O_9
REMARK    4  A    between atoms: O_9  and  C_10
REMARK                            x       y       z     vdW  Elec       q    Type
REMARK                         _______ _______ _______ _____ _____    ______ ____
ROOT
ATOM      1  C   UNL     1       3.679   3.804  18.927  0.00  0.00    +0.000 A 
ATOM      2  C   UNL     1       3.912   4.634  17.822  0.00  0.00    +0.000 A 
ATOM      3  C   UNL     1       3.442   5.947  17.794  0.00  0.00    +0.000 A 
ATOM      4  C   UNL     1       2.689   6.449  18.856  0.00  0.00    +0.000 A 
ATOM      5  C   UNL     1       2.397   5.594  19.928  0.00  0.00    +0.000 A 
ATOM      6  C   UNL     1       2.878   4.268  19.986  0.00  0.00    +0.000 A 
ATOM      7  C   UNL     1       1.658   6.161  21.074  0.00  0.00    +0.000 C 
ATOM      8  N   UNL     1       1.167   7.352  21.141  0.00  0.00    +0.000 NA
ATOM      9  C   UNL     1       1.158   8.159  19.921  0.00  0.00    +0.000 C 
ATOM     10  C   UNL     1       2.355   7.917  18.978  0.00  0.00    +0.000 C 
ATOM     11  C   UNL     1       2.059   8.648  17.653  0.00  0.00    +0.000 C 
ATOM     12  C   UNL     1       1.903  10.155  17.881  0.00  0.00    +0.000 C 
ATOM     13  C   UNL     1       0.867  10.464  18.963  0.00  0.00    +0.000 C 
ATOM     14  C   UNL     1       0.739  11.974  19.229  0.00  0.00    +0.000 C 
ATOM     15  C   UNL     1      -0.424  12.130  20.185  0.00  0.00    +0.000 C 
ATOM     16  O   UNL     1      -0.787  13.442  20.581  0.00  0.00    +0.000 OA
ATOM     17  C   UNL     1      -1.625  13.153  21.719  0.00  0.00    +0.000 C 
ATOM     18  O   UNL     1      -1.220  11.900  22.313  0.00  0.00    +0.000 OA
ATOM     19  C   UNL     1      -0.114  11.489  21.513  0.00  0.00    +0.000 C 
ATOM     20  C   UNL     1       0.050   9.987  21.361  0.00  0.00    +0.000 C 
ATOM     21  C   UNL     1       1.110   9.663  20.278  0.00  0.00    +0.000 C 
ENDROOT
BRANCH   1  23
ATOM     22  C   UNL     1       3.489   1.529  18.311  0.00  0.00    +0.000 C 
ATOM     23  O   UNL     1       4.224   2.547  18.988  0.00  0.00    +0.000 OA
ENDBRANCH   1  23
BRANCH   6  24
ATOM     24  O   UNL     1       2.571   3.597  21.141  0.00  0.00    +0.000 OA
ATOM     25  C   UNL     1       1.449   2.730  21.172  0.00  0.00    +0.000 C 
ENDBRANCH   6  24
TORSDOF 2
ENDMDL
MODEL 5
REMARK VINA RESULT:      -7.4      2.406      3.926
REMARK  Name = 
REMARK  4 active torsions:
REMARK  status: ('A' for Active; 'I' for Inactive)
REMARK    1  A    between atoms: C_1  and  O_2
REMARK    2  A    between atoms: O_2  and  C_3
REMARK    3  A    between atoms: C_8  and  O_9
REMARK    4  A    between atoms: O_9  and  C_10
REMARK                            x       y       z     vdW  Elec       q    Type
REMARK                         _______ _______ _______ _____ _____    ______ ____
ROOT
ATOM      1  C   UNL     1      -0.180  12.717  20.805  0.00  0.00    +0.000 A 
ATOM      2  C   UNL     1       0.295  12.672  19.487  0.00  0.00    +0.000 A 
ATOM      3  C   UNL     1       0.839  11.503  18.957  0.00  0.00    +0.000 A 
ATOM      4  C   UNL     1       0.961  10.359  19.747  0.00  0.00    +0.000 A 
ATOM      5  C   UNL     1       0.550  10.428  21.086  0.00  0.00    +0.000 A 
ATOM      6  C   UNL     1      -0.020  11.596  21.638  0.00  0.00    +0.000 A 
ATOM      7  C   UNL     1       0.621   9.191  21.889  0.00  0.00    +0.000 C 
ATOM      8  N   UNL     1       1.119   8.067  21.500  0.00  0.00    +0.000 NA
ATOM      9  C   UNL     1       1.857   8.044  20.236  0.00  0.00    +0.000 C 
ATOM     10  C   UNL     1       1.326   9.015  19.162  0.00  0.00    +0.000 C 
ATOM     11  C   UNL     1       2.352   9.043  18.012  0.00  0.00    +0.000 C 
ATOM     12  C   UNL     1       2.516   7.653  17.388  0.00  0.00    +0.000 C 
ATOM     13  C   UNL     1       2.845   6.591  18.439  0.00  0.00    +0.000 C 
ATOM     14  C   UNL     1       2.964   5.186  17.826  0.00  0.00    +0.000 C 
ATOM     15  C   UNL     1       3.452   4.287  18.941  0.00  0.00    +0.000 C 
ATOM     16  O   UNL     1       3.680   2.920  18.641  0.00  0.00    +0.000 OA
ATOM     17  C   UNL     1       3.752   2.365  19.970  0.00  0.00    +0.000 C 
ATOM     18  O   UNL     1       2.969   3.173  20.875  0.00  0.00    +0.000 OA
ATOM     19  C   UNL     1       2.421   4.186  20.035  0.00  0.00    +0.000 C 
ATOM     20  C   UNL     1       2.211   5.534  20.703  0.00  0.00    +0.000 C 
ATOM     21  C   UNL     1       1.861   6.614  19.648  0.00  0.00    +0.000 C 
ENDROOT
BRANCH   1  23
ATOM     22  C   UNL     1      -2.049  14.161  20.684  0.00  0.00    +0.000 C 
ATOM     23  O   UNL     1      -0.798  13.841  21.290  0.00  0.00    +0.000 OA
ENDBRANCH   1  23
BRANCH   6  24
ATOM     24  O   UNL     1      -0.443  11.467  22.936  0.00  0.00    +0.000 OA
ATOM     25  C   UNL     1      -1.831  11.405  23.219  0.00  0.00    +0.000 C 
ENDBRANCH   6  24
TORSDOF 2
ENDMDL
MODEL 6
REMARK VINA RESULT:      -7.4      1.716      7.563
REMARK  Name = 
REMARK  4 active torsions:
REMARK  status: ('A' for Active; 'I' for Inactive)
REMARK    1  A    between atoms: C_1  and  O_2
REMARK    2  A    between atoms: O_2  and  C_3
REMARK    3  A    between atoms: C_8  and  O_9
REMARK    4  A    between atoms: O_9  and  C_10
REMARK                            x       y       z     vdW  Elec       q    Type
REMARK                         _______ _______ _______ _____ _____    ______ ____
ROOT
ATOM      1  C   UNL     1       3.552   3.920  19.215  0.00  0.00    +0.000 A 
ATOM      2  C   UNL     1       2.816   3.991  20.405  0.00  0.00    +0.000 A 
ATOM      3  C   UNL     1       2.121   5.148  20.756  0.00  0.00    +0.000 A 
ATOM      4  C   UNL     1       2.180   6.280  19.942  0.00  0.00    +0.000 A 
ATOM      5  C   UNL     1       2.974   6.230  18.788  0.00  0.00    +0.000 A 
ATOM      6  C   UNL     1       3.671   5.063  18.405  0.00  0.00    +0.000 A 
ATOM      7  C   UNL     1       2.971   7.412  17.903  0.00  0.00    +0.000 C 
ATOM      8  N   UNL     1       2.378   8.531  18.142  0.00  0.00    +0.000 NA
ATOM      9  C   UNL     1       1.821   8.741  19.478  0.00  0.00    +0.000 C 
ATOM     10  C   UNL     1       1.271   7.468  20.155  0.00  0.00    +0.000 C 
ATOM     11  C   UNL     1       0.961   7.818  21.623  0.00  0.00    +0.000 C 
ATOM     12  C   UNL     1      -0.095   8.924  21.712  0.00  0.00    +0.000 C 
ATOM     13  C   UNL     1       0.292  10.153  20.888  0.00  0.00    +0.000 C 
ATOM     14  C   UNL     1      -0.787  11.247  20.936  0.00  0.00    +0.000 C 
ATOM     15  C   UNL     1      -0.195  12.445  20.225  0.00  0.00    +0.000 C 
ATOM     16  O   UNL     1      -0.976  13.625  20.147  0.00  0.00    +0.000 OA
ATOM     17  C   UNL     1      -0.262  14.349  19.124  0.00  0.00    +0.000 C 
ATOM     18  O   UNL     1       0.405  13.416  18.247  0.00  0.00    +0.000 OA
ATOM     19  C   UNL     1       0.037  12.141  18.767  0.00  0.00    +0.000 C 
ATOM     20  C   UNL     1       1.083  11.051  18.605  0.00  0.00    +0.000 C 
ATOM     21  C   UNL     1       0.690   9.795  19.423  0.00  0.00    +0.000 C 
ENDROOT
BRANCH   1  23
ATOM     22  C   UNL     1       3.308   1.813  18.169  0.00  0.00    +0.000 C 
ATOM     23  O   UNL     1       4.156   2.750  18.831  0.00  0.00    +0.000 OA
ENDBRANCH   1  23
BRANCH   6  24
ATOM     24  O   UNL     1       4.333   5.159  17.208  0.00  0.00    +0.000 OA
ATOM     25  C   UNL     1       5.751   5.184  17.189  0.00  0.00    +0.000 C 
ENDBRANCH   6  24
TORSDOF 2
ENDMDL
MODEL 7
REMARK VINA RESULT:      -7.2      2.249      3.830
REMARK  Name = 
REMARK  4 active torsions:
REMARK  status: ('A' for Active; 'I' for Inactive)
REMARK    1  A    between atoms: C_1  and  O_2
REMARK    2  A    between atoms: O_2  and  C_3
REMARK    3  A    between atoms: C_8  and  O_9
REMARK    4  A    between atoms: O_9  and  C_10
REMARK                            x       y       z     vdW  Elec       q    Type
REMARK                         _______ _______ _______ _____ _____    ______ ____
ROOT
ATOM      1  C   UNL     1      -0.253  11.795  19.624  0.00  0.00    +0.000 A 
ATOM      2  C   UNL     1       0.542  11.681  18.475  0.00  0.00    +0.000 A 
ATOM      3  C   UNL     1       1.268  10.520  18.212  0.00  0.00    +0.000 A 
ATOM      4  C   UNL     1       1.251   9.457  19.116  0.00  0.00    +0.000 A 
ATOM      5  C   UNL     1       0.511   9.601  20.299  0.00  0.00    +0.000 A 
ATOM      6  C   UNL     1      -0.245  10.760  20.576  0.00  0.00    +0.000 A 
ATOM      7  C   UNL     1       0.448   8.442  21.213  0.00  0.00    +0.000 C 
ATOM      8  N   UNL     1       1.092   7.334  21.071  0.00  0.00    +0.000 NA
ATOM      9  C   UNL     1       2.125   7.268  20.037  0.00  0.00    +0.000 C 
ATOM     10  C   UNL     1       1.828   8.103  18.774  0.00  0.00    +0.000 C 
ATOM     11  C   UNL     1       3.108   8.120  17.916  0.00  0.00    +0.000 C 
ATOM     12  C   UNL     1       3.503   6.702  17.492  0.00  0.00    +0.000 C 
ATOM     13  C   UNL     1       3.616   5.758  18.690  0.00  0.00    +0.000 C 
ATOM     14  C   UNL     1       3.966   4.322  18.266  0.00  0.00    +0.000 C 
ATOM     15  C   UNL     1       4.207   3.557  19.550  0.00  0.00    +0.000 C 
ATOM     16  O   UNL     1       4.580   2.194  19.451  0.00  0.00    +0.000 OA
ATOM     17  C   UNL     1       4.346   1.755  20.805  0.00  0.00    +0.000 C 
ATOM     18  O   UNL     1       3.314   2.569  21.406  0.00  0.00    +0.000 OA
ATOM     19  C   UNL     1       2.939   3.464  20.361  0.00  0.00    +0.000 C 
ATOM     20  C   UNL     1       2.491   4.841  20.820  0.00  0.00    +0.000 C 
ATOM     21  C   UNL     1       2.358   5.800  19.611  0.00  0.00    +0.000 C 
ENDROOT
BRANCH   1  23
ATOM     22  C   UNL     1      -0.438  14.148  19.478  0.00  0.00    +0.000 C 
ATOM     23  O   UNL     1      -1.036  12.901  19.829  0.00  0.00    +0.000 OA
ENDBRANCH   1  23
BRANCH   6  24
ATOM     24  O   UNL     1      -0.974  10.704  21.736  0.00  0.00    +0.000 OA
ATOM     25  C   UNL     1      -0.801  11.707  22.723  0.00  0.00    +0.000 C 
ENDBRANCH   6  24
TORSDOF 2
ENDMDL
MODEL 8
REMARK VINA RESULT:      -7.0      2.378      8.681
REMARK  Name = 
REMARK  4 active torsions:
REMARK  status: ('A' for Active; 'I' for Inactive)
REMARK    1  A    between atoms: C_1  and  O_2
REMARK    2  A    between atoms: O_2  and  C_3
REMARK    3  A    between atoms: C_8  and  O_9
REMARK    4  A    between atoms: O_9  and  C_10
REMARK                            x       y       z     vdW  Elec       q    Type
REMARK                         _______ _______ _______ _____ _____    ______ ____
ROOT
ATOM      1  C   UNL     1       3.339   6.178  18.513  0.00  0.00    +0.000 A 
ATOM      2  C   UNL     1       3.284   7.238  17.597  0.00  0.00    +0.000 A 
ATOM      3  C   UNL     1       2.559   8.395  17.876  0.00  0.00    +0.000 A 
ATOM      4  C   UNL     1       1.834   8.505  19.063  0.00  0.00    +0.000 A 
ATOM      5  C   UNL     1       1.833   7.416  19.945  0.00  0.00    +0.000 A 
ATOM      6  C   UNL     1       2.574   6.242  19.692  0.00  0.00    +0.000 A 
ATOM      7  C   UNL     1       1.117   7.574  21.227  0.00  0.00    +0.000 C 
ATOM      8  N   UNL     1       0.406   8.592  21.574  0.00  0.00    +0.000 NA
ATOM      9  C   UNL     1       0.108   9.599  20.555  0.00  0.00    +0.000 C 
ATOM     10  C   UNL     1       1.225   9.813  19.513  0.00  0.00    +0.000 C 
ATOM     11  C   UNL     1       0.653  10.704  18.393  0.00  0.00    +0.000 C 
ATOM     12  C   UNL     1       0.220  12.067  18.944  0.00  0.00    +0.000 C 
ATOM     13  C   UNL     1      -0.739  11.926  20.127  0.00  0.00    +0.000 C 
ATOM     14  C   UNL     1      -1.140  13.290  20.714  0.00  0.00    +0.000 C 
ATOM     15  C   UNL     1      -2.206  13.000  21.748  0.00  0.00    +0.000 C 
ATOM     16  O   UNL     1      -2.783  14.098  22.434  0.00  0.00    +0.000 OA
ATOM     17  C   UNL     1      -3.423  13.417  23.533  0.00  0.00    +0.000 C 
ATOM     18  O   UNL     1      -2.715  12.193  23.823  0.00  0.00    +0.000 OA
ATOM     19  C   UNL     1      -1.637  12.197  22.890  0.00  0.00    +0.000 C 
ATOM     20  C   UNL     1      -1.191  10.825  22.413  0.00  0.00    +0.000 C 
ATOM     21  C   UNL     1      -0.205  10.957  21.225  0.00  0.00    +0.000 C 
ENDROOT
BRANCH   1  23
ATOM     22  C   UNL     1       5.427   5.125  18.864  0.00  0.00    +0.000 C 
ATOM     23  O   UNL     1       4.129   5.083  18.274  0.00  0.00    +0.000 OA
ENDBRANCH   1  23
BRANCH   6  24
ATOM     24  O   UNL     1       2.529   5.308  20.695  0.00  0.00    +0.000 OA
ATOM     25  C   UNL     1       1.776   4.120  20.515  0.00  0.00    +0.000 C 
ENDBRANCH   6  24
TORSDOF 2
ENDMDL
MODEL 9
REMARK VINA RESULT:      -6.6      2.386      8.241
REMARK  Name = 
REMARK  4 active torsions:
REMARK  status: ('A' for Active; 'I' for Inactive)
REMARK    1  A    between atoms: C_1  and  O_2
REMARK    2  A    between atoms: O_2  and  C_3
REMARK    3  A    between atoms: C_8  and  O_9
REMARK    4  A    between atoms: O_9  and  C_10
REMARK                            x       y       z     vdW  Elec       q    Type
REMARK                         _______ _______ _______ _____ _____    ______ ____
ROOT
ATOM      1  C   UNL     1       2.613   5.780  19.262  0.00  0.00    +0.000 A 
ATOM      2  C   UNL     1       2.044   5.645  20.535  0.00  0.00    +0.000 A 
ATOM      3  C   UNL     1       1.376   6.707  21.143  0.00  0.00    +0.000 A 
ATOM      4  C   UNL     1       1.297   7.947  20.509  0.00  0.00    +0.000 A 
ATOM      5  C   UNL     1       1.929   8.100  19.266  0.00  0.00    +0.000 A 
ATOM      6  C   UNL     1       2.595   7.033  18.625  0.00  0.00    +0.000 A 
ATOM      7  C   UNL     1       1.778   9.398  18.577  0.00  0.00    +0.000 C 
ATOM      8  N   UNL     1       1.197  10.443  19.057  0.00  0.00    +0.000 NA
ATOM      9  C   UNL     1       0.821  10.432  20.471  0.00  0.00    +0.000 C 
ATOM     10  C   UNL     1       0.398   9.051  21.014  0.00  0.00    +0.000 C 
ATOM     11  C   UNL     1       0.283   9.170  22.547  0.00  0.00    +0.000 C 
ATOM     12  C   UNL     1      -0.778  10.203  22.939  0.00  0.00    +0.000 C 
ATOM     13  C   UNL     1      -0.534  11.555  22.265  0.00  0.00    +0.000 C 
ATOM     14  C   UNL     1      -1.623  12.583  22.617  0.00  0.00    +0.000 C 
ATOM     15  C   UNL     1      -1.160  13.897  22.024  0.00  0.00    +0.000 C 
ATOM     16  O   UNL     1      -1.973  15.040  22.227  0.00  0.00    +0.000 OA
ATOM     17  C   UNL     1      -1.422  15.936  21.240  0.00  0.00    +0.000 C 
ATOM     18  O   UNL     1      -0.858  15.170  20.152  0.00  0.00    +0.000 OA
ATOM     19  C   UNL     1      -1.121  13.818  20.519  0.00  0.00    +0.000 C 
ATOM     20  C   UNL     1      -0.083  12.810  20.059  0.00  0.00    +0.000 C 
ATOM     21  C   UNL     1      -0.331  11.432  20.724  0.00  0.00    +0.000 C 
ENDROOT
BRANCH   1  23
ATOM     22  C   UNL     1       2.311   3.947  17.798  0.00  0.00    +0.000 C 
ATOM     23  O   UNL     1       3.187   4.706  18.631  0.00  0.00    +0.000 OA
ENDBRANCH   1  23
BRANCH   6  24
ATOM     24  O   UNL     1       3.085   7.331  17.380  0.00  0.00    +0.000 OA
ATOM     25  C   UNL     1       4.460   7.126  17.099  0.00  0.00    +0.000 C 
ENDBRANCH   6  24
TORSDOF 2
ENDMDL
