MODEL 1
REMARK VINA RESULT:      -6.3      0.000      0.000
REMARK  Name = 
REMARK  4 active torsions:
REMARK  status: ('A' for Active; 'I' for Inactive)
REMARK    1  A    between atoms: C_1  and  N_2
REMARK    2  A    between atoms: C_6  and  C_7
REMARK    3  A    between atoms: C_7  and  C_9
REMARK    4  A    between atoms: C_9  and  N_10
REMARK                            x       y       z     vdW  Elec       q    Type
REMARK                         _______ _______ _______ _____ _____    ______ ____
ROOT
ATOM      1  C   UNL     1       2.636   3.336  17.958  0.00  0.00    +0.000 C 
ATOM      2  O   UNL     1       2.318   2.511  17.097  0.00  0.00    +0.000 OA
ENDROOT
BRANCH   1   8
ATOM      3  C   UNL     1       4.477   2.100  20.128  0.00  0.00    +0.000 C 
ATOM      4  N   UNL     1       3.142   2.618  20.339  0.00  0.00    +0.000 N 
ATOM      5  C   UNL     1       2.520   2.631  21.564  0.00  0.00    +0.000 A 
ATOM      6  C   UNL     1       1.267   3.170  21.404  0.00  0.00    +0.000 A 
ATOM      7  C   UNL     1       1.128   3.488  20.038  0.00  0.00    +0.000 A 
ATOM      8  C   UNL     1       2.306   3.158  19.376  0.00  0.00    +0.000 A 
ENDBRANCH   1   8
BRANCH   1   9
ATOM      9  C   UNL     1       3.367   4.626  17.536  0.00  0.00    +0.000 C 
BRANCH   9  10
ATOM     10  N   UNL     1       4.817   4.588  17.832  0.00  0.00    +0.000 NA
ATOM     11  C   UNL     1       5.631   4.828  16.632  0.00  0.00    +0.000 C 
ATOM     12  C   UNL     1       7.115   4.640  16.954  0.00  0.00    +0.000 C 
ATOM     13  C   UNL     1       7.559   5.550  18.095  0.00  0.00    +0.000 C 
ATOM     14  C   UNL     1       6.632   5.395  19.297  0.00  0.00    +0.000 C 
ATOM     15  C   UNL     1       5.162   5.541  18.896  0.00  0.00    +0.000 C 
ENDBRANCH   9  10
ENDBRANCH   1   9
TORSDOF 3
ENDMDL
MODEL 2
REMARK VINA RESULT:      -6.1      1.557      2.509
REMARK  Name = 
REMARK  4 active torsions:
REMARK  status: ('A' for Active; 'I' for Inactive)
REMARK    1  A    between atoms: C_1  and  N_2
REMARK    2  A    between atoms: C_6  and  C_7
REMARK    3  A    between atoms: C_7  and  C_9
REMARK    4  A    between atoms: C_9  and  N_10
REMARK                            x       y       z     vdW  Elec       q    Type
REMARK                         _______ _______ _______ _____ _____    ______ ____
ROOT
ATOM      1  C   UNL     1       4.358   2.923  19.677  0.00  0.00    +0.000 C 
ATOM      2  O   UNL     1       5.058   2.037  20.173  0.00  0.00    +0.000 OA
ENDROOT
BRANCH   1   8
ATOM      3  C   UNL     1       2.131   3.607  21.726  0.00  0.00    +0.000 C 
ATOM      4  N   UNL     1       1.928   3.084  20.392  0.00  0.00    +0.000 N 
ATOM      5  C   UNL     1       0.687   2.831  19.858  0.00  0.00    +0.000 A 
ATOM      6  C   UNL     1       0.858   2.330  18.591  0.00  0.00    +0.000 A 
ATOM      7  C   UNL     1       2.247   2.275  18.355  0.00  0.00    +0.000 A 
ATOM      8  C   UNL     1       2.914   2.761  19.474  0.00  0.00    +0.000 A 
ENDBRANCH   1   8
BRANCH   1   9
ATOM      9  C   UNL     1       5.018   4.234  19.205  0.00  0.00    +0.000 C 
BRANCH   9  10
ATOM     10  N   UNL     1       5.559   4.142  17.830  0.00  0.00    +0.000 NA
ATOM     11  C   UNL     1       4.630   4.691  16.833  0.00  0.00    +0.000 C 
ATOM     12  C   UNL     1       5.166   4.448  15.421  0.00  0.00    +0.000 C 
ATOM     13  C   UNL     1       6.558   5.044  15.242  0.00  0.00    +0.000 C 
ATOM     14  C   UNL     1       7.490   4.576  16.355  0.00  0.00    +0.000 C 
ATOM     15  C   UNL     1       6.871   4.798  17.737  0.00  0.00    +0.000 C 
ENDBRANCH   9  10
ENDBRANCH   1   9
TORSDOF 3
ENDMDL
MODEL 3
REMARK VINA RESULT:      -6.1      1.920      5.745
REMARK  Name = 
REMARK  4 active torsions:
REMARK  status: ('A' for Active; 'I' for Inactive)
REMARK    1  A    between atoms: C_1  and  N_2
REMARK    2  A    between atoms: C_6  and  C_7
REMARK    3  A    between atoms: C_7  and  C_9
REMARK    4  A    between atoms: C_9  and  N_10
REMARK                            x       y       z     vdW  Elec       q    Type
REMARK                         _______ _______ _______ _____ _____    ______ ____
ROOT
ATOM      1  C   UNL     1       5.378   4.524  18.208  0.00  0.00    +0.000 C 
ATOM      2  O   UNL     1       6.043   4.104  19.159  0.00  0.00    +0.000 OA
ENDROOT
BRANCH   1   8
ATOM      3  C   UNL     1       7.346   6.597  17.001  0.00  0.00    +0.000 C 
ATOM      4  N   UNL     1       6.782   5.457  16.310  0.00  0.00    +0.000 N 
ATOM      5  C   UNL     1       7.068   5.146  15.003  0.00  0.00    +0.000 A 
ATOM      6  C   UNL     1       6.355   4.023  14.662  0.00  0.00    +0.000 A 
ATOM      7  C   UNL     1       5.612   3.647  15.800  0.00  0.00    +0.000 A 
ATOM      8  C   UNL     1       5.891   4.534  16.834  0.00  0.00    +0.000 A 
ENDBRANCH   1   8
BRANCH   1   9
ATOM      9  C   UNL     1       3.974   5.107  18.465  0.00  0.00    +0.000 C 
BRANCH   9  10
ATOM     10  N   UNL     1       3.071   4.150  19.145  0.00  0.00    +0.000 NA
ATOM     11  C   UNL     1       2.666   4.624  20.475  0.00  0.00    +0.000 C 
ATOM     12  C   UNL     1       1.853   3.547  21.196  0.00  0.00    +0.000 C 
ATOM     13  C   UNL     1       0.633   3.130  20.381  0.00  0.00    +0.000 C 
ATOM     14  C   UNL     1       1.039   2.762  18.957  0.00  0.00    +0.000 C 
ATOM     15  C   UNL     1       1.894   3.857  18.315  0.00  0.00    +0.000 C 
ENDBRANCH   9  10
ENDBRANCH   1   9
TORSDOF 3
ENDMDL
MODEL 4
REMARK VINA RESULT:      -6.1      1.715      5.582
REMARK  Name = 
REMARK  4 active torsions:
REMARK  status: ('A' for Active; 'I' for Inactive)
REMARK    1  A    between atoms: C_1  and  N_2
REMARK    2  A    between atoms: C_6  and  C_7
REMARK    3  A    between atoms: C_7  and  C_9
REMARK    4  A    between atoms: C_9  and  N_10
REMARK                            x       y       z     vdW  Elec       q    Type
REMARK                         _______ _______ _______ _____ _____    ______ ____
ROOT
ATOM      1  C   UNL     1       4.418   4.896  17.381  0.00  0.00    +0.000 C 
ATOM      2  O   UNL     1       4.255   5.925  18.042  0.00  0.00    +0.000 OA
ENDROOT
BRANCH   1   8
ATOM      3  C   UNL     1       7.498   4.695  17.704  0.00  0.00    +0.000 C 
ATOM      4  N   UNL     1       6.772   4.704  16.451  0.00  0.00    +0.000 N 
ATOM      5  C   UNL     1       7.381   4.613  15.223  0.00  0.00    +0.000 A 
ATOM      6  C   UNL     1       6.408   4.669  14.256  0.00  0.00    +0.000 A 
ATOM      7  C   UNL     1       5.173   4.802  14.922  0.00  0.00    +0.000 A 
ATOM      8  C   UNL     1       5.400   4.808  16.294  0.00  0.00    +0.000 A 
ENDBRANCH   1   8
BRANCH   1   9
ATOM      9  C   UNL     1       3.534   3.666  17.665  0.00  0.00    +0.000 C 
BRANCH   9  10
ATOM     10  N   UNL     1       2.910   3.705  19.008  0.00  0.00    +0.000 NA
ATOM     11  C   UNL     1       1.443   3.742  18.933  0.00  0.00    +0.000 C 
ATOM     12  C   UNL     1       0.847   3.923  20.330  0.00  0.00    +0.000 C 
ATOM     13  C   UNL     1       1.308   2.825  21.281  0.00  0.00    +0.000 C 
ATOM     14  C   UNL     1       2.828   2.698  21.260  0.00  0.00    +0.000 C 
ATOM     15  C   UNL     1       3.362   2.574  19.831  0.00  0.00    +0.000 C 
ENDBRANCH   9  10
ENDBRANCH   1   9
TORSDOF 3
ENDMDL
MODEL 5
REMARK VINA RESULT:      -6.1      1.782      2.644
REMARK  Name = 
REMARK  4 active torsions:
REMARK  status: ('A' for Active; 'I' for Inactive)
REMARK    1  A    between atoms: C_1  and  N_2
REMARK    2  A    between atoms: C_6  and  C_7
REMARK    3  A    between atoms: C_7  and  C_9
REMARK    4  A    between atoms: C_9  and  N_10
REMARK                            x       y       z     vdW  Elec       q    Type
REMARK                         _______ _______ _______ _____ _____    ______ ____
ROOT
ATOM      1  C   UNL     1       4.512   3.502  19.725  0.00  0.00    +0.000 C 
ATOM      2  O   UNL     1       5.175   2.504  20.024  0.00  0.00    +0.000 OA
ENDROOT
BRANCH   1   8
ATOM      3  C   UNL     1       2.585   2.100  17.739  0.00  0.00    +0.000 C 
ATOM      4  N   UNL     1       2.196   2.875  18.898  0.00  0.00    +0.000 N 
ATOM      5  C   UNL     1       0.889   3.078  19.270  0.00  0.00    +0.000 A 
ATOM      6  C   UNL     1       0.879   3.866  20.395  0.00  0.00    +0.000 A 
ATOM      7  C   UNL     1       2.224   4.149  20.709  0.00  0.00    +0.000 A 
ATOM      8  C   UNL     1       3.047   3.517  19.783  0.00  0.00    +0.000 A 
ENDBRANCH   1   8
BRANCH   1   9
ATOM      9  C   UNL     1       5.235   4.769  19.226  0.00  0.00    +0.000 C 
BRANCH   9  10
ATOM     10  N   UNL     1       5.003   5.033  17.788  0.00  0.00    +0.000 NA
ATOM     11  C   UNL     1       5.439   6.381  17.397  0.00  0.00    +0.000 C 
ATOM     12  C   UNL     1       5.053   6.660  15.943  0.00  0.00    +0.000 C 
ATOM     13  C   UNL     1       5.634   5.613  14.999  0.00  0.00    +0.000 C 
ATOM     14  C   UNL     1       5.291   4.207  15.480  0.00  0.00    +0.000 C 
ATOM     15  C   UNL     1       5.653   4.012  16.954  0.00  0.00    +0.000 C 
ENDBRANCH   9  10
ENDBRANCH   1   9
TORSDOF 3
ENDMDL
MODEL 6
REMARK VINA RESULT:      -6.1      2.013      5.469
REMARK  Name = 
REMARK  4 active torsions:
REMARK  status: ('A' for Active; 'I' for Inactive)
REMARK    1  A    between atoms: C_1  and  N_2
REMARK    2  A    between atoms: C_6  and  C_7
REMARK    3  A    between atoms: C_7  and  C_9
REMARK    4  A    between atoms: C_9  and  N_10
REMARK                            x       y       z     vdW  Elec       q    Type
REMARK                         _______ _______ _______ _____ _____    ______ ____
ROOT
ATOM      1  C   UNL     1       5.677   4.530  18.857  0.00  0.00    +0.000 C 
ATOM      2  O   UNL     1       6.261   5.182  19.728  0.00  0.00    +0.000 OA
ENDROOT
BRANCH   1   8
ATOM      3  C   UNL     1       4.002   6.794  17.554  0.00  0.00    +0.000 C 
ATOM      4  N   UNL     1       4.954   5.941  16.874  0.00  0.00    +0.000 N 
ATOM      5  C   UNL     1       5.240   6.043  15.535  0.00  0.00    +0.000 A 
ATOM      6  C   UNL     1       6.165   5.078  15.218  0.00  0.00    +0.000 A 
ATOM      7  C   UNL     1       6.441   4.369  16.404  0.00  0.00    +0.000 A 
ATOM      8  C   UNL     1       5.696   4.918  17.442  0.00  0.00    +0.000 A 
ENDBRANCH   1   8
BRANCH   1   9
ATOM      9  C   UNL     1       4.856   3.290  19.262  0.00  0.00    +0.000 C 
BRANCH   9  10
ATOM     10  N   UNL     1       3.395   3.521  19.194  0.00  0.00    +0.000 NA
ATOM     11  C   UNL     1       2.655   2.287  18.897  0.00  0.00    +0.000 C 
ATOM     12  C   UNL     1       1.170   2.597  18.698  0.00  0.00    +0.000 C 
ATOM     13  C   UNL     1       0.577   3.299  19.914  0.00  0.00    +0.000 C 
ATOM     14  C   UNL     1       1.423   4.508  20.303  0.00  0.00    +0.000 C 
ATOM     15  C   UNL     1       2.903   4.140  20.433  0.00  0.00    +0.000 C 
ENDBRANCH   9  10
ENDBRANCH   1   9
TORSDOF 3
ENDMDL
MODEL 7
REMARK VINA RESULT:      -6.0      1.327      1.412
REMARK  Name = 
REMARK  4 active torsions:
REMARK  status: ('A' for Active; 'I' for Inactive)
REMARK    1  A    between atoms: C_1  and  N_2
REMARK    2  A    between atoms: C_6  and  C_7
REMARK    3  A    between atoms: C_7  and  C_9
REMARK    4  A    between atoms: C_9  and  N_10
REMARK                            x       y       z     vdW  Elec       q    Type
REMARK                         _______ _______ _______ _____ _____    ______ ____
ROOT
ATOM      1  C   UNL     1       2.045   4.521  18.142  0.00  0.00    +0.000 C 
ATOM      2  O   UNL     1       1.243   4.092  17.308  0.00  0.00    +0.000 OA
ENDROOT
BRANCH   1   8
ATOM      3  C   UNL     1       3.584   1.914  18.818  0.00  0.00    +0.000 C 
ATOM      4  N   UNL     1       2.893   2.763  19.764  0.00  0.00    +0.000 N 
ATOM      5  C   UNL     1       2.844   2.510  21.114  0.00  0.00    +0.000 A 
ATOM      6  C   UNL     1       2.098   3.498  21.710  0.00  0.00    +0.000 A 
ATOM      7  C   UNL     1       1.680   4.371  20.685  0.00  0.00    +0.000 A 
ATOM      8  C   UNL     1       2.190   3.921  19.472  0.00  0.00    +0.000 A 
ENDBRANCH   1   8
BRANCH   1   9
ATOM      9  C   UNL     1       2.897   5.761  17.805  0.00  0.00    +0.000 C 
BRANCH   9  10
ATOM     10  N   UNL     1       4.324   5.434  17.585  0.00  0.00    +0.000 NA
ATOM     11  C   UNL     1       4.512   4.521  16.449  0.00  0.00    +0.000 C 
ATOM     12  C   UNL     1       5.980   4.101  16.346  0.00  0.00    +0.000 C 
ATOM     13  C   UNL     1       6.900   5.310  16.220  0.00  0.00    +0.000 C 
ATOM     14  C   UNL     1       6.613   6.320  17.326  0.00  0.00    +0.000 C 
ATOM     15  C   UNL     1       5.122   6.656  17.409  0.00  0.00    +0.000 C 
ENDBRANCH   9  10
ENDBRANCH   1   9
TORSDOF 3
ENDMDL
MODEL 8
REMARK VINA RESULT:      -6.0      1.891      5.526
REMARK  Name = 
REMARK  4 active torsions:
REMARK  status: ('A' for Active; 'I' for Inactive)
REMARK    1  A    between atoms: C_1  and  N_2
REMARK    2  A    between atoms: C_6  and  C_7
REMARK    3  A    between atoms: C_7  and  C_9
REMARK    4  A    between atoms: C_9  and  N_10
REMARK                            x       y       z     vdW  Elec       q    Type
REMARK                         _______ _______ _______ _____ _____    ______ ____
ROOT
ATOM      1  C   UNL     1       4.488   5.792  17.766  0.00  0.00    +0.000 C 
ATOM      2  O   UNL     1       3.762   6.775  17.593  0.00  0.00    +0.000 OA
ENDROOT
BRANCH   1   8
ATOM      3  C   UNL     1       7.383   6.706  17.126  0.00  0.00    +0.000 C 
ATOM      4  N   UNL     1       6.649   5.664  16.440  0.00  0.00    +0.000 N 
ATOM      5  C   UNL     1       7.167   4.930  15.401  0.00  0.00    +0.000 A 
ATOM      6  C   UNL     1       6.205   4.048  14.975  0.00  0.00    +0.000 A 
ATOM      7  C   UNL     1       5.068   4.259  15.782  0.00  0.00    +0.000 A 
ATOM      8  C   UNL     1       5.351   5.257  16.707  0.00  0.00    +0.000 A 
ENDBRANCH   1   8
BRANCH   1   9
ATOM      9  C   UNL     1       4.462   5.061  19.123  0.00  0.00    +0.000 C 
BRANCH   9  10
ATOM     10  N   UNL     1       3.190   4.343  19.365  0.00  0.00    +0.000 NA
ATOM     11  C   UNL     1       3.408   2.922  19.669  0.00  0.00    +0.000 C 
ATOM     12  C   UNL     1       2.067   2.192  19.771  0.00  0.00    +0.000 C 
ATOM     13  C   UNL     1       1.161   2.832  20.818  0.00  0.00    +0.000 C 
ATOM     14  C   UNL     1       1.041   4.333  20.578  0.00  0.00    +0.000 C 
ATOM     15  C   UNL     1       2.415   4.992  20.432  0.00  0.00    +0.000 C 
ENDBRANCH   9  10
ENDBRANCH   1   9
TORSDOF 3
ENDMDL
MODEL 9
REMARK VINA RESULT:      -6.0      1.801      2.331
REMARK  Name = 
REMARK  4 active torsions:
REMARK  status: ('A' for Active; 'I' for Inactive)
REMARK    1  A    between atoms: C_1  and  N_2
REMARK    2  A    between atoms: C_6  and  C_7
REMARK    3  A    between atoms: C_7  and  C_9
REMARK    4  A    between atoms: C_9  and  N_10
REMARK                            x       y       z     vdW  Elec       q    Type
REMARK                         _______ _______ _______ _____ _____    ______ ____
ROOT
ATOM      1  C   UNL     1       4.385   3.274  19.353  0.00  0.00    +0.000 C 
ATOM      2  O   UNL     1       4.978   2.409  20.003  0.00  0.00    +0.000 OA
ENDROOT
BRANCH   1   8
ATOM      3  C   UNL     1       1.616   1.900  19.089  0.00  0.00    +0.000 C 
ATOM      4  N   UNL     1       1.867   3.201  19.671  0.00  0.00    +0.000 N 
ATOM      5  C   UNL     1       0.881   3.999  20.197  0.00  0.00    +0.000 A 
ATOM      6  C   UNL     1       1.460   5.161  20.643  0.00  0.00    +0.000 A 
ATOM      7  C   UNL     1       2.840   5.062  20.374  0.00  0.00    +0.000 A 
ATOM      8  C   UNL     1       3.097   3.831  19.780  0.00  0.00    +0.000 A 
ENDBRANCH   1   8
BRANCH   1   9
ATOM      9  C   UNL     1       4.983   3.763  18.019  0.00  0.00    +0.000 C 
BRANCH   9  10
ATOM     10  N   UNL     1       5.680   5.064  18.145  0.00  0.00    +0.000 NA
ATOM     11  C   UNL     1       7.120   4.897  18.382  0.00  0.00    +0.000 C 
ATOM     12  C   UNL     1       7.773   6.256  18.645  0.00  0.00    +0.000 C 
ATOM     13  C   UNL     1       7.528   7.225  17.494  0.00  0.00    +0.000 C 
ATOM     14  C   UNL     1       6.041   7.298  17.161  0.00  0.00    +0.000 C 
ATOM     15  C   UNL     1       5.440   5.905  16.963  0.00  0.00    +0.000 C 
ENDBRANCH   9  10
ENDBRANCH   1   9
TORSDOF 3
ENDMDL
