MODEL 1
REMARK VINA RESULT:      -8.3      0.000      0.000
REMARK  Name = 
REMARK  4 active torsions:
REMARK  status: ('A' for Active; 'I' for Inactive)
REMARK    1  A    between atoms: C_2  and  O_3
REMARK    2  A    between atoms: C_2  and  C_4
REMARK    3  A    between atoms: C_6  and  C_7
REMARK    4  A    between atoms: N_13  and  C_14
REMARK                            x       y       z     vdW  Elec       q    Type
REMARK                         _______ _______ _______ _____ _____    ______ ____
ROOT
ATOM      1  C   UNL     1       5.972   4.973  17.361  0.00  0.00    +0.000 A 
ATOM      2  C   UNL     1       5.320   6.218  17.396  0.00  0.00    +0.000 A 
ATOM      3  C   UNL     1       4.110   6.017  18.037  0.00  0.00    +0.000 A 
ATOM      4  N   UNL     1       4.075   4.646  18.325  0.00  0.00    +0.000 N 
ATOM      5  N   UNL     1       5.245   4.023  17.985  0.00  0.00    +0.000 NA
ENDROOT
BRANCH   3   6
ATOM      6  C   UNL     1       3.116   7.043  18.401  0.00  0.00    +0.000 A 
ATOM      7  C   UNL     1       2.530   7.023  19.675  0.00  0.00    +0.000 A 
ATOM      8  C   UNL     1       1.624   8.015  20.065  0.00  0.00    +0.000 A 
ATOM      9  C   UNL     1       1.314   9.059  19.197  0.00  0.00    +0.000 A 
ATOM     10  C   UNL     1       1.860   9.077  17.920  0.00  0.00    +0.000 A 
ATOM     11  C   UNL     1       2.711   8.048  17.511  0.00  0.00    +0.000 A 
ENDBRANCH   3   6
BRANCH   4  12
ATOM     12  C   UNL     1       3.045   3.895  18.963  0.00  0.00    +0.000 A 
ATOM     13  C   UNL     1       1.891   3.511  18.264  0.00  0.00    +0.000 A 
ATOM     14  C   UNL     1       0.777   3.037  18.959  0.00  0.00    +0.000 A 
ATOM     15  C   UNL     1       0.831   2.893  20.344  0.00  0.00    +0.000 A 
ATOM     16  C   UNL     1       2.015   3.170  21.029  0.00  0.00    +0.000 A 
ATOM     17  C   UNL     1       3.131   3.656  20.341  0.00  0.00    +0.000 A 
ENDBRANCH   4  12
BRANCH   1  19
ATOM     18  O   UNL     1       7.581   4.901  15.605  0.00  0.00    +0.000 OA
ATOM     19  C   UNL     1       7.274   4.671  16.769  0.00  0.00    +0.000 C 
BRANCH  19  20
ATOM     20  O   UNL     1       8.127   4.077  17.654  0.00  0.00    +0.000 OA
ATOM     21  H   UNL     1       8.113   4.631  18.467  0.00  0.00    +0.000 HD
ENDBRANCH  19  20
ENDBRANCH   1  19
TORSDOF 4
ENDMDL
MODEL 2
REMARK VINA RESULT:      -8.3      0.917      1.475
REMARK  Name = 
REMARK  4 active torsions:
REMARK  status: ('A' for Active; 'I' for Inactive)
REMARK    1  A    between atoms: C_2  and  O_3
REMARK    2  A    between atoms: C_2  and  C_4
REMARK    3  A    between atoms: C_6  and  C_7
REMARK    4  A    between atoms: N_13  and  C_14
REMARK                            x       y       z     vdW  Elec       q    Type
REMARK                         _______ _______ _______ _____ _____    ______ ____
ROOT
ATOM      1  C   UNL     1       5.379   4.962  16.360  0.00  0.00    +0.000 A 
ATOM      2  C   UNL     1       4.804   6.212  16.647  0.00  0.00    +0.000 A 
ATOM      3  C   UNL     1       3.817   5.990  17.591  0.00  0.00    +0.000 A 
ATOM      4  N   UNL     1       3.819   4.605  17.801  0.00  0.00    +0.000 N 
ATOM      5  N   UNL     1       4.826   3.986  17.110  0.00  0.00    +0.000 NA
ENDROOT
BRANCH   3   6
ATOM      6  C   UNL     1       2.999   7.007  18.277  0.00  0.00    +0.000 A 
ATOM      7  C   UNL     1       2.591   8.156  17.582  0.00  0.00    +0.000 A 
ATOM      8  C   UNL     1       1.770   9.111  18.192  0.00  0.00    +0.000 A 
ATOM      9  C   UNL     1       1.322   8.917  19.496  0.00  0.00    +0.000 A 
ATOM     10  C   UNL     1       1.743   7.802  20.210  0.00  0.00    +0.000 A 
ATOM     11  C   UNL     1       2.616   6.885  19.621  0.00  0.00    +0.000 A 
ENDBRANCH   3   6
BRANCH   4  12
ATOM     12  C   UNL     1       2.986   3.832  18.661  0.00  0.00    +0.000 A 
ATOM     13  C   UNL     1       1.644   3.586  18.338  0.00  0.00    +0.000 A 
ATOM     14  C   UNL     1       0.772   3.085  19.306  0.00  0.00    +0.000 A 
ATOM     15  C   UNL     1       1.248   2.776  20.578  0.00  0.00    +0.000 A 
ATOM     16  C   UNL     1       2.606   2.916  20.868  0.00  0.00    +0.000 A 
ATOM     17  C   UNL     1       3.483   3.428  19.907  0.00  0.00    +0.000 A 
ENDBRANCH   4  12
BRANCH   1  19
ATOM     18  O   UNL     1       7.405   5.416  15.192  0.00  0.00    +0.000 OA
ATOM     19  C   UNL     1       6.452   4.677  15.409  0.00  0.00    +0.000 C 
BRANCH  19  20
ATOM     20  O   UNL     1       6.274   3.491  14.758  0.00  0.00    +0.000 OA
ATOM     21  H   UNL     1       7.013   3.413  14.114  0.00  0.00    +0.000 HD
ENDBRANCH  19  20
ENDBRANCH   1  19
TORSDOF 4
ENDMDL
MODEL 3
REMARK VINA RESULT:      -8.2      0.912      1.016
REMARK  Name = 
REMARK  4 active torsions:
REMARK  status: ('A' for Active; 'I' for Inactive)
REMARK    1  A    between atoms: C_2  and  O_3
REMARK    2  A    between atoms: C_2  and  C_4
REMARK    3  A    between atoms: C_6  and  C_7
REMARK    4  A    between atoms: N_13  and  C_14
REMARK                            x       y       z     vdW  Elec       q    Type
REMARK                         _______ _______ _______ _____ _____    ______ ____
ROOT
ATOM      1  C   UNL     1       5.414   4.993  16.346  0.00  0.00    +0.000 A 
ATOM      2  C   UNL     1       4.803   6.231  16.609  0.00  0.00    +0.000 A 
ATOM      3  C   UNL     1       3.805   5.994  17.538  0.00  0.00    +0.000 A 
ATOM      4  N   UNL     1       3.838   4.611  17.762  0.00  0.00    +0.000 N 
ATOM      5  N   UNL     1       4.872   4.011  17.097  0.00  0.00    +0.000 NA
ENDROOT
BRANCH   3   6
ATOM      6  C   UNL     1       2.949   6.997  18.198  0.00  0.00    +0.000 A 
ATOM      7  C   UNL     1       2.592   6.829  19.544  0.00  0.00    +0.000 A 
ATOM      8  C   UNL     1       1.825   7.792  20.210  0.00  0.00    +0.000 A 
ATOM      9  C   UNL     1       1.431   8.951  19.547  0.00  0.00    +0.000 A 
ATOM     10  C   UNL     1       1.749   9.120  18.205  0.00  0.00    +0.000 A 
ATOM     11  C   UNL     1       2.455   8.125  17.526  0.00  0.00    +0.000 A 
ENDBRANCH   3   6
BRANCH   4  12
ATOM     12  C   UNL     1       3.008   3.827  18.615  0.00  0.00    +0.000 A 
ATOM     13  C   UNL     1       1.685   3.526  18.261  0.00  0.00    +0.000 A 
ATOM     14  C   UNL     1       0.805   3.014  19.215  0.00  0.00    +0.000 A 
ATOM     15  C   UNL     1       1.255   2.748  20.506  0.00  0.00    +0.000 A 
ATOM     16  C   UNL     1       2.599   2.942  20.830  0.00  0.00    +0.000 A 
ATOM     17  C   UNL     1       3.484   3.466  19.883  0.00  0.00    +0.000 A 
ENDBRANCH   4  12
BRANCH   1  19
ATOM     18  O   UNL     1       7.481   5.457  15.255  0.00  0.00    +0.000 OA
ATOM     19  C   UNL     1       6.511   4.725  15.417  0.00  0.00    +0.000 C 
BRANCH  19  20
ATOM     20  O   UNL     1       6.336   3.565  14.721  0.00  0.00    +0.000 OA
ATOM     21  H   UNL     1       5.831   3.802  13.910  0.00  0.00    +0.000 HD
ENDBRANCH  19  20
ENDBRANCH   1  19
TORSDOF 4
ENDMDL
MODEL 4
REMARK VINA RESULT:      -8.1      0.893      1.440
REMARK  Name = 
REMARK  4 active torsions:
REMARK  status: ('A' for Active; 'I' for Inactive)
REMARK    1  A    between atoms: C_2  and  O_3
REMARK    2  A    between atoms: C_2  and  C_4
REMARK    3  A    between atoms: C_6  and  C_7
REMARK    4  A    between atoms: N_13  and  C_14
REMARK                            x       y       z     vdW  Elec       q    Type
REMARK                         _______ _______ _______ _____ _____    ______ ____
ROOT
ATOM      1  C   UNL     1       5.281   5.620  17.352  0.00  0.00    +0.000 A 
ATOM      2  C   UNL     1       4.593   6.845  17.375  0.00  0.00    +0.000 A 
ATOM      3  C   UNL     1       3.468   6.657  18.159  0.00  0.00    +0.000 A 
ATOM      4  N   UNL     1       3.513   5.309  18.541  0.00  0.00    +0.000 N 
ATOM      5  N   UNL     1       4.661   4.696  18.116  0.00  0.00    +0.000 NA
ENDROOT
BRANCH   3   6
ATOM      6  C   UNL     1       2.484   7.679  18.561  0.00  0.00    +0.000 A 
ATOM      7  C   UNL     1       2.063   7.751  19.898  0.00  0.00    +0.000 A 
ATOM      8  C   UNL     1       1.172   8.744  20.317  0.00  0.00    +0.000 A 
ATOM      9  C   UNL     1       0.711   9.697  19.413  0.00  0.00    +0.000 A 
ATOM     10  C   UNL     1       1.092   9.622  18.079  0.00  0.00    +0.000 A 
ATOM     11  C   UNL     1       1.929   8.589  17.650  0.00  0.00    +0.000 A 
ENDBRANCH   3   6
BRANCH   4  12
ATOM     12  C   UNL     1       2.586   4.578  19.339  0.00  0.00    +0.000 A 
ATOM     13  C   UNL     1       2.757   4.466  20.727  0.00  0.00    +0.000 A 
ATOM     14  C   UNL     1       2.022   3.524  21.448  0.00  0.00    +0.000 A 
ATOM     15  C   UNL     1       1.076   2.734  20.799  0.00  0.00    +0.000 A 
ATOM     16  C   UNL     1       0.826   2.921  19.439  0.00  0.00    +0.000 A 
ATOM     17  C   UNL     1       1.567   3.854  18.707  0.00  0.00    +0.000 A 
ENDBRANCH   4  12
BRANCH   1  19
ATOM     18  O   UNL     1       7.281   6.151  16.172  0.00  0.00    +0.000 OA
ATOM     19  C   UNL     1       6.521   5.312  16.640  0.00  0.00    +0.000 C 
BRANCH  19  20
ATOM     20  O   UNL     1       6.741   3.970  16.529  0.00  0.00    +0.000 OA
ATOM     21  H   UNL     1       6.387   3.561  17.351  0.00  0.00    +0.000 HD
ENDBRANCH  19  20
ENDBRANCH   1  19
TORSDOF 4
ENDMDL
MODEL 5
REMARK VINA RESULT:      -8.0      0.338      1.556
REMARK  Name = 
REMARK  4 active torsions:
REMARK  status: ('A' for Active; 'I' for Inactive)
REMARK    1  A    between atoms: C_2  and  O_3
REMARK    2  A    between atoms: C_2  and  C_4
REMARK    3  A    between atoms: C_6  and  C_7
REMARK    4  A    between atoms: N_13  and  C_14
REMARK                            x       y       z     vdW  Elec       q    Type
REMARK                         _______ _______ _______ _____ _____    ______ ____
ROOT
ATOM      1  C   UNL     1       5.785   5.072  17.493  0.00  0.00    +0.000 A 
ATOM      2  C   UNL     1       5.207   6.353  17.527  0.00  0.00    +0.000 A 
ATOM      3  C   UNL     1       3.969   6.216  18.129  0.00  0.00    +0.000 A 
ATOM      4  N   UNL     1       3.843   4.846  18.395  0.00  0.00    +0.000 N 
ATOM      5  N   UNL     1       4.984   4.159  18.081  0.00  0.00    +0.000 NA
ENDROOT
BRANCH   3   6
ATOM      6  C   UNL     1       3.027   7.296  18.479  0.00  0.00    +0.000 A 
ATOM      7  C   UNL     1       2.737   8.297  17.540  0.00  0.00    +0.000 A 
ATOM      8  C   UNL     1       1.808   9.303  17.826  0.00  0.00    +0.000 A 
ATOM      9  C   UNL     1       1.133   9.305  19.044  0.00  0.00    +0.000 A 
ATOM     10  C   UNL     1       1.430   8.339  19.998  0.00  0.00    +0.000 A 
ATOM     11  C   UNL     1       2.407   7.377  19.734  0.00  0.00    +0.000 A 
ENDBRANCH   3   6
BRANCH   4  12
ATOM     12  C   UNL     1       2.752   4.151  18.992  0.00  0.00    +0.000 A 
ATOM     13  C   UNL     1       2.712   3.917  20.374  0.00  0.00    +0.000 A 
ATOM     14  C   UNL     1       1.802   3.000  20.903  0.00  0.00    +0.000 A 
ATOM     15  C   UNL     1       0.895   2.357  20.063  0.00  0.00    +0.000 A 
ATOM     16  C   UNL     1       0.859   2.671  18.704  0.00  0.00    +0.000 A 
ATOM     17  C   UNL     1       1.775   3.580  18.165  0.00  0.00    +0.000 A 
ENDBRANCH   4  12
BRANCH   1  19
ATOM     18  O   UNL     1       7.427   4.900  15.775  0.00  0.00    +0.000 OA
ATOM     19  C   UNL     1       7.084   4.700  16.934  0.00  0.00    +0.000 C 
BRANCH  19  20
ATOM     20  O   UNL     1       7.887   4.078  17.845  0.00  0.00    +0.000 OA
ATOM     21  H   UNL     1       8.412   4.787  18.282  0.00  0.00    +0.000 HD
ENDBRANCH  19  20
ENDBRANCH   1  19
TORSDOF 4
ENDMDL
MODEL 6
REMARK VINA RESULT:      -7.9      0.856      4.055
REMARK  Name = 
REMARK  4 active torsions:
REMARK  status: ('A' for Active; 'I' for Inactive)
REMARK    1  A    between atoms: C_2  and  O_3
REMARK    2  A    between atoms: C_2  and  C_4
REMARK    3  A    between atoms: C_6  and  C_7
REMARK    4  A    between atoms: N_13  and  C_14
REMARK                            x       y       z     vdW  Elec       q    Type
REMARK                         _______ _______ _______ _____ _____    ______ ____
ROOT
ATOM      1  C   UNL     1       5.824   5.337  17.324  0.00  0.00    +0.000 A 
ATOM      2  C   UNL     1       5.166   4.241  17.909  0.00  0.00    +0.000 A 
ATOM      3  C   UNL     1       3.956   4.712  18.387  0.00  0.00    +0.000 A 
ATOM      4  N   UNL     1       3.960   6.083  18.100  0.00  0.00    +0.000 N 
ATOM      5  N   UNL     1       5.064   6.451  17.380  0.00  0.00    +0.000 NA
ENDROOT
BRANCH   3   6
ATOM      6  C   UNL     1       2.872   3.918  18.996  0.00  0.00    +0.000 A 
ATOM      7  C   UNL     1       2.861   3.705  20.383  0.00  0.00    +0.000 A 
ATOM      8  C   UNL     1       1.818   3.002  20.994  0.00  0.00    +0.000 A 
ATOM      9  C   UNL     1       0.755   2.527  20.230  0.00  0.00    +0.000 A 
ATOM     10  C   UNL     1       0.765   2.701  18.852  0.00  0.00    +0.000 A 
ATOM     11  C   UNL     1       1.842   3.344  18.238  0.00  0.00    +0.000 A 
ENDBRANCH   3   6
BRANCH   4  12
ATOM     12  C   UNL     1       2.963   7.058  18.394  0.00  0.00    +0.000 A 
ATOM     13  C   UNL     1       2.643   8.066  17.473  0.00  0.00    +0.000 A 
ATOM     14  C   UNL     1       1.888   9.169  17.876  0.00  0.00    +0.000 A 
ATOM     15  C   UNL     1       1.403   9.240  19.180  0.00  0.00    +0.000 A 
ATOM     16  C   UNL     1       1.626   8.186  20.066  0.00  0.00    +0.000 A 
ATOM     17  C   UNL     1       2.392   7.084  19.673  0.00  0.00    +0.000 A 
ENDBRANCH   4  12
BRANCH   1  19
ATOM     18  O   UNL     1       7.568   6.243  15.977  0.00  0.00    +0.000 OA
ATOM     19  C   UNL     1       7.146   5.346  16.698  0.00  0.00    +0.000 C 
BRANCH  19  20
ATOM     20  O   UNL     1       7.869   4.226  16.985  0.00  0.00    +0.000 OA
ATOM     21  H   UNL     1       8.179   4.326  17.914  0.00  0.00    +0.000 HD
ENDBRANCH  19  20
ENDBRANCH   1  19
TORSDOF 4
ENDMDL
MODEL 7
REMARK VINA RESULT:      -7.8      0.932      1.825
REMARK  Name = 
REMARK  4 active torsions:
REMARK  status: ('A' for Active; 'I' for Inactive)
REMARK    1  A    between atoms: C_2  and  O_3
REMARK    2  A    between atoms: C_2  and  C_4
REMARK    3  A    between atoms: C_6  and  C_7
REMARK    4  A    between atoms: N_13  and  C_14
REMARK                            x       y       z     vdW  Elec       q    Type
REMARK                         _______ _______ _______ _____ _____    ______ ____
ROOT
ATOM      1  C   UNL     1       5.370   5.100  16.398  0.00  0.00    +0.000 A 
ATOM      2  C   UNL     1       4.816   6.365  16.655  0.00  0.00    +0.000 A 
ATOM      3  C   UNL     1       3.788   6.174  17.562  0.00  0.00    +0.000 A 
ATOM      4  N   UNL     1       3.747   4.790  17.778  0.00  0.00    +0.000 N 
ATOM      5  N   UNL     1       4.765   4.142  17.131  0.00  0.00    +0.000 NA
ENDROOT
BRANCH   3   6
ATOM      6  C   UNL     1       2.969   7.215  18.210  0.00  0.00    +0.000 A 
ATOM      7  C   UNL     1       2.598   8.358  17.487  0.00  0.00    +0.000 A 
ATOM      8  C   UNL     1       1.779   9.336  18.060  0.00  0.00    +0.000 A 
ATOM      9  C   UNL     1       1.293   9.171  19.354  0.00  0.00    +0.000 A 
ATOM     10  C   UNL     1       1.676   8.060  20.097  0.00  0.00    +0.000 A 
ATOM     11  C   UNL     1       2.549   7.120  19.545  0.00  0.00    +0.000 A 
ENDBRANCH   3   6
BRANCH   4  12
ATOM     12  C   UNL     1       2.863   4.043  18.610  0.00  0.00    +0.000 A 
ATOM     13  C   UNL     1       3.271   3.582  19.870  0.00  0.00    +0.000 A 
ATOM     14  C   UNL     1       2.513   2.622  20.542  0.00  0.00    +0.000 A 
ATOM     15  C   UNL     1       1.320   2.163  19.987  0.00  0.00    +0.000 A 
ATOM     16  C   UNL     1       0.856   2.702  18.786  0.00  0.00    +0.000 A 
ATOM     17  C   UNL     1       1.616   3.655  18.101  0.00  0.00    +0.000 A 
ENDBRANCH   4  12
BRANCH   1  19
ATOM     18  O   UNL     1       7.450   5.497  15.306  0.00  0.00    +0.000 OA
ATOM     19  C   UNL     1       6.472   4.782  15.490  0.00  0.00    +0.000 C 
BRANCH  19  20
ATOM     20  O   UNL     1       6.290   3.597  14.840  0.00  0.00    +0.000 OA
ATOM     21  H   UNL     1       7.095   3.453  14.294  0.00  0.00    +0.000 HD
ENDBRANCH  19  20
ENDBRANCH   1  19
TORSDOF 4
ENDMDL
MODEL 8
REMARK VINA RESULT:      -7.8      1.184      4.199
REMARK  Name = 
REMARK  4 active torsions:
REMARK  status: ('A' for Active; 'I' for Inactive)
REMARK    1  A    between atoms: C_2  and  O_3
REMARK    2  A    between atoms: C_2  and  C_4
REMARK    3  A    between atoms: C_6  and  C_7
REMARK    4  A    between atoms: N_13  and  C_14
REMARK                            x       y       z     vdW  Elec       q    Type
REMARK                         _______ _______ _______ _____ _____    ______ ____
ROOT
ATOM      1  C   UNL     1       5.394   4.811  16.247  0.00  0.00    +0.000 A 
ATOM      2  C   UNL     1       4.807   3.796  17.022  0.00  0.00    +0.000 A 
ATOM      3  C   UNL     1       3.895   4.411  17.862  0.00  0.00    +0.000 A 
ATOM      4  N   UNL     1       4.005   5.779  17.578  0.00  0.00    +0.000 N 
ATOM      5  N   UNL     1       4.861   6.017  16.536  0.00  0.00    +0.000 NA
ENDROOT
BRANCH   3   6
ATOM      6  C   UNL     1       2.962   3.753  18.794  0.00  0.00    +0.000 A 
ATOM      7  C   UNL     1       3.414   3.342  20.057  0.00  0.00    +0.000 A 
ATOM      8  C   UNL     1       2.538   2.764  20.981  0.00  0.00    +0.000 A 
ATOM      9  C   UNL     1       1.190   2.615  20.667  0.00  0.00    +0.000 A 
ATOM     10  C   UNL     1       0.730   2.987  19.410  0.00  0.00    +0.000 A 
ATOM     11  C   UNL     1       1.622   3.501  18.466  0.00  0.00    +0.000 A 
ENDBRANCH   3   6
BRANCH   4  12
ATOM     12  C   UNL     1       3.307   6.871  18.170  0.00  0.00    +0.000 A 
ATOM     13  C   UNL     1       2.817   6.791  19.482  0.00  0.00    +0.000 A 
ATOM     14  C   UNL     1       1.899   7.734  19.945  0.00  0.00    +0.000 A 
ATOM     15  C   UNL     1       1.512   8.790  19.122  0.00  0.00    +0.000 A 
ATOM     16  C   UNL     1       2.082   8.934  17.857  0.00  0.00    +0.000 A 
ATOM     17  C   UNL     1       2.993   7.986  17.381  0.00  0.00    +0.000 A 
ENDBRANCH   4  12
BRANCH   1  19
ATOM     18  O   UNL     1       7.357   5.444  15.056  0.00  0.00    +0.000 OA
ATOM     19  C   UNL     1       6.431   4.660  15.228  0.00  0.00    +0.000 C 
BRANCH  19  20
ATOM     20  O   UNL     1       6.251   3.549  14.458  0.00  0.00    +0.000 OA
ATOM     21  H   UNL     1       5.843   2.870  15.041  0.00  0.00    +0.000 HD
ENDBRANCH  19  20
ENDBRANCH   1  19
TORSDOF 4
ENDMDL
MODEL 9
REMARK VINA RESULT:      -7.8      0.987      4.234
REMARK  Name = 
REMARK  4 active torsions:
REMARK  status: ('A' for Active; 'I' for Inactive)
REMARK    1  A    between atoms: C_2  and  O_3
REMARK    2  A    between atoms: C_2  and  C_4
REMARK    3  A    between atoms: C_6  and  C_7
REMARK    4  A    between atoms: N_13  and  C_14
REMARK                            x       y       z     vdW  Elec       q    Type
REMARK                         _______ _______ _______ _____ _____    ______ ____
ROOT
ATOM      1  C   UNL     1       5.817   5.491  17.559  0.00  0.00    +0.000 A 
ATOM      2  C   UNL     1       5.211   4.447  18.279  0.00  0.00    +0.000 A 
ATOM      3  C   UNL     1       3.994   4.928  18.730  0.00  0.00    +0.000 A 
ATOM      4  N   UNL     1       3.943   6.257  18.291  0.00  0.00    +0.000 N 
ATOM      5  N   UNL     1       5.018   6.578  17.507  0.00  0.00    +0.000 NA
ENDROOT
BRANCH   3   6
ATOM      6  C   UNL     1       2.953   4.173  19.451  0.00  0.00    +0.000 A 
ATOM      7  C   UNL     1       1.861   3.646  18.744  0.00  0.00    +0.000 A 
ATOM      8  C   UNL     1       0.886   2.881  19.394  0.00  0.00    +0.000 A 
ATOM      9  C   UNL     1       1.005   2.606  20.753  0.00  0.00    +0.000 A 
ATOM     10  C   UNL     1       2.062   3.146  21.475  0.00  0.00    +0.000 A 
ATOM     11  C   UNL     1       2.996   3.965  20.837  0.00  0.00    +0.000 A 
ENDBRANCH   3   6
BRANCH   4  12
ATOM     12  C   UNL     1       2.917   7.225  18.496  0.00  0.00    +0.000 A 
ATOM     13  C   UNL     1       2.608   8.173  17.510  0.00  0.00    +0.000 A 
ATOM     14  C   UNL     1       1.819   9.279  17.825  0.00  0.00    +0.000 A 
ATOM     15  C   UNL     1       1.290   9.414  19.107  0.00  0.00    +0.000 A 
ATOM     16  C   UNL     1       1.504   8.416  20.059  0.00  0.00    +0.000 A 
ATOM     17  C   UNL     1       2.304   7.310  19.753  0.00  0.00    +0.000 A 
ENDBRANCH   4  12
BRANCH   1  19
ATOM     18  O   UNL     1       7.834   4.481  16.791  0.00  0.00    +0.000 OA
ATOM     19  C   UNL     1       7.124   5.473  16.904  0.00  0.00    +0.000 C 
BRANCH  19  20
ATOM     20  O   UNL     1       7.492   6.701  16.437  0.00  0.00    +0.000 OA
ATOM     21  H   UNL     1       7.221   7.352  17.124  0.00  0.00    +0.000 HD
ENDBRANCH  19  20
ENDBRANCH   1  19
TORSDOF 4
ENDMDL
