MODEL 1
REMARK VINA RESULT:      -7.1      0.000      0.000
REMARK  Name = 
REMARK  5 active torsions:
REMARK  status: ('A' for Active; 'I' for Inactive)
REMARK    1  A    between atoms: C_1  and  C_2
REMARK    2  A    between atoms: C_5  and  S_6
REMARK    3  A    between atoms: S_6  and  N_9
REMARK    4  A    between atoms: N_9  and  C_10
REMARK    5  A    between atoms: C_14  and  N_15
REMARK                            x       y       z     vdW  Elec       q    Type
REMARK                         _______ _______ _______ _____ _____    ______ ____
ROOT
ATOM      1  C   UNL     1       2.645   4.496  20.383  0.00  0.00    +0.000 C 
ATOM      2  C   UNL     1       3.612   4.515  19.231  0.00  0.00    +0.000 A 
ATOM      3  C   UNL     1       4.866   5.121  19.404  0.00  0.00    +0.000 A 
ATOM      4  C   UNL     1       5.791   5.168  18.357  0.00  0.00    +0.000 A 
ATOM      5  C   UNL     1       5.475   4.602  17.117  0.00  0.00    +0.000 A 
ATOM      6  C   UNL     1       4.243   3.983  16.912  0.00  0.00    +0.000 A 
ATOM      7  C   UNL     1       3.325   3.949  17.972  0.00  0.00    +0.000 A 
ENDROOT
BRANCH   5   8
ATOM      8  S   UNL     1       6.630   4.756  15.773  0.00  0.00    +0.000 S 
ATOM      9  O   UNL     1       6.356   6.020  15.122  0.00  0.00    +0.000 OA
ATOM     10  O   UNL     1       7.950   4.421  16.259  0.00  0.00    +0.000 OA
BRANCH   8  11
ATOM     11  N   UNL     1       6.112   3.546  14.713  0.00  0.00    +0.000 NA
ATOM     12  H   UNL     1       5.450   2.921  15.178  0.00  0.00    +0.000 HD
BRANCH  11  13
ATOM     13  C   UNL     1       5.796   3.953  13.345  0.00  0.00    +0.000 C 
ATOM     14  C   UNL     1       6.871   3.982  12.295  0.00  0.00    +0.000 C 
ATOM     15  C   UNL     1       5.765   2.969  12.213  0.00  0.00    +0.000 C 
ENDBRANCH  11  13
ENDBRANCH   8  11
ENDBRANCH   5   8
BRANCH   7  16
ATOM     16  N   UNL     1       2.042   3.305  17.726  0.00  0.00    +0.000 N 
ATOM     17  O   UNL     1       1.947   2.100  17.997  0.00  0.00    +0.000 OA
ATOM     18  O   UNL     1       1.136   4.019  17.276  0.00  0.00    +0.000 OA
ENDBRANCH   7  16
TORSDOF 4
ENDMDL
MODEL 2
REMARK VINA RESULT:      -7.0      2.594      5.894
REMARK  Name = 
REMARK  5 active torsions:
REMARK  status: ('A' for Active; 'I' for Inactive)
REMARK    1  A    between atoms: C_1  and  C_2
REMARK    2  A    between atoms: C_5  and  S_6
REMARK    3  A    between atoms: S_6  and  N_9
REMARK    4  A    between atoms: N_9  and  C_10
REMARK    5  A    between atoms: C_14  and  N_15
REMARK                            x       y       z     vdW  Elec       q    Type
REMARK                         _______ _______ _______ _____ _____    ______ ____
ROOT
ATOM      1  C   UNL     1       6.907   7.435  17.317  0.00  0.00    +0.000 C 
ATOM      2  C   UNL     1       5.809   6.408  17.350  0.00  0.00    +0.000 A 
ATOM      3  C   UNL     1       4.526   6.794  17.765  0.00  0.00    +0.000 A 
ATOM      4  C   UNL     1       3.480   5.868  17.818  0.00  0.00    +0.000 A 
ATOM      5  C   UNL     1       3.702   4.537  17.449  0.00  0.00    +0.000 A 
ATOM      6  C   UNL     1       4.961   4.120  17.022  0.00  0.00    +0.000 A 
ATOM      7  C   UNL     1       6.001   5.061  16.980  0.00  0.00    +0.000 A 
ENDROOT
BRANCH   5   8
ATOM      8  S   UNL     1       2.380   3.358  17.613  0.00  0.00    +0.000 S 
ATOM      9  O   UNL     1       1.140   4.102  17.546  0.00  0.00    +0.000 OA
ATOM     10  O   UNL     1       2.647   2.242  16.734  0.00  0.00    +0.000 OA
BRANCH   8  11
ATOM     11  N   UNL     1       2.550   2.848  19.216  0.00  0.00    +0.000 NA
ATOM     12  H   UNL     1       3.538   2.771  19.464  0.00  0.00    +0.000 HD
BRANCH  11  13
ATOM     13  C   UNL     1       1.660   3.457  20.203  0.00  0.00    +0.000 C 
ATOM     14  C   UNL     1       1.870   3.207  21.669  0.00  0.00    +0.000 C 
ATOM     15  C   UNL     1       2.114   4.574  21.096  0.00  0.00    +0.000 C 
ENDBRANCH  11  13
ENDBRANCH   8  11
ENDBRANCH   5   8
BRANCH   7  16
ATOM     16  N   UNL     1       7.309   4.594  16.539  0.00  0.00    +0.000 N 
ATOM     17  O   UNL     1       8.069   4.130  17.399  0.00  0.00    +0.000 OA
ATOM     18  O   UNL     1       7.555   4.684  15.329  0.00  0.00    +0.000 OA
ENDBRANCH   7  16
TORSDOF 4
ENDMDL
MODEL 3
REMARK VINA RESULT:      -7.0      2.972      6.002
REMARK  Name = 
REMARK  5 active torsions:
REMARK  status: ('A' for Active; 'I' for Inactive)
REMARK    1  A    between atoms: C_1  and  C_2
REMARK    2  A    between atoms: C_5  and  S_6
REMARK    3  A    between atoms: S_6  and  N_9
REMARK    4  A    between atoms: N_9  and  C_10
REMARK    5  A    between atoms: C_14  and  N_15
REMARK                            x       y       z     vdW  Elec       q    Type
REMARK                         _______ _______ _______ _____ _____    ______ ____
ROOT
ATOM      1  C   UNL     1       7.085   7.555  17.411  0.00  0.00    +0.000 C 
ATOM      2  C   UNL     1       5.974   6.545  17.505  0.00  0.00    +0.000 A 
ATOM      3  C   UNL     1       4.647   6.975  17.359  0.00  0.00    +0.000 A 
ATOM      4  C   UNL     1       3.585   6.070  17.448  0.00  0.00    +0.000 A 
ATOM      5  C   UNL     1       3.837   4.714  17.681  0.00  0.00    +0.000 A 
ATOM      6  C   UNL     1       5.144   4.249  17.822  0.00  0.00    +0.000 A 
ATOM      7  C   UNL     1       6.197   5.171  17.735  0.00  0.00    +0.000 A 
ENDROOT
BRANCH   5   8
ATOM      8  S   UNL     1       2.467   3.598  17.883  0.00  0.00    +0.000 S 
ATOM      9  O   UNL     1       1.375   4.120  17.088  0.00  0.00    +0.000 OA
ATOM     10  O   UNL     1       2.947   2.245  17.720  0.00  0.00    +0.000 OA
BRANCH   8  11
ATOM     11  N   UNL     1       2.043   3.839  19.501  0.00  0.00    +0.000 NA
ATOM     12  H   UNL     1       1.329   4.566  19.580  0.00  0.00    +0.000 HD
BRANCH  11  13
ATOM     13  C   UNL     1       1.872   2.644  20.327  0.00  0.00    +0.000 C 
ATOM     14  C   UNL     1       2.772   2.401  21.505  0.00  0.00    +0.000 C 
ATOM     15  C   UNL     1       1.318   2.716  21.719  0.00  0.00    +0.000 C 
ENDBRANCH  11  13
ENDBRANCH   8  11
ENDBRANCH   5   8
BRANCH   7  16
ATOM     16  N   UNL     1       7.551   4.658  17.895  0.00  0.00    +0.000 N 
ATOM     17  O   UNL     1       8.065   4.745  19.019  0.00  0.00    +0.000 OA
ATOM     18  O   UNL     1       8.082   4.159  16.894  0.00  0.00    +0.000 OA
ENDBRANCH   7  16
TORSDOF 4
ENDMDL
MODEL 4
REMARK VINA RESULT:      -7.0      2.640      5.974
REMARK  Name = 
REMARK  5 active torsions:
REMARK  status: ('A' for Active; 'I' for Inactive)
REMARK    1  A    between atoms: C_1  and  C_2
REMARK    2  A    between atoms: C_5  and  S_6
REMARK    3  A    between atoms: S_6  and  N_9
REMARK    4  A    between atoms: N_9  and  C_10
REMARK    5  A    between atoms: C_14  and  N_15
REMARK                            x       y       z     vdW  Elec       q    Type
REMARK                         _______ _______ _______ _____ _____    ______ ____
ROOT
ATOM      1  C   UNL     1       7.034   7.508  17.149  0.00  0.00    +0.000 C 
ATOM      2  C   UNL     1       5.898   6.528  17.266  0.00  0.00    +0.000 A 
ATOM      3  C   UNL     1       4.644   6.988  17.693  0.00  0.00    +0.000 A 
ATOM      4  C   UNL     1       3.564   6.109  17.824  0.00  0.00    +0.000 A 
ATOM      5  C   UNL     1       3.724   4.752  17.522  0.00  0.00    +0.000 A 
ATOM      6  C   UNL     1       4.954   4.262  17.086  0.00  0.00    +0.000 A 
ATOM      7  C   UNL     1       6.028   5.157  16.966  0.00  0.00    +0.000 A 
ENDROOT
BRANCH   5   8
ATOM      8  S   UNL     1       2.363   3.638  17.785  0.00  0.00    +0.000 S 
ATOM      9  O   UNL     1       1.235   4.167  17.047  0.00  0.00    +0.000 OA
ATOM     10  O   UNL     1       2.831   2.285  17.591  0.00  0.00    +0.000 OA
BRANCH   8  11
ATOM     11  N   UNL     1       2.018   3.870  19.423  0.00  0.00    +0.000 NA
ATOM     12  H   UNL     1       1.290   4.578  19.539  0.00  0.00    +0.000 HD
BRANCH  11  13
ATOM     13  C   UNL     1       1.924   2.673  20.257  0.00  0.00    +0.000 C 
ATOM     14  C   UNL     1       2.783   2.533  21.482  0.00  0.00    +0.000 C 
ATOM     15  C   UNL     1       1.298   2.705  21.620  0.00  0.00    +0.000 C 
ENDBRANCH  11  13
ENDBRANCH   8  11
ENDBRANCH   5   8
BRANCH   7  16
ATOM     16  N   UNL     1       7.303   4.615  16.517  0.00  0.00    +0.000 N 
ATOM     17  O   UNL     1       7.540   4.644  15.302  0.00  0.00    +0.000 OA
ATOM     18  O   UNL     1       8.063   4.178  17.392  0.00  0.00    +0.000 OA
ENDBRANCH   7  16
TORSDOF 4
ENDMDL
MODEL 5
REMARK VINA RESULT:      -6.9      2.516      5.837
REMARK  Name = 
REMARK  5 active torsions:
REMARK  status: ('A' for Active; 'I' for Inactive)
REMARK    1  A    between atoms: C_1  and  C_2
REMARK    2  A    between atoms: C_5  and  S_6
REMARK    3  A    between atoms: S_6  and  N_9
REMARK    4  A    between atoms: N_9  and  C_10
REMARK    5  A    between atoms: C_14  and  N_15
REMARK                            x       y       z     vdW  Elec       q    Type
REMARK                         _______ _______ _______ _____ _____    ______ ____
ROOT
ATOM      1  C   UNL     1       7.518   6.664  18.075  0.00  0.00    +0.000 C 
ATOM      2  C   UNL     1       6.438   5.617  18.041  0.00  0.00    +0.000 A 
ATOM      3  C   UNL     1       5.953   5.098  19.251  0.00  0.00    +0.000 A 
ATOM      4  C   UNL     1       4.956   4.118  19.263  0.00  0.00    +0.000 A 
ATOM      5  C   UNL     1       4.424   3.644  18.059  0.00  0.00    +0.000 A 
ATOM      6  C   UNL     1       4.875   4.144  16.839  0.00  0.00    +0.000 A 
ATOM      7  C   UNL     1       5.879   5.123  16.844  0.00  0.00    +0.000 A 
ENDROOT
BRANCH   5   8
ATOM      8  S   UNL     1       3.224   2.332  18.097  0.00  0.00    +0.000 S 
ATOM      9  O   UNL     1       2.029   2.832  17.452  0.00  0.00    +0.000 OA
ATOM     10  O   UNL     1       3.865   1.109  17.668  0.00  0.00    +0.000 OA
BRANCH   8  11
ATOM     11  N   UNL     1       2.870   2.216  19.746  0.00  0.00    +0.000 NA
ATOM     12  H   UNL     1       3.663   2.534  20.306  0.00  0.00    +0.000 HD
BRANCH  11  13
ATOM     13  C   UNL     1       1.538   2.647  20.169  0.00  0.00    +0.000 C 
ATOM     14  C   UNL     1       1.251   2.906  21.621  0.00  0.00    +0.000 C 
ATOM     15  C   UNL     1       1.272   4.045  20.643  0.00  0.00    +0.000 C 
ENDBRANCH  11  13
ENDBRANCH   8  11
ENDBRANCH   5   8
BRANCH   7  16
ATOM     16  N   UNL     1       6.337   5.620  15.554  0.00  0.00    +0.000 N 
ATOM     17  O   UNL     1       5.630   6.461  14.982  0.00  0.00    +0.000 OA
ATOM     18  O   UNL     1       7.411   5.171  15.132  0.00  0.00    +0.000 OA
ENDBRANCH   7  16
TORSDOF 4
ENDMDL
MODEL 6
REMARK VINA RESULT:      -6.9      2.097      2.407
REMARK  Name = 
REMARK  5 active torsions:
REMARK  status: ('A' for Active; 'I' for Inactive)
REMARK    1  A    between atoms: C_1  and  C_2
REMARK    2  A    between atoms: C_5  and  S_6
REMARK    3  A    between atoms: S_6  and  N_9
REMARK    4  A    between atoms: N_9  and  C_10
REMARK    5  A    between atoms: C_14  and  N_15
REMARK                            x       y       z     vdW  Elec       q    Type
REMARK                         _______ _______ _______ _____ _____    ______ ____
ROOT
ATOM      1  C   UNL     1       1.456   4.394  18.811  0.00  0.00    +0.000 C 
ATOM      2  C   UNL     1       2.916   4.666  18.573  0.00  0.00    +0.000 A 
ATOM      3  C   UNL     1       3.295   5.872  17.965  0.00  0.00    +0.000 A 
ATOM      4  C   UNL     1       4.641   6.159  17.718  0.00  0.00    +0.000 A 
ATOM      5  C   UNL     1       5.632   5.241  18.082  0.00  0.00    +0.000 A 
ATOM      6  C   UNL     1       5.293   4.038  18.697  0.00  0.00    +0.000 A 
ATOM      7  C   UNL     1       3.938   3.763  18.933  0.00  0.00    +0.000 A 
ENDROOT
BRANCH   5   8
ATOM      8  S   UNL     1       7.328   5.588  17.674  0.00  0.00    +0.000 S 
ATOM      9  O   UNL     1       7.659   6.860  18.281  0.00  0.00    +0.000 OA
ATOM     10  O   UNL     1       8.114   4.400  17.923  0.00  0.00    +0.000 OA
BRANCH   8  11
ATOM     11  N   UNL     1       7.250   5.855  16.007  0.00  0.00    +0.000 NA
ATOM     12  H   UNL     1       7.861   6.628  15.739  0.00  0.00    +0.000 HD
BRANCH  11  13
ATOM     13  C   UNL     1       7.252   4.673  15.145  0.00  0.00    +0.000 C 
ATOM     14  C   UNL     1       5.988   3.892  14.928  0.00  0.00    +0.000 C 
ATOM     15  C   UNL     1       6.592   4.676  13.798  0.00  0.00    +0.000 C 
ENDBRANCH  11  13
ENDBRANCH   8  11
ENDBRANCH   5   8
BRANCH   7  16
ATOM     16  N   UNL     1       3.612   2.493  19.568  0.00  0.00    +0.000 N 
ATOM     17  O   UNL     1       3.545   2.474  20.804  0.00  0.00    +0.000 OA
ATOM     18  O   UNL     1       3.413   1.528  18.818  0.00  0.00    +0.000 OA
ENDBRANCH   7  16
TORSDOF 4
ENDMDL
MODEL 7
REMARK VINA RESULT:      -6.8      2.742      3.560
REMARK  Name = 
REMARK  5 active torsions:
REMARK  status: ('A' for Active; 'I' for Inactive)
REMARK    1  A    between atoms: C_1  and  C_2
REMARK    2  A    between atoms: C_5  and  S_6
REMARK    3  A    between atoms: S_6  and  N_9
REMARK    4  A    between atoms: N_9  and  C_10
REMARK    5  A    between atoms: C_14  and  N_15
REMARK                            x       y       z     vdW  Elec       q    Type
REMARK                         _______ _______ _______ _____ _____    ______ ____
ROOT
ATOM      1  C   UNL     1       1.632   4.554  20.184  0.00  0.00    +0.000 C 
ATOM      2  C   UNL     1       2.632   4.809  19.090  0.00  0.00    +0.000 A 
ATOM      3  C   UNL     1       2.673   6.074  18.484  0.00  0.00    +0.000 A 
ATOM      4  C   UNL     1       3.582   6.349  17.459  0.00  0.00    +0.000 A 
ATOM      5  C   UNL     1       4.471   5.360  17.025  0.00  0.00    +0.000 A 
ATOM      6  C   UNL     1       4.466   4.095  17.610  0.00  0.00    +0.000 A 
ATOM      7  C   UNL     1       3.544   3.834  18.635  0.00  0.00    +0.000 A 
ENDROOT
BRANCH   5   8
ATOM      8  S   UNL     1       5.554   5.705  15.657  0.00  0.00    +0.000 S 
ATOM      9  O   UNL     1       5.719   4.466  14.925  0.00  0.00    +0.000 OA
ATOM     10  O   UNL     1       5.107   6.917  15.009  0.00  0.00    +0.000 OA
BRANCH   8  11
ATOM     11  N   UNL     1       7.026   6.007  16.430  0.00  0.00    +0.000 NA
ATOM     12  H   UNL     1       7.773   6.131  15.744  0.00  0.00    +0.000 HD
BRANCH  11  13
ATOM     13  C   UNL     1       7.002   6.930  17.564  0.00  0.00    +0.000 C 
ATOM     14  C   UNL     1       8.127   6.937  18.560  0.00  0.00    +0.000 C 
ATOM     15  C   UNL     1       7.925   8.110  17.643  0.00  0.00    +0.000 C 
ENDBRANCH  11  13
ENDBRANCH   8  11
ENDBRANCH   5   8
BRANCH   7  16
ATOM     16  N   UNL     1       3.554   2.500  19.221  0.00  0.00    +0.000 N 
ATOM     17  O   UNL     1       2.766   1.666  18.756  0.00  0.00    +0.000 OA
ATOM     18  O   UNL     1       4.366   2.298  20.134  0.00  0.00    +0.000 OA
ENDBRANCH   7  16
TORSDOF 4
ENDMDL
MODEL 8
REMARK VINA RESULT:      -6.7      1.596      1.928
REMARK  Name = 
REMARK  5 active torsions:
REMARK  status: ('A' for Active; 'I' for Inactive)
REMARK    1  A    between atoms: C_1  and  C_2
REMARK    2  A    between atoms: C_5  and  S_6
REMARK    3  A    between atoms: S_6  and  N_9
REMARK    4  A    between atoms: N_9  and  C_10
REMARK    5  A    between atoms: C_14  and  N_15
REMARK                            x       y       z     vdW  Elec       q    Type
REMARK                         _______ _______ _______ _____ _____    ______ ____
ROOT
ATOM      1  C   UNL     1       1.788   4.454  19.866  0.00  0.00    +0.000 C 
ATOM      2  C   UNL     1       3.028   4.726  19.059  0.00  0.00    +0.000 A 
ATOM      3  C   UNL     1       3.219   6.003  18.512  0.00  0.00    +0.000 A 
ATOM      4  C   UNL     1       4.353   6.295  17.749  0.00  0.00    +0.000 A 
ATOM      5  C   UNL     1       5.320   5.310  17.525  0.00  0.00    +0.000 A 
ATOM      6  C   UNL     1       5.169   4.032  18.061  0.00  0.00    +0.000 A 
ATOM      7  C   UNL     1       4.022   3.755  18.821  0.00  0.00    +0.000 A 
ENDROOT
BRANCH   5   8
ATOM      8  S   UNL     1       6.708   5.677  16.475  0.00  0.00    +0.000 S 
ATOM      9  O   UNL     1       6.962   7.098  16.591  0.00  0.00    +0.000 OA
ATOM     10  O   UNL     1       7.742   4.697  16.717  0.00  0.00    +0.000 OA
BRANCH   8  11
ATOM     11  N   UNL     1       6.066   5.428  14.931  0.00  0.00    +0.000 NA
ATOM     12  H   UNL     1       6.044   6.304  14.407  0.00  0.00    +0.000 HD
BRANCH  11  13
ATOM     13  C   UNL     1       6.509   4.232  14.214  0.00  0.00    +0.000 C 
ATOM     14  C   UNL     1       5.696   3.687  13.075  0.00  0.00    +0.000 C 
ATOM     15  C   UNL     1       7.042   4.302  12.814  0.00  0.00    +0.000 C 
ENDBRANCH  11  13
ENDBRANCH   8  11
ENDBRANCH   5   8
BRANCH   7  16
ATOM     16  N   UNL     1       3.886   2.409  19.360  0.00  0.00    +0.000 N 
ATOM     17  O   UNL     1       3.304   1.569  18.660  0.00  0.00    +0.000 OA
ATOM     18  O   UNL     1       4.379   2.202  20.477  0.00  0.00    +0.000 OA
ENDBRANCH   7  16
TORSDOF 4
ENDMDL
MODEL 9
REMARK VINA RESULT:      -6.6      1.108      1.348
REMARK  Name = 
REMARK  5 active torsions:
REMARK  status: ('A' for Active; 'I' for Inactive)
REMARK    1  A    between atoms: C_1  and  C_2
REMARK    2  A    between atoms: C_5  and  S_6
REMARK    3  A    between atoms: S_6  and  N_9
REMARK    4  A    between atoms: N_9  and  C_10
REMARK    5  A    between atoms: C_14  and  N_15
REMARK                            x       y       z     vdW  Elec       q    Type
REMARK                         _______ _______ _______ _____ _____    ______ ____
ROOT
ATOM      1  C   UNL     1       1.872   5.284  19.301  0.00  0.00    +0.000 C 
ATOM      2  C   UNL     1       3.109   5.094  18.467  0.00  0.00    +0.000 A 
ATOM      3  C   UNL     1       3.741   6.220  17.919  0.00  0.00    +0.000 A 
ATOM      4  C   UNL     1       4.889   6.086  17.132  0.00  0.00    +0.000 A 
ATOM      5  C   UNL     1       5.426   4.819  16.885  0.00  0.00    +0.000 A 
ATOM      6  C   UNL     1       4.831   3.679  17.421  0.00  0.00    +0.000 A 
ATOM      7  C   UNL     1       3.677   3.830  18.205  0.00  0.00    +0.000 A 
ENDROOT
BRANCH   5   8
ATOM      8  S   UNL     1       6.831   4.666  15.805  0.00  0.00    +0.000 S 
ATOM      9  O   UNL     1       6.938   5.909  15.070  0.00  0.00    +0.000 OA
ATOM     10  O   UNL     1       7.941   4.135  16.564  0.00  0.00    +0.000 OA
BRANCH   8  11
ATOM     11  N   UNL     1       6.312   3.497  14.701  0.00  0.00    +0.000 NA
ATOM     12  H   UNL     1       5.690   2.826  15.156  0.00  0.00    +0.000 HD
BRANCH  11  13
ATOM     13  C   UNL     1       5.928   3.966  13.370  0.00  0.00    +0.000 C 
ATOM     14  C   UNL     1       6.879   3.828  12.215  0.00  0.00    +0.000 C 
ATOM     15  C   UNL     1       5.618   3.012  12.254  0.00  0.00    +0.000 C 
ENDBRANCH  11  13
ENDBRANCH   8  11
ENDBRANCH   5   8
BRANCH   7  16
ATOM     16  N   UNL     1       3.070   2.621  18.744  0.00  0.00    +0.000 N 
ATOM     17  O   UNL     1       2.231   2.041  18.042  0.00  0.00    +0.000 OA
ATOM     18  O   UNL     1       3.454   2.255  19.863  0.00  0.00    +0.000 OA
ENDBRANCH   7  16
TORSDOF 4
ENDMDL
