MODEL 1
REMARK VINA RESULT:      -8.6      0.000      0.000
REMARK  Name = 
REMARK  4 active torsions:
REMARK  status: ('A' for Active; 'I' for Inactive)
REMARK    1  A    between atoms: C_1  and  O_2
REMARK    2  A    between atoms: O_2  and  C_3
REMARK    3  A    between atoms: C_7  and  N_8
REMARK    4  A    between atoms: C_16  and  C_17
REMARK                            x       y       z     vdW  Elec       q    Type
REMARK                         _______ _______ _______ _____ _____    ______ ____
ROOT
ATOM      1  N   UNL     1       1.168   9.713  17.774  0.00  0.00    +0.000 N 
ATOM      2  C   UNL     1       1.851   8.680  18.383  0.00  0.00    +0.000 C 
ATOM      3  O   UNL     1       1.783   8.432  19.583  0.00  0.00    +0.000 OA
ATOM      4  N   UNL     1       2.656   7.992  17.497  0.00  0.00    +0.000 N 
ATOM      5  C   UNL     1       3.508   6.976  17.945  0.00  0.00    +0.000 A 
ATOM      6  C   UNL     1       3.102   6.052  18.901  0.00  0.00    +0.000 A 
ATOM      7  C   UNL     1       4.032   5.151  19.398  0.00  0.00    +0.000 A 
ATOM      8  C   UNL     1       5.340   5.207  18.932  0.00  0.00    +0.000 A 
ATOM      9  C   UNL     1       5.673   6.137  17.951  0.00  0.00    +0.000 A 
ATOM     10  N   UNL     1       4.752   6.994  17.421  0.00  0.00    +0.000 NA
ATOM     11  H   UNL     1       1.486   9.991  16.860  0.00  0.00    +0.000 HD
ATOM     12  H   UNL     1       3.055   8.513  16.732  0.00  0.00    +0.000 HD
ENDROOT
BRANCH   1  17
ATOM     13  C   UNL     1      -3.830  10.851  17.866  0.00  0.00    +0.000 A 
ATOM     14  C   UNL     1      -3.078  10.007  17.060  0.00  0.00    +0.000 A 
ATOM     15  C   UNL     1      -1.703   9.907  17.256  0.00  0.00    +0.000 A 
ATOM     16  C   UNL     1      -1.049  10.654  18.265  0.00  0.00    +0.000 A 
ATOM     17  C   UNL     1       0.346  10.624  18.491  0.00  0.00    +0.000 A 
ATOM     18  C   UNL     1       0.907  11.481  19.433  0.00  0.00    +0.000 A 
ATOM     19  C   UNL     1       0.071  12.315  20.144  0.00  0.00    +0.000 A 
ATOM     20  N   UNL     1      -1.267  12.343  19.983  0.00  0.00    +0.000 NA
ATOM     21  C   UNL     1      -1.813  11.541  19.054  0.00  0.00    +0.000 A 
ATOM     22  C   UNL     1      -3.185  11.607  18.848  0.00  0.00    +0.000 A 
BRANCH  13  24
ATOM     23  C   UNL     1      -5.619  12.218  17.116  0.00  0.00    +0.000 C 
ATOM     24  O   UNL     1      -5.181  11.038  17.779  0.00  0.00    +0.000 OA
ENDBRANCH  13  24
ENDBRANCH   1  17
BRANCH   9  25
ATOM     25  C   UNL     1       7.123   6.253  17.494  0.00  0.00    +0.000 C 
ATOM     26  F   UNL     1       8.018   5.800  18.424  0.00  0.00    +0.000 F 
ATOM     27  F   UNL     1       7.389   5.547  16.359  0.00  0.00    +0.000 F 
ATOM     28  F   UNL     1       7.496   7.540  17.235  0.00  0.00    +0.000 F 
ENDBRANCH   9  25
TORSDOF 3
ENDMDL
MODEL 2
REMARK VINA RESULT:      -8.2      2.781      3.194
REMARK  Name = 
REMARK  4 active torsions:
REMARK  status: ('A' for Active; 'I' for Inactive)
REMARK    1  A    between atoms: C_1  and  O_2
REMARK    2  A    between atoms: O_2  and  C_3
REMARK    3  A    between atoms: C_7  and  N_8
REMARK    4  A    between atoms: C_16  and  C_17
REMARK                            x       y       z     vdW  Elec       q    Type
REMARK                         _______ _______ _______ _____ _____    ______ ____
ROOT
ATOM      1  N   UNL     1       1.153   9.439  19.522  0.00  0.00    +0.000 N 
ATOM      2  C   UNL     1       1.866   8.576  18.715  0.00  0.00    +0.000 C 
ATOM      3  O   UNL     1       2.134   8.807  17.540  0.00  0.00    +0.000 OA
ATOM      4  N   UNL     1       2.198   7.405  19.367  0.00  0.00    +0.000 N 
ATOM      5  C   UNL     1       2.832   6.361  18.683  0.00  0.00    +0.000 A 
ATOM      6  C   UNL     1       3.850   6.600  17.767  0.00  0.00    +0.000 A 
ATOM      7  C   UNL     1       4.348   5.537  17.028  0.00  0.00    +0.000 A 
ATOM      8  C   UNL     1       3.807   4.271  17.220  0.00  0.00    +0.000 A 
ATOM      9  C   UNL     1       2.810   4.095  18.175  0.00  0.00    +0.000 A 
ATOM     10  N   UNL     1       2.350   5.127  18.942  0.00  0.00    +0.000 NA
ATOM     11  H   UNL     1       0.767   9.054  20.369  0.00  0.00    +0.000 HD
ATOM     12  H   UNL     1       1.559   7.068  20.069  0.00  0.00    +0.000 HD
ENDROOT
BRANCH   1  17
ATOM     13  C   UNL     1      -3.232  10.934  17.327  0.00  0.00    +0.000 A 
ATOM     14  C   UNL     1      -2.736   9.683  17.669  0.00  0.00    +0.000 A 
ATOM     15  C   UNL     1      -1.476   9.574  18.252  0.00  0.00    +0.000 A 
ATOM     16  C   UNL     1      -0.681  10.718  18.502  0.00  0.00    +0.000 A 
ATOM     17  C   UNL     1       0.618  10.670  19.055  0.00  0.00    +0.000 A 
ATOM     18  C   UNL     1       1.364  11.841  19.157  0.00  0.00    +0.000 A 
ATOM     19  C   UNL     1       0.792  13.024  18.739  0.00  0.00    +0.000 A 
ATOM     20  N   UNL     1      -0.457  13.113  18.243  0.00  0.00    +0.000 NA
ATOM     21  C   UNL     1      -1.173  11.983  18.113  0.00  0.00    +0.000 A 
ATOM     22  C   UNL     1      -2.440  12.065  17.551  0.00  0.00    +0.000 A 
BRANCH  13  24
ATOM     23  C   UNL     1      -5.396  11.883  17.549  0.00  0.00    +0.000 C 
ATOM     24  O   UNL     1      -4.448  11.179  16.754  0.00  0.00    +0.000 OA
ENDBRANCH  13  24
ENDBRANCH   1  17
BRANCH   9  25
ATOM     25  C   UNL     1       2.161   2.725  18.333  0.00  0.00    +0.000 C 
ATOM     26  F   UNL     1       0.795   2.769  18.290  0.00  0.00    +0.000 F 
ATOM     27  F   UNL     1       2.527   1.840  17.363  0.00  0.00    +0.000 F 
ATOM     28  F   UNL     1       2.463   2.128  19.522  0.00  0.00    +0.000 F 
ENDBRANCH   9  25
TORSDOF 3
ENDMDL
MODEL 3
REMARK VINA RESULT:      -8.0      2.224      3.639
REMARK  Name = 
REMARK  4 active torsions:
REMARK  status: ('A' for Active; 'I' for Inactive)
REMARK    1  A    between atoms: C_1  and  O_2
REMARK    2  A    between atoms: O_2  and  C_3
REMARK    3  A    between atoms: C_7  and  N_8
REMARK    4  A    between atoms: C_16  and  C_17
REMARK                            x       y       z     vdW  Elec       q    Type
REMARK                         _______ _______ _______ _____ _____    ______ ____
ROOT
ATOM      1  N   UNL     1       1.636   9.615  17.740  0.00  0.00    +0.000 N 
ATOM      2  C   UNL     1       2.192   8.515  18.362  0.00  0.00    +0.000 C 
ATOM      3  O   UNL     1       2.004   8.231  19.540  0.00  0.00    +0.000 OA
ATOM      4  N   UNL     1       3.022   7.803  17.518  0.00  0.00    +0.000 N 
ATOM      5  C   UNL     1       3.760   6.713  17.994  0.00  0.00    +0.000 A 
ATOM      6  C   UNL     1       3.212   5.788  18.875  0.00  0.00    +0.000 A 
ATOM      7  C   UNL     1       4.032   4.806  19.411  0.00  0.00    +0.000 A 
ATOM      8  C   UNL     1       5.376   4.785  19.058  0.00  0.00    +0.000 A 
ATOM      9  C   UNL     1       5.855   5.722  18.147  0.00  0.00    +0.000 A 
ATOM     10  N   UNL     1       5.043   6.661  17.577  0.00  0.00    +0.000 NA
ATOM     11  H   UNL     1       2.050   9.901  16.868  0.00  0.00    +0.000 HD
ATOM     12  H   UNL     1       3.520   8.320  16.811  0.00  0.00    +0.000 HD
ENDROOT
BRANCH   1  17
ATOM     13  C   UNL     1       1.995  14.584  18.948  0.00  0.00    +0.000 A 
ATOM     14  C   UNL     1       2.887  13.698  18.359  0.00  0.00    +0.000 A 
ATOM     15  C   UNL     1       2.516  12.370  18.164  0.00  0.00    +0.000 A 
ATOM     16  C   UNL     1       1.241  11.898  18.559  0.00  0.00    +0.000 A 
ATOM     17  C   UNL     1       0.819  10.557  18.422  0.00  0.00    +0.000 A 
ATOM     18  C   UNL     1      -0.411  10.167  18.944  0.00  0.00    +0.000 A 
ATOM     19  C   UNL     1      -1.198  11.121  19.555  0.00  0.00    +0.000 A 
ATOM     20  N   UNL     1      -0.845  12.417  19.669  0.00  0.00    +0.000 NA
ATOM     21  C   UNL     1       0.354  12.794  19.195  0.00  0.00    +0.000 A 
ATOM     22  C   UNL     1       0.743  14.117  19.359  0.00  0.00    +0.000 A 
BRANCH  13  24
ATOM     23  C   UNL     1       2.709  16.681  18.098  0.00  0.00    +0.000 C 
ATOM     24  O   UNL     1       2.232  15.908  19.193  0.00  0.00    +0.000 OA
ENDBRANCH  13  24
ENDBRANCH   1  17
BRANCH   9  25
ATOM     25  C   UNL     1       7.343   5.751  17.818  0.00  0.00    +0.000 C 
ATOM     26  F   UNL     1       8.116   6.182  18.861  0.00  0.00    +0.000 F 
ATOM     27  F   UNL     1       7.843   4.530  17.476  0.00  0.00    +0.000 F 
ATOM     28  F   UNL     1       7.642   6.586  16.781  0.00  0.00    +0.000 F 
ENDBRANCH   9  25
TORSDOF 3
ENDMDL
MODEL 4
REMARK VINA RESULT:      -8.0      3.338      4.145
REMARK  Name = 
REMARK  4 active torsions:
REMARK  status: ('A' for Active; 'I' for Inactive)
REMARK    1  A    between atoms: C_1  and  O_2
REMARK    2  A    between atoms: O_2  and  C_3
REMARK    3  A    between atoms: C_7  and  N_8
REMARK    4  A    between atoms: C_16  and  C_17
REMARK                            x       y       z     vdW  Elec       q    Type
REMARK                         _______ _______ _______ _____ _____    ______ ____
ROOT
ATOM      1  N   UNL     1       1.590   8.448  20.173  0.00  0.00    +0.000 N 
ATOM      2  C   UNL     1       2.200   7.682  19.201  0.00  0.00    +0.000 C 
ATOM      3  O   UNL     1       2.049   7.863  17.997  0.00  0.00    +0.000 OA
ATOM      4  N   UNL     1       2.957   6.660  19.740  0.00  0.00    +0.000 N 
ATOM      5  C   UNL     1       3.569   5.711  18.912  0.00  0.00    +0.000 A 
ATOM      6  C   UNL     1       4.191   6.073  17.723  0.00  0.00    +0.000 A 
ATOM      7  C   UNL     1       4.664   5.073  16.885  0.00  0.00    +0.000 A 
ATOM      8  C   UNL     1       4.493   3.745  17.257  0.00  0.00    +0.000 A 
ATOM      9  C   UNL     1       3.888   3.453  18.476  0.00  0.00    +0.000 A 
ATOM     10  N   UNL     1       3.465   4.431  19.329  0.00  0.00    +0.000 NA
ATOM     11  H   UNL     1       1.567   8.066  21.105  0.00  0.00    +0.000 HD
ATOM     12  H   UNL     1       2.644   6.261  20.611  0.00  0.00    +0.000 HD
ENDROOT
BRANCH   1  17
ATOM     13  C   UNL     1      -1.606  11.419  22.864  0.00  0.00    +0.000 A 
ATOM     14  C   UNL     1      -0.819  10.331  23.218  0.00  0.00    +0.000 A 
ATOM     15  C   UNL     1      -0.046   9.693  22.252  0.00  0.00    +0.000 A 
ATOM     16  C   UNL     1      -0.046  10.130  20.906  0.00  0.00    +0.000 A 
ATOM     17  C   UNL     1       0.687   9.503  19.872  0.00  0.00    +0.000 A 
ATOM     18  C   UNL     1       0.532   9.939  18.560  0.00  0.00    +0.000 A 
ATOM     19  C   UNL     1      -0.316  10.998  18.314  0.00  0.00    +0.000 A 
ATOM     20  N   UNL     1      -1.000  11.644  19.278  0.00  0.00    +0.000 NA
ATOM     21  C   UNL     1      -0.880  11.210  20.543  0.00  0.00    +0.000 A 
ATOM     22  C   UNL     1      -1.626  11.839  21.531  0.00  0.00    +0.000 A 
BRANCH  13  24
ATOM     23  C   UNL     1      -3.643  12.594  23.184  0.00  0.00    +0.000 C 
ATOM     24  O   UNL     1      -2.406  12.132  23.713  0.00  0.00    +0.000 OA
ENDBRANCH  13  24
ENDBRANCH   1  17
BRANCH   9  25
ATOM     25  C   UNL     1       3.629   1.998  18.851  0.00  0.00    +0.000 C 
ATOM     26  F   UNL     1       2.377   1.789  19.361  0.00  0.00    +0.000 F 
ATOM     27  F   UNL     1       3.739   1.142  17.796  0.00  0.00    +0.000 F 
ATOM     28  F   UNL     1       4.487   1.535  19.806  0.00  0.00    +0.000 F 
ENDBRANCH   9  25
TORSDOF 3
ENDMDL
MODEL 5
REMARK VINA RESULT:      -7.9      3.162      3.613
REMARK  Name = 
REMARK  4 active torsions:
REMARK  status: ('A' for Active; 'I' for Inactive)
REMARK    1  A    between atoms: C_1  and  O_2
REMARK    2  A    between atoms: O_2  and  C_3
REMARK    3  A    between atoms: C_7  and  N_8
REMARK    4  A    between atoms: C_16  and  C_17
REMARK                            x       y       z     vdW  Elec       q    Type
REMARK                         _______ _______ _______ _____ _____    ______ ____
ROOT
ATOM      1  N   UNL     1       1.085   9.489  20.166  0.00  0.00    +0.000 N 
ATOM      2  C   UNL     1       1.701   8.492  19.437  0.00  0.00    +0.000 C 
ATOM      3  O   UNL     1       1.977   8.590  18.246  0.00  0.00    +0.000 OA
ATOM      4  N   UNL     1       1.925   7.356  20.191  0.00  0.00    +0.000 N 
ATOM      5  C   UNL     1       2.445   6.198  19.602  0.00  0.00    +0.000 A 
ATOM      6  C   UNL     1       3.471   6.254  18.666  0.00  0.00    +0.000 A 
ATOM      7  C   UNL     1       3.855   5.085  18.023  0.00  0.00    +0.000 A 
ATOM      8  C   UNL     1       3.195   3.901  18.329  0.00  0.00    +0.000 A 
ATOM      9  C   UNL     1       2.196   3.909  19.298  0.00  0.00    +0.000 A 
ATOM     10  N   UNL     1       1.847   5.046  19.971  0.00  0.00    +0.000 NA
ATOM     11  H   UNL     1       0.673   9.220  21.045  0.00  0.00    +0.000 HD
ATOM     12  H   UNL     1       1.263   7.147  20.922  0.00  0.00    +0.000 HD
ENDROOT
BRANCH   1  17
ATOM     13  C   UNL     1      -2.894  11.056  17.339  0.00  0.00    +0.000 A 
ATOM     14  C   UNL     1      -2.500   9.801  17.785  0.00  0.00    +0.000 A 
ATOM     15  C   UNL     1      -1.337   9.669  18.539  0.00  0.00    +0.000 A 
ATOM     16  C   UNL     1      -0.540  10.793  18.862  0.00  0.00    +0.000 A 
ATOM     17  C   UNL     1       0.668  10.720  19.592  0.00  0.00    +0.000 A 
ATOM     18  C   UNL     1       1.438  11.867  19.761  0.00  0.00    +0.000 A 
ATOM     19  C   UNL     1       0.976  13.054  19.232  0.00  0.00    +0.000 A 
ATOM     20  N   UNL     1      -0.189  13.168  18.565  0.00  0.00    +0.000 NA
ATOM     21  C   UNL     1      -0.924  12.060  18.371  0.00  0.00    +0.000 A 
ATOM     22  C   UNL     1      -2.097  12.165  17.637  0.00  0.00    +0.000 A 
BRANCH  13  24
ATOM     23  C   UNL     1      -5.139  11.823  17.301  0.00  0.00    +0.000 C 
ATOM     24  O   UNL     1      -4.010  11.322  16.596  0.00  0.00    +0.000 OA
ENDBRANCH  13  24
ENDBRANCH   1  17
BRANCH   9  25
ATOM     25  C   UNL     1       1.418   2.629  19.579  0.00  0.00    +0.000 C 
ATOM     26  F   UNL     1       1.026   2.514  20.884  0.00  0.00    +0.000 F 
ATOM     27  F   UNL     1       0.274   2.521  18.845  0.00  0.00    +0.000 F 
ATOM     28  F   UNL     1       2.141   1.501  19.321  0.00  0.00    +0.000 F 
ENDBRANCH   9  25
TORSDOF 3
ENDMDL
MODEL 6
REMARK VINA RESULT:      -7.9      5.045      9.083
REMARK  Name = 
REMARK  4 active torsions:
REMARK  status: ('A' for Active; 'I' for Inactive)
REMARK    1  A    between atoms: C_1  and  O_2
REMARK    2  A    between atoms: O_2  and  C_3
REMARK    3  A    between atoms: C_7  and  N_8
REMARK    4  A    between atoms: C_16  and  C_17
REMARK                            x       y       z     vdW  Elec       q    Type
REMARK                         _______ _______ _______ _____ _____    ______ ____
ROOT
ATOM      1  N   UNL     1       2.511   7.284  18.859  0.00  0.00    +0.000 N 
ATOM      2  C   UNL     1       1.801   7.658  19.982  0.00  0.00    +0.000 C 
ATOM      3  O   UNL     1       1.308   6.861  20.773  0.00  0.00    +0.000 OA
ATOM      4  N   UNL     1       1.667   9.029  20.082  0.00  0.00    +0.000 N 
ATOM      5  C   UNL     1       0.890   9.599  21.097  0.00  0.00    +0.000 A 
ATOM      6  C   UNL     1       0.919   9.113  22.399  0.00  0.00    +0.000 A 
ATOM      7  C   UNL     1       0.031   9.636  23.328  0.00  0.00    +0.000 A 
ATOM      8  C   UNL     1      -0.863  10.620  22.925  0.00  0.00    +0.000 A 
ATOM      9  C   UNL     1      -0.820  11.084  21.614  0.00  0.00    +0.000 A 
ATOM     10  N   UNL     1       0.085  10.610  20.707  0.00  0.00    +0.000 NA
ATOM     11  H   UNL     1       2.644   7.987  18.150  0.00  0.00    +0.000 HD
ATOM     12  H   UNL     1       1.617   9.554  19.224  0.00  0.00    +0.000 HD
ENDROOT
BRANCH   1  17
ATOM     13  C   UNL     1       5.758   4.752  15.806  0.00  0.00    +0.000 A 
ATOM     14  C   UNL     1       5.565   6.105  16.048  0.00  0.00    +0.000 A 
ATOM     15  C   UNL     1       4.574   6.514  16.937  0.00  0.00    +0.000 A 
ATOM     16  C   UNL     1       3.750   5.575  17.601  0.00  0.00    +0.000 A 
ATOM     17  C   UNL     1       2.705   5.927  18.485  0.00  0.00    +0.000 A 
ATOM     18  C   UNL     1       1.878   4.934  19.000  0.00  0.00    +0.000 A 
ATOM     19  C   UNL     1       2.129   3.623  18.653  0.00  0.00    +0.000 A 
ATOM     20  N   UNL     1       3.139   3.246  17.845  0.00  0.00    +0.000 NA
ATOM     21  C   UNL     1       3.924   4.202  17.319  0.00  0.00    +0.000 A 
ATOM     22  C   UNL     1       4.932   3.821  16.443  0.00  0.00    +0.000 A 
BRANCH  13  24
ATOM     23  C   UNL     1       6.259   3.910  13.644  0.00  0.00    +0.000 C 
ATOM     24  O   UNL     1       6.693   4.219  14.963  0.00  0.00    +0.000 OA
ENDBRANCH  13  24
ENDBRANCH   1  17
BRANCH   9  25
ATOM     25  C   UNL     1      -1.850  12.106  21.148  0.00  0.00    +0.000 C 
ATOM     26  F   UNL     1      -2.933  12.195  21.979  0.00  0.00    +0.000 F 
ATOM     27  F   UNL     1      -1.353  13.372  21.063  0.00  0.00    +0.000 F 
ATOM     28  F   UNL     1      -2.365  11.818  19.918  0.00  0.00    +0.000 F 
ENDBRANCH   9  25
TORSDOF 3
ENDMDL
MODEL 7
REMARK VINA RESULT:      -7.8      4.115      4.791
REMARK  Name = 
REMARK  4 active torsions:
REMARK  status: ('A' for Active; 'I' for Inactive)
REMARK    1  A    between atoms: C_1  and  O_2
REMARK    2  A    between atoms: O_2  and  C_3
REMARK    3  A    between atoms: C_7  and  N_8
REMARK    4  A    between atoms: C_16  and  C_17
REMARK                            x       y       z     vdW  Elec       q    Type
REMARK                         _______ _______ _______ _____ _____    ______ ____
ROOT
ATOM      1  N   UNL     1       1.170   9.796  21.043  0.00  0.00    +0.000 N 
ATOM      2  C   UNL     1       1.479   8.839  20.099  0.00  0.00    +0.000 C 
ATOM      3  O   UNL     1       1.315   8.993  18.893  0.00  0.00    +0.000 OA
ATOM      4  N   UNL     1       1.946   7.672  20.672  0.00  0.00    +0.000 N 
ATOM      5  C   UNL     1       2.214   6.546  19.884  0.00  0.00    +0.000 A 
ATOM      6  C   UNL     1       2.841   6.653  18.648  0.00  0.00    +0.000 A 
ATOM      7  C   UNL     1       2.962   5.518  17.859  0.00  0.00    +0.000 A 
ATOM      8  C   UNL     1       2.444   4.316  18.325  0.00  0.00    +0.000 A 
ATOM      9  C   UNL     1       1.855   4.271  19.585  0.00  0.00    +0.000 A 
ATOM     10  N   UNL     1       1.777   5.373  20.388  0.00  0.00    +0.000 NA
ATOM     11  H   UNL     1       1.094   9.485  21.998  0.00  0.00    +0.000 HD
ATOM     12  H   UNL     1       1.585   7.424  21.579  0.00  0.00    +0.000 HD
ENDROOT
BRANCH   1  17
ATOM     13  C   UNL     1      -2.488  12.782  23.040  0.00  0.00    +0.000 A 
ATOM     14  C   UNL     1      -2.035  11.511  23.369  0.00  0.00    +0.000 A 
ATOM     15  C   UNL     1      -1.015  10.926  22.623  0.00  0.00    +0.000 A 
ATOM     16  C   UNL     1      -0.426  11.602  21.528  0.00  0.00    +0.000 A 
ATOM     17  C   UNL     1       0.586  11.049  20.711  0.00  0.00    +0.000 A 
ATOM     18  C   UNL     1       1.021  11.748  19.589  0.00  0.00    +0.000 A 
ATOM     19  C   UNL     1       0.466  12.983  19.328  0.00  0.00    +0.000 A 
ATOM     20  N   UNL     1      -0.472  13.558  20.105  0.00  0.00    +0.000 NA
ATOM     21  C   UNL     1      -0.919  12.877  21.173  0.00  0.00    +0.000 A 
ATOM     22  C   UNL     1      -1.925  13.443  21.945  0.00  0.00    +0.000 A 
BRANCH  13  24
ATOM     23  C   UNL     1      -4.370  12.695  24.484  0.00  0.00    +0.000 C 
ATOM     24  O   UNL     1      -3.477  13.467  23.689  0.00  0.00    +0.000 OA
ENDBRANCH  13  24
ENDBRANCH   1  17
BRANCH   9  25
ATOM     25  C   UNL     1       1.216   2.973  20.066  0.00  0.00    +0.000 C 
ATOM     26  F   UNL     1       2.048   1.893  19.958  0.00  0.00    +0.000 F 
ATOM     27  F   UNL     1       0.837   3.011  21.374  0.00  0.00    +0.000 F 
ATOM     28  F   UNL     1       0.099   2.637  19.358  0.00  0.00    +0.000 F 
ENDBRANCH   9  25
TORSDOF 3
ENDMDL
MODEL 8
REMARK VINA RESULT:      -7.7      3.135      4.494
REMARK  Name = 
REMARK  4 active torsions:
REMARK  status: ('A' for Active; 'I' for Inactive)
REMARK    1  A    between atoms: C_1  and  O_2
REMARK    2  A    between atoms: O_2  and  C_3
REMARK    3  A    between atoms: C_7  and  N_8
REMARK    4  A    between atoms: C_16  and  C_17
REMARK                            x       y       z     vdW  Elec       q    Type
REMARK                         _______ _______ _______ _____ _____    ______ ____
ROOT
ATOM      1  N   UNL     1       0.956   9.446  19.407  0.00  0.00    +0.000 N 
ATOM      2  C   UNL     1       1.754   8.688  18.574  0.00  0.00    +0.000 C 
ATOM      3  O   UNL     1       1.911   8.924  17.381  0.00  0.00    +0.000 OA
ATOM      4  N   UNL     1       2.312   7.606  19.228  0.00  0.00    +0.000 N 
ATOM      5  C   UNL     1       3.068   6.660  18.527  0.00  0.00    +0.000 A 
ATOM      6  C   UNL     1       3.977   7.034  17.545  0.00  0.00    +0.000 A 
ATOM      7  C   UNL     1       4.600   6.045  16.797  0.00  0.00    +0.000 A 
ATOM      8  C   UNL     1       4.287   4.715  17.048  0.00  0.00    +0.000 A 
ATOM      9  C   UNL     1       3.390   4.406  18.066  0.00  0.00    +0.000 A 
ATOM     10  N   UNL     1       2.811   5.372  18.840  0.00  0.00    +0.000 NA
ATOM     11  H   UNL     1       0.689   9.029  20.284  0.00  0.00    +0.000 HD
ATOM     12  H   UNL     1       1.778   7.190  19.975  0.00  0.00    +0.000 HD
ENDROOT
BRANCH   1  17
ATOM     13  C   UNL     1       1.507  14.542  19.499  0.00  0.00    +0.000 A 
ATOM     14  C   UNL     1       2.249  13.511  20.059  0.00  0.00    +0.000 A 
ATOM     15  C   UNL     1       1.844  12.191  19.880  0.00  0.00    +0.000 A 
ATOM     16  C   UNL     1       0.683  11.874  19.136  0.00  0.00    +0.000 A 
ATOM     17  C   UNL     1       0.200  10.559  18.950  0.00  0.00    +0.000 A 
ATOM     18  C   UNL     1      -1.014  10.359  18.298  0.00  0.00    +0.000 A 
ATOM     19  C   UNL     1      -1.695  11.461  17.825  0.00  0.00    +0.000 A 
ATOM     20  N   UNL     1      -1.247  12.725  17.950  0.00  0.00    +0.000 NA
ATOM     21  C   UNL     1      -0.091  12.929  18.604  0.00  0.00    +0.000 A 
ATOM     22  C   UNL     1       0.346  14.235  18.783  0.00  0.00    +0.000 A 
BRANCH  13  24
ATOM     23  C   UNL     1       2.013  16.571  18.375  0.00  0.00    +0.000 C 
ATOM     24  O   UNL     1       1.795  15.875  19.597  0.00  0.00    +0.000 OA
ENDBRANCH  13  24
ENDBRANCH   1  17
BRANCH   9  25
ATOM     25  C   UNL     1       2.986   2.954  18.291  0.00  0.00    +0.000 C 
ATOM     26  F   UNL     1       2.547   2.336  17.153  0.00  0.00    +0.000 F 
ATOM     27  F   UNL     1       4.004   2.177  18.757  0.00  0.00    +0.000 F 
ATOM     28  F   UNL     1       1.966   2.820  19.188  0.00  0.00    +0.000 F 
ENDBRANCH   9  25
TORSDOF 3
ENDMDL
MODEL 9
REMARK VINA RESULT:      -7.6      2.242      2.798
REMARK  Name = 
REMARK  4 active torsions:
REMARK  status: ('A' for Active; 'I' for Inactive)
REMARK    1  A    between atoms: C_1  and  O_2
REMARK    2  A    between atoms: O_2  and  C_3
REMARK    3  A    between atoms: C_7  and  N_8
REMARK    4  A    between atoms: C_16  and  C_17
REMARK                            x       y       z     vdW  Elec       q    Type
REMARK                         _______ _______ _______ _____ _____    ______ ____
ROOT
ATOM      1  N   UNL     1       1.492   9.030  19.553  0.00  0.00    +0.000 N 
ATOM      2  C   UNL     1       1.973   7.746  19.398  0.00  0.00    +0.000 C 
ATOM      3  O   UNL     1       1.909   6.884  20.268  0.00  0.00    +0.000 OA
ATOM      4  N   UNL     1       2.578   7.560  18.170  0.00  0.00    +0.000 N 
ATOM      5  C   UNL     1       3.220   6.354  17.865  0.00  0.00    +0.000 A 
ATOM      6  C   UNL     1       2.675   5.126  18.221  0.00  0.00    +0.000 A 
ATOM      7  C   UNL     1       3.421   3.976  18.006  0.00  0.00    +0.000 A 
ATOM      8  C   UNL     1       4.689   4.089  17.452  0.00  0.00    +0.000 A 
ATOM      9  C   UNL     1       5.164   5.347  17.089  0.00  0.00    +0.000 A 
ATOM     10  N   UNL     1       4.417   6.478  17.251  0.00  0.00    +0.000 NA
ATOM     11  H   UNL     1       1.820   9.720  18.897  0.00  0.00    +0.000 HD
ATOM     12  H   UNL     1       3.042   8.354  17.757  0.00  0.00    +0.000 HD
ENDROOT
BRANCH   1  17
ATOM     13  C   UNL     1      -2.058  12.508  20.811  0.00  0.00    +0.000 A 
ATOM     14  C   UNL     1      -1.464  12.173  19.602  0.00  0.00    +0.000 A 
ATOM     15  C   UNL     1      -0.494  11.175  19.560  0.00  0.00    +0.000 A 
ATOM     16  C   UNL     1      -0.095  10.490  20.732  0.00  0.00    +0.000 A 
ATOM     17  C   UNL     1       0.908   9.495  20.762  0.00  0.00    +0.000 A 
ATOM     18  C   UNL     1       1.309   8.960  21.983  0.00  0.00    +0.000 A 
ATOM     19  C   UNL     1       0.684   9.402  23.131  0.00  0.00    +0.000 A 
ATOM     20  N   UNL     1      -0.302  10.320  23.137  0.00  0.00    +0.000 NA
ATOM     21  C   UNL     1      -0.673  10.863  21.966  0.00  0.00    +0.000 A 
ATOM     22  C   UNL     1      -1.651  11.849  21.975  0.00  0.00    +0.000 A 
BRANCH  13  24
ATOM     23  C   UNL     1      -4.362  13.001  21.098  0.00  0.00    +0.000 C 
ATOM     24  O   UNL     1      -3.021  13.462  20.988  0.00  0.00    +0.000 OA
ENDBRANCH  13  24
ENDBRANCH   1  17
BRANCH   9  25
ATOM     25  C   UNL     1       6.584   5.483  16.554  0.00  0.00    +0.000 C 
ATOM     26  F   UNL     1       6.647   5.469  15.188  0.00  0.00    +0.000 F 
ATOM     27  F   UNL     1       7.195   6.641  16.934  0.00  0.00    +0.000 F 
ATOM     28  F   UNL     1       7.405   4.471  16.961  0.00  0.00    +0.000 F 
ENDBRANCH   9  25
TORSDOF 3
ENDMDL
