MODEL 1
REMARK VINA RESULT:      -7.0      0.000      0.000
REMARK  Name = 
REMARK  9 active torsions:
REMARK  status: ('A' for Active; 'I' for Inactive)
REMARK    1  A    between atoms: C_1  and  C_2
REMARK    2  A    between atoms: C_4  and  C_5
REMARK    3  A    between atoms: C_5  and  C_6
REMARK    4  A    between atoms: C_6  and  C_7
REMARK    5  A    between atoms: C_6  and  C_8
REMARK    6  A    between atoms: C_9  and  C_10
REMARK    7  A    between atoms: C_10  and  N_11
REMARK    8  A    between atoms: C_16  and  C_17
REMARK    9  A    between atoms: C_17  and  O_19
REMARK                            x       y       z     vdW  Elec       q    Type
REMARK                         _______ _______ _______ _____ _____    ______ ____
ROOT
ATOM      1  C   UNL     1       0.847   2.790  18.757  0.00  0.00    +0.000 C 
ATOM      2  C   UNL     1       2.034   3.688  18.615  0.00  0.00    +0.000 A 
ATOM      3  O   UNL     1       1.903   4.968  18.344  0.00  0.00    +0.000 OA
ATOM      4  C   UNL     1       3.096   5.514  18.230  0.00  0.00    +0.000 A 
ATOM      5  C   UNL     1       4.068   4.539  18.425  0.00  0.00    +0.000 A 
ATOM      6  C   UNL     1       3.382   3.361  18.729  0.00  0.00    +0.000 A 
ENDROOT
BRANCH   6   7
ATOM      7  C   UNL     1       4.011   2.046  19.086  0.00  0.00    +0.000 C 
ATOM      8  O   UNL     1       3.754   1.061  18.413  0.00  0.00    +0.000 OA
BRANCH   7   9
ATOM      9  O   UNL     1       4.899   1.895  20.091  0.00  0.00    +0.000 OA
ATOM     10  H   UNL     1       5.469   2.590  20.428  0.00  0.00    +0.000 HD
ENDBRANCH   7   9
ENDBRANCH   6   7
BRANCH   4  11
ATOM     11  C   UNL     1       3.274   6.985  17.954  0.00  0.00    +0.000 C 
BRANCH  11  12
ATOM     12  C   UNL     1       2.033   7.784  18.428  0.00  0.00    +0.000 C 
ATOM     13  C   UNL     1       1.961   7.863  19.963  0.00  0.00    +0.000 C 
ATOM     14  C   UNL     1       2.037   9.204  17.844  0.00  0.00    +0.000 C 
ENDBRANCH  11  12
ENDBRANCH   4  11
BRANCH   5  15
ATOM     15  C   UNL     1       5.565   4.669  18.275  0.00  0.00    +0.000 C 
BRANCH  15  16
ATOM     16  N   UNL     1       5.856   4.818  16.838  0.00  0.00    +0.000 NA
ATOM     17  C   UNL     1       7.256   4.766  16.433  0.00  0.00    +0.000 C 
ATOM     18  C   UNL     1       7.126   4.905  14.935  0.00  0.00    +0.000 C 
ATOM     19  C   UNL     1       6.019   3.904  14.637  0.00  0.00    +0.000 C 
ATOM     20  C   UNL     1       5.157   3.918  15.915  0.00  0.00    +0.000 C 
ENDBRANCH  15  16
ENDBRANCH   5  15
TORSDOF 6
ENDMDL
MODEL 2
REMARK VINA RESULT:      -6.9      1.340      1.922
REMARK  Name = 
REMARK  9 active torsions:
REMARK  status: ('A' for Active; 'I' for Inactive)
REMARK    1  A    between atoms: C_1  and  C_2
REMARK    2  A    between atoms: C_4  and  C_5
REMARK    3  A    between atoms: C_5  and  C_6
REMARK    4  A    between atoms: C_6  and  C_7
REMARK    5  A    between atoms: C_6  and  C_8
REMARK    6  A    between atoms: C_9  and  C_10
REMARK    7  A    between atoms: C_10  and  N_11
REMARK    8  A    between atoms: C_16  and  C_17
REMARK    9  A    between atoms: C_17  and  O_19
REMARK                            x       y       z     vdW  Elec       q    Type
REMARK                         _______ _______ _______ _____ _____    ______ ____
ROOT
ATOM      1  C   UNL     1       1.249   2.595  20.699  0.00  0.00    +0.000 C 
ATOM      2  C   UNL     1       1.947   3.453  19.694  0.00  0.00    +0.000 A 
ATOM      3  O   UNL     1       1.440   4.598  19.292  0.00  0.00    +0.000 OA
ATOM      4  C   UNL     1       2.227   5.129  18.379  0.00  0.00    +0.000 A 
ATOM      5  C   UNL     1       3.307   4.282  18.157  0.00  0.00    +0.000 A 
ATOM      6  C   UNL     1       3.157   3.218  19.049  0.00  0.00    +0.000 A 
ENDROOT
BRANCH   6   7
ATOM      7  C   UNL     1       4.120   2.080  19.227  0.00  0.00    +0.000 C 
ATOM      8  O   UNL     1       3.942   1.046  18.604  0.00  0.00    +0.000 OA
BRANCH   7   9
ATOM      9  O   UNL     1       5.218   2.151  20.009  0.00  0.00    +0.000 OA
ATOM     10  H   UNL     1       6.111   2.294  19.688  0.00  0.00    +0.000 HD
ENDBRANCH   7   9
ENDBRANCH   6   7
BRANCH   4  11
ATOM     11  C   UNL     1       1.928   6.465  17.750  0.00  0.00    +0.000 C 
BRANCH  11  12
ATOM     12  C   UNL     1       2.559   7.613  18.578  0.00  0.00    +0.000 C 
ATOM     13  C   UNL     1       2.334   8.982  17.913  0.00  0.00    +0.000 C 
ATOM     14  C   UNL     1       1.991   7.640  20.003  0.00  0.00    +0.000 C 
ENDBRANCH  11  12
ENDBRANCH   4  11
BRANCH   5  15
ATOM     15  C   UNL     1       4.400   4.413  17.122  0.00  0.00    +0.000 C 
BRANCH  15  16
ATOM     16  N   UNL     1       5.451   5.272  17.693  0.00  0.00    +0.000 NA
ATOM     17  C   UNL     1       6.746   4.656  17.957  0.00  0.00    +0.000 C 
ATOM     18  C   UNL     1       7.528   5.839  18.474  0.00  0.00    +0.000 C 
ATOM     19  C   UNL     1       7.180   6.901  17.441  0.00  0.00    +0.000 C 
ATOM     20  C   UNL     1       5.758   6.519  16.984  0.00  0.00    +0.000 C 
ENDBRANCH  15  16
ENDBRANCH   5  15
TORSDOF 6
ENDMDL
MODEL 3
REMARK VINA RESULT:      -6.9      1.376      1.901
REMARK  Name = 
REMARK  9 active torsions:
REMARK  status: ('A' for Active; 'I' for Inactive)
REMARK    1  A    between atoms: C_1  and  C_2
REMARK    2  A    between atoms: C_4  and  C_5
REMARK    3  A    between atoms: C_5  and  C_6
REMARK    4  A    between atoms: C_6  and  C_7
REMARK    5  A    between atoms: C_6  and  C_8
REMARK    6  A    between atoms: C_9  and  C_10
REMARK    7  A    between atoms: C_10  and  N_11
REMARK    8  A    between atoms: C_16  and  C_17
REMARK    9  A    between atoms: C_17  and  O_19
REMARK                            x       y       z     vdW  Elec       q    Type
REMARK                         _______ _______ _______ _____ _____    ______ ____
ROOT
ATOM      1  C   UNL     1       0.993   3.394  20.104  0.00  0.00    +0.000 C 
ATOM      2  C   UNL     1       1.989   4.195  19.328  0.00  0.00    +0.000 A 
ATOM      3  O   UNL     1       1.792   5.466  19.057  0.00  0.00    +0.000 OA
ATOM      4  C   UNL     1       2.793   5.918  18.330  0.00  0.00    +0.000 A 
ATOM      5  C   UNL     1       3.694   4.885  18.098  0.00  0.00    +0.000 A 
ATOM      6  C   UNL     1       3.202   3.776  18.791  0.00  0.00    +0.000 A 
ENDROOT
BRANCH   6   7
ATOM      7  C   UNL     1       3.873   2.438  18.894  0.00  0.00    +0.000 C 
ATOM      8  O   UNL     1       3.414   1.493  18.273  0.00  0.00    +0.000 OA
BRANCH   7   9
ATOM      9  O   UNL     1       5.001   2.224  19.604  0.00  0.00    +0.000 OA
ATOM     10  H   UNL     1       5.856   2.613  19.404  0.00  0.00    +0.000 HD
ENDBRANCH   7   9
ENDBRANCH   6   7
BRANCH   4  11
ATOM     11  C   UNL     1       2.870   7.357  17.889  0.00  0.00    +0.000 C 
BRANCH  11  12
ATOM     12  C   UNL     1       1.703   8.178  18.495  0.00  0.00    +0.000 C 
ATOM     13  C   UNL     1       1.808   8.268  20.027  0.00  0.00    +0.000 C 
ATOM     14  C   UNL     1       1.660   9.593  17.903  0.00  0.00    +0.000 C 
ENDBRANCH  11  12
ENDBRANCH   4  11
BRANCH   5  15
ATOM     15  C   UNL     1       4.925   4.897  17.223  0.00  0.00    +0.000 C 
BRANCH  15  16
ATOM     16  N   UNL     1       5.944   5.716  17.903  0.00  0.00    +0.000 NA
ATOM     17  C   UNL     1       7.182   5.050  18.293  0.00  0.00    +0.000 C 
ATOM     18  C   UNL     1       7.951   6.202  18.893  0.00  0.00    +0.000 C 
ATOM     19  C   UNL     1       7.750   7.278  17.836  0.00  0.00    +0.000 C 
ATOM     20  C   UNL     1       6.368   6.951  17.236  0.00  0.00    +0.000 C 
ENDBRANCH  15  16
ENDBRANCH   5  15
TORSDOF 6
ENDMDL
MODEL 4
REMARK VINA RESULT:      -6.9      1.266      2.033
REMARK  Name = 
REMARK  9 active torsions:
REMARK  status: ('A' for Active; 'I' for Inactive)
REMARK    1  A    between atoms: C_1  and  C_2
REMARK    2  A    between atoms: C_4  and  C_5
REMARK    3  A    between atoms: C_5  and  C_6
REMARK    4  A    between atoms: C_6  and  C_7
REMARK    5  A    between atoms: C_6  and  C_8
REMARK    6  A    between atoms: C_9  and  C_10
REMARK    7  A    between atoms: C_10  and  N_11
REMARK    8  A    between atoms: C_16  and  C_17
REMARK    9  A    between atoms: C_17  and  O_19
REMARK                            x       y       z     vdW  Elec       q    Type
REMARK                         _______ _______ _______ _____ _____    ______ ____
ROOT
ATOM      1  C   UNL     1       1.815   2.635  21.571  0.00  0.00    +0.000 C 
ATOM      2  C   UNL     1       2.229   3.376  20.341  0.00  0.00    +0.000 A 
ATOM      3  O   UNL     1       1.643   4.496  19.980  0.00  0.00    +0.000 OA
ATOM      4  C   UNL     1       2.164   4.916  18.845  0.00  0.00    +0.000 A 
ATOM      5  C   UNL     1       3.139   4.017  18.428  0.00  0.00    +0.000 A 
ATOM      6  C   UNL     1       3.222   3.043  19.425  0.00  0.00    +0.000 A 
ENDROOT
BRANCH   6   7
ATOM      7  C   UNL     1       4.189   1.894  19.451  0.00  0.00    +0.000 C 
ATOM      8  O   UNL     1       5.039   1.852  20.326  0.00  0.00    +0.000 OA
BRANCH   7   9
ATOM      9  O   UNL     1       4.142   0.863  18.581  0.00  0.00    +0.000 OA
ATOM     10  H   UNL     1       4.740   0.112  18.589  0.00  0.00    +0.000 HD
ENDBRANCH   7   9
ENDBRANCH   6   7
BRANCH   4  11
ATOM     11  C   UNL     1       1.720   6.200  18.193  0.00  0.00    +0.000 C 
BRANCH  11  12
ATOM     12  C   UNL     1       2.488   7.409  18.786  0.00  0.00    +0.000 C 
ATOM     13  C   UNL     1       2.501   8.603  17.816  0.00  0.00    +0.000 C 
ATOM     14  C   UNL     1       1.877   7.846  20.124  0.00  0.00    +0.000 C 
ENDBRANCH  11  12
ENDBRANCH   4  11
BRANCH   5  15
ATOM     15  C   UNL     1       3.919   4.018  17.134  0.00  0.00    +0.000 C 
BRANCH  15  16
ATOM     16  N   UNL     1       5.321   4.331  17.462  0.00  0.00    +0.000 NA
ATOM     17  C   UNL     1       6.308   4.155  16.403  0.00  0.00    +0.000 C 
ATOM     18  C   UNL     1       7.565   4.611  17.103  0.00  0.00    +0.000 C 
ATOM     19  C   UNL     1       7.094   5.906  17.749  0.00  0.00    +0.000 C 
ATOM     20  C   UNL     1       5.599   5.656  18.027  0.00  0.00    +0.000 C 
ENDBRANCH  15  16
ENDBRANCH   5  15
TORSDOF 6
ENDMDL
MODEL 5
REMARK VINA RESULT:      -6.9      2.419      4.556
REMARK  Name = 
REMARK  9 active torsions:
REMARK  status: ('A' for Active; 'I' for Inactive)
REMARK    1  A    between atoms: C_1  and  C_2
REMARK    2  A    between atoms: C_4  and  C_5
REMARK    3  A    between atoms: C_5  and  C_6
REMARK    4  A    between atoms: C_6  and  C_7
REMARK    5  A    between atoms: C_6  and  C_8
REMARK    6  A    between atoms: C_9  and  C_10
REMARK    7  A    between atoms: C_10  and  N_11
REMARK    8  A    between atoms: C_16  and  C_17
REMARK    9  A    between atoms: C_17  and  O_19
REMARK                            x       y       z     vdW  Elec       q    Type
REMARK                         _______ _______ _______ _____ _____    ______ ____
ROOT
ATOM      1  C   UNL     1       7.585   7.830  17.452  0.00  0.00    +0.000 C 
ATOM      2  C   UNL     1       6.347   6.995  17.385  0.00  0.00    +0.000 A 
ATOM      3  O   UNL     1       5.150   7.524  17.515  0.00  0.00    +0.000 OA
ATOM      4  C   UNL     1       4.243   6.570  17.460  0.00  0.00    +0.000 A 
ATOM      5  C   UNL     1       4.877   5.343  17.298  0.00  0.00    +0.000 A 
ATOM      6  C   UNL     1       6.242   5.621  17.194  0.00  0.00    +0.000 A 
ENDROOT
BRANCH   6   7
ATOM      7  C   UNL     1       7.325   4.613  16.940  0.00  0.00    +0.000 C 
ATOM      8  O   UNL     1       7.638   4.353  15.789  0.00  0.00    +0.000 OA
BRANCH   7   9
ATOM      9  O   UNL     1       8.020   4.005  17.924  0.00  0.00    +0.000 OA
ATOM     10  H   UNL     1       8.792   3.451  17.787  0.00  0.00    +0.000 HD
ENDBRANCH   7   9
ENDBRANCH   6   7
BRANCH   4  11
ATOM     11  C   UNL     1       2.769   6.870  17.546  0.00  0.00    +0.000 C 
BRANCH  11  12
ATOM     12  C   UNL     1       2.506   8.053  18.511  0.00  0.00    +0.000 C 
ATOM     13  C   UNL     1       1.474   9.037  17.933  0.00  0.00    +0.000 C 
ATOM     14  C   UNL     1       2.022   7.551  19.878  0.00  0.00    +0.000 C 
ENDBRANCH  11  12
ENDBRANCH   4  11
BRANCH   5  15
ATOM     15  C   UNL     1       4.260   3.964  17.302  0.00  0.00    +0.000 C 
BRANCH  15  16
ATOM     16  N   UNL     1       3.386   3.874  18.484  0.00  0.00    +0.000 NA
ATOM     17  C   UNL     1       2.053   3.316  18.286  0.00  0.00    +0.000 C 
ATOM     18  C   UNL     1       1.514   3.351  19.696  0.00  0.00    +0.000 C 
ATOM     19  C   UNL     1       2.679   2.758  20.475  0.00  0.00    +0.000 C 
ATOM     20  C   UNL     1       3.919   3.180  19.661  0.00  0.00    +0.000 C 
ENDBRANCH  15  16
ENDBRANCH   5  15
TORSDOF 6
ENDMDL
MODEL 6
REMARK VINA RESULT:      -6.8      0.670      1.268
REMARK  Name = 
REMARK  9 active torsions:
REMARK  status: ('A' for Active; 'I' for Inactive)
REMARK    1  A    between atoms: C_1  and  C_2
REMARK    2  A    between atoms: C_4  and  C_5
REMARK    3  A    between atoms: C_5  and  C_6
REMARK    4  A    between atoms: C_6  and  C_7
REMARK    5  A    between atoms: C_6  and  C_8
REMARK    6  A    between atoms: C_9  and  C_10
REMARK    7  A    between atoms: C_10  and  N_11
REMARK    8  A    between atoms: C_16  and  C_17
REMARK    9  A    between atoms: C_17  and  O_19
REMARK                            x       y       z     vdW  Elec       q    Type
REMARK                         _______ _______ _______ _____ _____    ______ ____
ROOT
ATOM      1  C   UNL     1       1.006   2.837  19.578  0.00  0.00    +0.000 C 
ATOM      2  C   UNL     1       2.148   3.775  19.358  0.00  0.00    +0.000 A 
ATOM      3  O   UNL     1       1.959   5.066  19.190  0.00  0.00    +0.000 OA
ATOM      4  C   UNL     1       3.118   5.653  18.974  0.00  0.00    +0.000 A 
ATOM      5  C   UNL     1       4.127   4.696  18.989  0.00  0.00    +0.000 A 
ATOM      6  C   UNL     1       3.507   3.482  19.291  0.00  0.00    +0.000 A 
ENDROOT
BRANCH   6   7
ATOM      7  C   UNL     1       4.202   2.166  19.483  0.00  0.00    +0.000 C 
ATOM      8  O   UNL     1       4.885   1.994  20.480  0.00  0.00    +0.000 OA
BRANCH   7   9
ATOM      9  O   UNL     1       4.076   1.126  18.632  0.00  0.00    +0.000 OA
ATOM     10  H   UNL     1       4.546   1.039  17.800  0.00  0.00    +0.000 HD
ENDBRANCH   7   9
ENDBRANCH   6   7
BRANCH   4  11
ATOM     11  C   UNL     1       3.230   7.143  18.779  0.00  0.00    +0.000 C 
BRANCH  11  12
ATOM     12  C   UNL     1       1.842   7.819  18.913  0.00  0.00    +0.000 C 
ATOM     13  C   UNL     1       1.588   8.314  20.347  0.00  0.00    +0.000 C 
ATOM     14  C   UNL     1       1.705   8.994  17.936  0.00  0.00    +0.000 C 
ENDBRANCH  11  12
ENDBRANCH   4  11
BRANCH   5  15
ATOM     15  C   UNL     1       5.593   4.879  18.673  0.00  0.00    +0.000 C 
BRANCH  15  16
ATOM     16  N   UNL     1       5.802   4.454  17.279  0.00  0.00    +0.000 NA
ATOM     17  C   UNL     1       4.973   5.085  16.258  0.00  0.00    +0.000 C 
ATOM     18  C   UNL     1       5.511   4.434  15.007  0.00  0.00    +0.000 C 
ATOM     19  C   UNL     1       7.012   4.569  15.222  0.00  0.00    +0.000 C 
ATOM     20  C   UNL     1       7.170   4.520  16.754  0.00  0.00    +0.000 C 
ENDBRANCH  15  16
ENDBRANCH   5  15
TORSDOF 6
ENDMDL
MODEL 7
REMARK VINA RESULT:      -6.8      0.889      1.369
REMARK  Name = 
REMARK  9 active torsions:
REMARK  status: ('A' for Active; 'I' for Inactive)
REMARK    1  A    between atoms: C_1  and  C_2
REMARK    2  A    between atoms: C_4  and  C_5
REMARK    3  A    between atoms: C_5  and  C_6
REMARK    4  A    between atoms: C_6  and  C_7
REMARK    5  A    between atoms: C_6  and  C_8
REMARK    6  A    between atoms: C_9  and  C_10
REMARK    7  A    between atoms: C_10  and  N_11
REMARK    8  A    between atoms: C_16  and  C_17
REMARK    9  A    between atoms: C_17  and  O_19
REMARK                            x       y       z     vdW  Elec       q    Type
REMARK                         _______ _______ _______ _____ _____    ______ ____
ROOT
ATOM      1  C   UNL     1       1.071   2.211  19.390  0.00  0.00    +0.000 C 
ATOM      2  C   UNL     1       2.131   3.264  19.391  0.00  0.00    +0.000 A 
ATOM      3  O   UNL     1       1.833   4.545  19.363  0.00  0.00    +0.000 OA
ATOM      4  C   UNL     1       2.944   5.251  19.327  0.00  0.00    +0.000 A 
ATOM      5  C   UNL     1       4.035   4.390  19.319  0.00  0.00    +0.000 A 
ATOM      6  C   UNL     1       3.512   3.099  19.416  0.00  0.00    +0.000 A 
ENDROOT
BRANCH   6   7
ATOM      7  C   UNL     1       4.314   1.833  19.512  0.00  0.00    +0.000 C 
ATOM      8  O   UNL     1       5.015   1.646  20.493  0.00  0.00    +0.000 OA
BRANCH   7   9
ATOM      9  O   UNL     1       4.266   0.850  18.587  0.00  0.00    +0.000 OA
ATOM     10  H   UNL     1       4.085   0.984  17.655  0.00  0.00    +0.000 HD
ENDBRANCH   7   9
ENDBRANCH   6   7
BRANCH   4  11
ATOM     11  C   UNL     1       2.928   6.759  19.323  0.00  0.00    +0.000 C 
BRANCH  11  12
ATOM     12  C   UNL     1       2.689   7.300  17.891  0.00  0.00    +0.000 C 
ATOM     13  C   UNL     1       1.882   8.610  17.907  0.00  0.00    +0.000 C 
ATOM     14  C   UNL     1       4.019   7.529  17.160  0.00  0.00    +0.000 C 
ENDBRANCH  11  12
ENDBRANCH   4  11
BRANCH   5  15
ATOM     15  C   UNL     1       5.498   4.736  19.165  0.00  0.00    +0.000 C 
BRANCH  15  16
ATOM     16  N   UNL     1       5.776   4.855  17.724  0.00  0.00    +0.000 NA
ATOM     17  C   UNL     1       7.163   4.713  17.299  0.00  0.00    +0.000 C 
ATOM     18  C   UNL     1       7.021   4.847  15.801  0.00  0.00    +0.000 C 
ATOM     19  C   UNL     1       5.850   3.915  15.529  0.00  0.00    +0.000 C 
ATOM     20  C   UNL     1       5.009   3.993  16.818  0.00  0.00    +0.000 C 
ENDBRANCH  15  16
ENDBRANCH   5  15
TORSDOF 6
ENDMDL
MODEL 8
REMARK VINA RESULT:      -6.7      0.885      1.428
REMARK  Name = 
REMARK  9 active torsions:
REMARK  status: ('A' for Active; 'I' for Inactive)
REMARK    1  A    between atoms: C_1  and  C_2
REMARK    2  A    between atoms: C_4  and  C_5
REMARK    3  A    between atoms: C_5  and  C_6
REMARK    4  A    between atoms: C_6  and  C_7
REMARK    5  A    between atoms: C_6  and  C_8
REMARK    6  A    between atoms: C_9  and  C_10
REMARK    7  A    between atoms: C_10  and  N_11
REMARK    8  A    between atoms: C_16  and  C_17
REMARK    9  A    between atoms: C_17  and  O_19
REMARK                            x       y       z     vdW  Elec       q    Type
REMARK                         _______ _______ _______ _____ _____    ______ ____
ROOT
ATOM      1  C   UNL     1       0.759   2.481  19.416  0.00  0.00    +0.000 C 
ATOM      2  C   UNL     1       1.810   3.544  19.431  0.00  0.00    +0.000 A 
ATOM      3  O   UNL     1       1.500   4.820  19.511  0.00  0.00    +0.000 OA
ATOM      4  C   UNL     1       2.601   5.541  19.462  0.00  0.00    +0.000 A 
ATOM      5  C   UNL     1       3.697   4.695  19.331  0.00  0.00    +0.000 A 
ATOM      6  C   UNL     1       3.191   3.394  19.364  0.00  0.00    +0.000 A 
ENDROOT
BRANCH   6   7
ATOM      7  C   UNL     1       4.006   2.135  19.324  0.00  0.00    +0.000 C 
ATOM      8  O   UNL     1       3.786   1.311  18.450  0.00  0.00    +0.000 OA
BRANCH   7   9
ATOM      9  O   UNL     1       5.019   1.876  20.178  0.00  0.00    +0.000 OA
ATOM     10  H   UNL     1       4.999   1.206  20.865  0.00  0.00    +0.000 HD
ENDBRANCH   7   9
ENDBRANCH   6   7
BRANCH   4  11
ATOM     11  C   UNL     1       2.572   7.044  19.567  0.00  0.00    +0.000 C 
BRANCH  11  12
ATOM     12  C   UNL     1       2.276   7.683  18.186  0.00  0.00    +0.000 C 
ATOM     13  C   UNL     1       1.513   9.011  18.328  0.00  0.00    +0.000 C 
ATOM     14  C   UNL     1       3.573   7.922  17.401  0.00  0.00    +0.000 C 
ENDBRANCH  11  12
ENDBRANCH   4  11
BRANCH   5  15
ATOM     15  C   UNL     1       5.145   5.069  19.118  0.00  0.00    +0.000 C 
BRANCH  15  16
ATOM     16  N   UNL     1       5.570   4.483  17.834  0.00  0.00    +0.000 NA
ATOM     17  C   UNL     1       4.791   4.835  16.652  0.00  0.00    +0.000 C 
ATOM     18  C   UNL     1       5.552   4.096  15.577  0.00  0.00    +0.000 C 
ATOM     19  C   UNL     1       6.986   4.477  15.911  0.00  0.00    +0.000 C 
ATOM     20  C   UNL     1       6.970   4.672  17.440  0.00  0.00    +0.000 C 
ENDBRANCH  15  16
ENDBRANCH   5  15
TORSDOF 6
ENDMDL
MODEL 9
REMARK VINA RESULT:      -6.7      1.235      1.839
REMARK  Name = 
REMARK  9 active torsions:
REMARK  status: ('A' for Active; 'I' for Inactive)
REMARK    1  A    between atoms: C_1  and  C_2
REMARK    2  A    between atoms: C_4  and  C_5
REMARK    3  A    between atoms: C_5  and  C_6
REMARK    4  A    between atoms: C_6  and  C_7
REMARK    5  A    between atoms: C_6  and  C_8
REMARK    6  A    between atoms: C_9  and  C_10
REMARK    7  A    between atoms: C_10  and  N_11
REMARK    8  A    between atoms: C_16  and  C_17
REMARK    9  A    between atoms: C_17  and  O_19
REMARK                            x       y       z     vdW  Elec       q    Type
REMARK                         _______ _______ _______ _____ _____    ______ ____
ROOT
ATOM      1  C   UNL     1       2.229   3.137  21.717  0.00  0.00    +0.000 C 
ATOM      2  C   UNL     1       2.544   3.619  20.338  0.00  0.00    +0.000 A 
ATOM      3  O   UNL     1       1.996   4.708  19.845  0.00  0.00    +0.000 OA
ATOM      4  C   UNL     1       2.408   4.882  18.606  0.00  0.00    +0.000 A 
ATOM      5  C   UNL     1       3.264   3.844  18.257  0.00  0.00    +0.000 A 
ATOM      6  C   UNL     1       3.398   3.049  19.399  0.00  0.00    +0.000 A 
ENDROOT
BRANCH   6   7
ATOM      7  C   UNL     1       4.280   1.843  19.529  0.00  0.00    +0.000 C 
ATOM      8  O   UNL     1       5.086   1.791  20.444  0.00  0.00    +0.000 OA
BRANCH   7   9
ATOM      9  O   UNL     1       4.201   0.771  18.712  0.00  0.00    +0.000 OA
ATOM     10  H   UNL     1       3.402   0.266  18.546  0.00  0.00    +0.000 HD
ENDBRANCH   7   9
ENDBRANCH   6   7
BRANCH   4  11
ATOM     11  C   UNL     1       1.977   6.070  17.785  0.00  0.00    +0.000 C 
BRANCH  11  12
ATOM     12  C   UNL     1       2.767   7.337  18.201  0.00  0.00    +0.000 C 
ATOM     13  C   UNL     1       4.048   7.506  17.366  0.00  0.00    +0.000 C 
ATOM     14  C   UNL     1       1.899   8.596  18.063  0.00  0.00    +0.000 C 
ENDBRANCH  11  12
ENDBRANCH   4  11
BRANCH   5  15
ATOM     15  C   UNL     1       3.884   3.556  16.910  0.00  0.00    +0.000 C 
BRANCH  15  16
ATOM     16  N   UNL     1       5.029   4.469  16.746  0.00  0.00    +0.000 NA
ATOM     17  C   UNL     1       6.101   4.377  17.730  0.00  0.00    +0.000 C 
ATOM     18  C   UNL     1       7.069   5.407  17.198  0.00  0.00    +0.000 C 
ATOM     19  C   UNL     1       7.109   5.043  15.721  0.00  0.00    +0.000 C 
ATOM     20  C   UNL     1       5.704   4.471  15.444  0.00  0.00    +0.000 C 
ENDBRANCH  15  16
ENDBRANCH   5  15
TORSDOF 6
ENDMDL
