MODEL 1
REMARK VINA RESULT:      -8.2      0.000      0.000
REMARK  Name = 
REMARK  7 active torsions:
REMARK  status: ('A' for Active; 'I' for Inactive)
REMARK    1  A    between atoms: C_1  and  O_2
REMARK    2  A    between atoms: O_2  and  C_3
REMARK    3  A    between atoms: C_8  and  O_9
REMARK    4  A    between atoms: O_9  and  C_10
REMARK    5  A    between atoms: C_12  and  C_13
REMARK    6  A    between atoms: C_15  and  C_16
REMARK    7  A    between atoms: C_19  and  N_20
REMARK                            x       y       z     vdW  Elec       q    Type
REMARK                         _______ _______ _______ _____ _____    ______ ____
ROOT
ATOM      1  C   UNL     1       4.071   5.664  18.402  0.00  0.00    +0.000 A 
ATOM      2  C   UNL     1       4.426   4.306  18.620  0.00  0.00    +0.000 A 
ATOM      3  C   UNL     1       3.813   3.530  19.616  0.00  0.00    +0.000 A 
ATOM      4  C   UNL     1       2.747   4.077  20.325  0.00  0.00    +0.000 A 
ATOM      5  C   UNL     1       2.264   5.340  19.954  0.00  0.00    +0.000 A 
ATOM      6  C   UNL     1       2.920   6.183  19.005  0.00  0.00    +0.000 A 
ENDROOT
BRANCH   6   7
ATOM      7  N   UNL     1       2.397   7.524  18.897  0.00  0.00    +0.000 N 
ATOM      8  N   UNL     1       2.686   8.174  17.724  0.00  0.00    +0.000 NA
ATOM      9  N   UNL     1       1.801   9.124  17.525  0.00  0.00    +0.000 NA
ATOM     10  C   UNL     1       1.133   9.297  18.688  0.00  0.00    +0.000 A 
ATOM     11  C   UNL     1       0.154  10.257  18.976  0.00  0.00    +0.000 A 
ATOM     12  C   UNL     1      -0.272  10.397  20.291  0.00  0.00    +0.000 A 
ATOM     13  C   UNL     1       0.279   9.591  21.289  0.00  0.00    +0.000 A 
ATOM     14  C   UNL     1       1.198   8.551  20.999  0.00  0.00    +0.000 A 
ATOM     15  C   UNL     1       1.590   8.388  19.656  0.00  0.00    +0.000 A 
ENDBRANCH   6   7
BRANCH   3  16
ATOM     16  C   UNL     1       4.369   2.249  19.959  0.00  0.00    +0.000 C 
ATOM     17  N   UNL     1       4.837   1.221  20.237  0.00  0.00    +0.000 NA
ENDBRANCH   3  16
BRANCH   4  18
ATOM     18  C   UNL     1       2.170   3.425  21.460  0.00  0.00    +0.000 C 
ATOM     19  N   UNL     1       1.648   2.888  22.347  0.00  0.00    +0.000 NA
ENDBRANCH   4  18
BRANCH   1  20
ATOM     20  O   UNL     1       4.939   6.478  17.707  0.00  0.00    +0.000 OA
BRANCH  20  26
ATOM     21  C   UNL     1       7.120   5.889  16.624  0.00  0.00    +0.000 A 
ATOM     22  C   UNL     1       7.745   5.288  15.520  0.00  0.00    +0.000 A 
ATOM     23  C   UNL     1       6.986   4.795  14.455  0.00  0.00    +0.000 A 
ATOM     24  C   UNL     1       5.603   4.862  14.499  0.00  0.00    +0.000 A 
ATOM     25  C   UNL     1       4.964   5.403  15.617  0.00  0.00    +0.000 A 
ATOM     26  C   UNL     1       5.708   5.918  16.686  0.00  0.00    +0.000 A 
BRANCH  21  28
ATOM     27  C   UNL     1       7.861   5.611  18.855  0.00  0.00    +0.000 C 
ATOM     28  O   UNL     1       7.844   6.404  17.671  0.00  0.00    +0.000 OA
ENDBRANCH  21  28
ENDBRANCH  20  26
ENDBRANCH   1  20
TORSDOF 6
ENDMDL
MODEL 2
REMARK VINA RESULT:      -7.4      1.285      1.957
REMARK  Name = 
REMARK  7 active torsions:
REMARK  status: ('A' for Active; 'I' for Inactive)
REMARK    1  A    between atoms: C_1  and  O_2
REMARK    2  A    between atoms: O_2  and  C_3
REMARK    3  A    between atoms: C_8  and  O_9
REMARK    4  A    between atoms: O_9  and  C_10
REMARK    5  A    between atoms: C_12  and  C_13
REMARK    6  A    between atoms: C_15  and  C_16
REMARK    7  A    between atoms: C_19  and  N_20
REMARK                            x       y       z     vdW  Elec       q    Type
REMARK                         _______ _______ _______ _____ _____    ______ ____
ROOT
ATOM      1  C   UNL     1       3.016   5.730  17.892  0.00  0.00    +0.000 A 
ATOM      2  C   UNL     1       3.184   4.321  17.831  0.00  0.00    +0.000 A 
ATOM      3  C   UNL     1       2.868   3.488  18.916  0.00  0.00    +0.000 A 
ATOM      4  C   UNL     1       2.263   4.053  20.035  0.00  0.00    +0.000 A 
ATOM      5  C   UNL     1       1.903   5.408  19.999  0.00  0.00    +0.000 A 
ATOM      6  C   UNL     1       2.288   6.293  18.946  0.00  0.00    +0.000 A 
ENDROOT
BRANCH   6   7
ATOM      7  N   UNL     1       2.005   7.691  19.174  0.00  0.00    +0.000 N 
ATOM      8  N   UNL     1       2.262   8.522  18.113  0.00  0.00    +0.000 NA
ATOM      9  N   UNL     1       1.546   9.616  18.235  0.00  0.00    +0.000 NA
ATOM     10  C   UNL     1       1.066   9.639  19.499  0.00  0.00    +0.000 A 
ATOM     11  C   UNL     1       0.317  10.654  20.109  0.00  0.00    +0.000 A 
ATOM     12  C   UNL     1       0.086  10.577  21.477  0.00  0.00    +0.000 A 
ATOM     13  C   UNL     1       0.600   9.505  22.209  0.00  0.00    +0.000 A 
ATOM     14  C   UNL     1       1.275   8.422  21.591  0.00  0.00    +0.000 A 
ATOM     15  C   UNL     1       1.466   8.488  20.197  0.00  0.00    +0.000 A 
ENDBRANCH   6   7
BRANCH   3  16
ATOM     16  C   UNL     1       3.280   2.111  18.896  0.00  0.00    +0.000 C 
ATOM     17  N   UNL     1       3.617   0.998  18.860  0.00  0.00    +0.000 NA
ENDBRANCH   3  16
BRANCH   4  18
ATOM     18  C   UNL     1       2.053   3.317  21.243  0.00  0.00    +0.000 C 
ATOM     19  N   UNL     1       1.925   2.675  22.202  0.00  0.00    +0.000 NA
ENDBRANCH   4  18
BRANCH   1  20
ATOM     20  O   UNL     1       3.685   6.522  16.985  0.00  0.00    +0.000 OA
BRANCH  20  26
ATOM     21  C   UNL     1       5.738   5.573  15.910  0.00  0.00    +0.000 A 
ATOM     22  C   UNL     1       7.141   5.530  15.919  0.00  0.00    +0.000 A 
ATOM     23  C   UNL     1       7.867   6.205  16.906  0.00  0.00    +0.000 A 
ATOM     24  C   UNL     1       7.204   6.956  17.862  0.00  0.00    +0.000 A 
ATOM     25  C   UNL     1       5.811   7.058  17.831  0.00  0.00    +0.000 A 
ATOM     26  C   UNL     1       5.066   6.376  16.861  0.00  0.00    +0.000 A 
BRANCH  21  28
ATOM     27  C   UNL     1       5.750   4.070  14.081  0.00  0.00    +0.000 C 
ATOM     28  O   UNL     1       5.002   4.899  14.967  0.00  0.00    +0.000 OA
ENDBRANCH  21  28
ENDBRANCH  20  26
ENDBRANCH   1  20
TORSDOF 6
ENDMDL
MODEL 3
REMARK VINA RESULT:      -7.2      2.455      6.547
REMARK  Name = 
REMARK  7 active torsions:
REMARK  status: ('A' for Active; 'I' for Inactive)
REMARK    1  A    between atoms: C_1  and  O_2
REMARK    2  A    between atoms: O_2  and  C_3
REMARK    3  A    between atoms: C_8  and  O_9
REMARK    4  A    between atoms: O_9  and  C_10
REMARK    5  A    between atoms: C_12  and  C_13
REMARK    6  A    between atoms: C_15  and  C_16
REMARK    7  A    between atoms: C_19  and  N_20
REMARK                            x       y       z     vdW  Elec       q    Type
REMARK                         _______ _______ _______ _____ _____    ______ ____
ROOT
ATOM      1  C   UNL     1       3.534   6.359  18.896  0.00  0.00    +0.000 A 
ATOM      2  C   UNL     1       2.404   6.848  19.604  0.00  0.00    +0.000 A 
ATOM      3  C   UNL     1       1.881   8.130  19.373  0.00  0.00    +0.000 A 
ATOM      4  C   UNL     1       2.416   8.891  18.337  0.00  0.00    +0.000 A 
ATOM      5  C   UNL     1       3.385   8.314  17.504  0.00  0.00    +0.000 A 
ATOM      6  C   UNL     1       3.993   7.048  17.768  0.00  0.00    +0.000 A 
ENDROOT
BRANCH   6   7
ATOM      7  N   UNL     1       5.111   6.705  16.921  0.00  0.00    +0.000 N 
ATOM      8  N   UNL     1       6.277   7.377  17.188  0.00  0.00    +0.000 NA
ATOM      9  N   UNL     1       7.293   6.679  16.734  0.00  0.00    +0.000 NA
ATOM     10  C   UNL     1       6.789   5.727  15.917  0.00  0.00    +0.000 A 
ATOM     11  C   UNL     1       7.502   4.801  15.144  0.00  0.00    +0.000 A 
ATOM     12  C   UNL     1       6.806   4.033  14.218  0.00  0.00    +0.000 A 
ATOM     13  C   UNL     1       5.426   4.198  14.076  0.00  0.00    +0.000 A 
ATOM     14  C   UNL     1       4.678   5.060  14.917  0.00  0.00    +0.000 A 
ATOM     15  C   UNL     1       5.387   5.801  15.882  0.00  0.00    +0.000 A 
ENDBRANCH   6   7
BRANCH   3  16
ATOM     16  C   UNL     1       0.900   8.669  20.275  0.00  0.00    +0.000 C 
ATOM     17  N   UNL     1       0.105   9.087  21.015  0.00  0.00    +0.000 NA
ENDBRANCH   3  16
BRANCH   4  18
ATOM     18  C   UNL     1       2.059  10.260  18.132  0.00  0.00    +0.000 C 
ATOM     19  N   UNL     1       1.790  11.385  18.025  0.00  0.00    +0.000 NA
ENDBRANCH   4  18
BRANCH   1  20
ATOM     20  O   UNL     1       4.233   5.290  19.411  0.00  0.00    +0.000 OA
BRANCH  20  26
ATOM     21  C   UNL     1       2.937   3.219  19.966  0.00  0.00    +0.000 A 
ATOM     22  C   UNL     1       2.570   1.930  19.548  0.00  0.00    +0.000 A 
ATOM     23  C   UNL     1       3.092   1.389  18.369  0.00  0.00    +0.000 A 
ATOM     24  C   UNL     1       3.949   2.141  17.582  0.00  0.00    +0.000 A 
ATOM     25  C   UNL     1       4.277   3.447  17.953  0.00  0.00    +0.000 A 
ATOM     26  C   UNL     1       3.777   3.999  19.138  0.00  0.00    +0.000 A 
BRANCH  21  28
ATOM     27  C   UNL     1       1.502   2.972  21.832  0.00  0.00    +0.000 C 
ATOM     28  O   UNL     1       2.458   3.763  21.132  0.00  0.00    +0.000 OA
ENDBRANCH  21  28
ENDBRANCH  20  26
ENDBRANCH   1  20
TORSDOF 6
ENDMDL
MODEL 4
REMARK VINA RESULT:      -7.1      4.516      9.553
REMARK  Name = 
REMARK  7 active torsions:
REMARK  status: ('A' for Active; 'I' for Inactive)
REMARK    1  A    between atoms: C_1  and  O_2
REMARK    2  A    between atoms: O_2  and  C_3
REMARK    3  A    between atoms: C_8  and  O_9
REMARK    4  A    between atoms: O_9  and  C_10
REMARK    5  A    between atoms: C_12  and  C_13
REMARK    6  A    between atoms: C_15  and  C_16
REMARK    7  A    between atoms: C_19  and  N_20
REMARK                            x       y       z     vdW  Elec       q    Type
REMARK                         _______ _______ _______ _____ _____    ______ ____
ROOT
ATOM      1  C   UNL     1      -0.456  11.693  19.093  0.00  0.00    +0.000 A 
ATOM      2  C   UNL     1      -0.696  13.023  18.654  0.00  0.00    +0.000 A 
ATOM      3  C   UNL     1       0.171  14.079  18.973  0.00  0.00    +0.000 A 
ATOM      4  C   UNL     1       1.360  13.786  19.637  0.00  0.00    +0.000 A 
ATOM      5  C   UNL     1       1.691  12.445  19.874  0.00  0.00    +0.000 A 
ATOM      6  C   UNL     1       0.790  11.361  19.637  0.00  0.00    +0.000 A 
ENDROOT
BRANCH   6   7
ATOM      7  N   UNL     1       1.222  10.073  20.127  0.00  0.00    +0.000 N 
ATOM      8  N   UNL     1       1.127   9.900  21.484  0.00  0.00    +0.000 NA
ATOM      9  N   UNL     1       1.066   8.616  21.754  0.00  0.00    +0.000 NA
ATOM     10  C   UNL     1       1.424   7.955  20.631  0.00  0.00    +0.000 A 
ATOM     11  C   UNL     1       1.583   6.573  20.468  0.00  0.00    +0.000 A 
ATOM     12  C   UNL     1       2.147   6.104  19.288  0.00  0.00    +0.000 A 
ATOM     13  C   UNL     1       2.542   7.008  18.300  0.00  0.00    +0.000 A 
ATOM     14  C   UNL     1       2.299   8.400  18.409  0.00  0.00    +0.000 A 
ATOM     15  C   UNL     1       1.686   8.861  19.590  0.00  0.00    +0.000 A 
ENDBRANCH   6   7
BRANCH   3  16
ATOM     16  C   UNL     1      -0.236  15.433  18.718  0.00  0.00    +0.000 C 
ATOM     17  N   UNL     1      -0.582  16.523  18.501  0.00  0.00    +0.000 NA
ENDBRANCH   3  16
BRANCH   4  18
ATOM     18  C   UNL     1       2.223  14.808  20.143  0.00  0.00    +0.000 C 
ATOM     19  N   UNL     1       2.889  15.681  20.521  0.00  0.00    +0.000 NA
ENDBRANCH   4  18
BRANCH   1  20
ATOM     20  O   UNL     1      -1.497  10.792  19.095  0.00  0.00    +0.000 OA
BRANCH  20  26
ATOM     21  C   UNL     1      -3.655  11.374  17.963  0.00  0.00    +0.000 A 
ATOM     22  C   UNL     1      -4.417  11.268  16.789  0.00  0.00    +0.000 A 
ATOM     23  C   UNL     1      -3.954  10.516  15.706  0.00  0.00    +0.000 A 
ATOM     24  C   UNL     1      -2.716   9.899  15.769  0.00  0.00    +0.000 A 
ATOM     25  C   UNL     1      -1.919  10.044  16.907  0.00  0.00    +0.000 A 
ATOM     26  C   UNL     1      -2.373  10.780  18.009  0.00  0.00    +0.000 A 
BRANCH  21  28
ATOM     27  C   UNL     1      -5.498  12.008  19.306  0.00  0.00    +0.000 C 
ATOM     28  O   UNL     1      -4.099  12.086  19.050  0.00  0.00    +0.000 OA
ENDBRANCH  21  28
ENDBRANCH  20  26
ENDBRANCH   1  20
TORSDOF 6
ENDMDL
MODEL 5
REMARK VINA RESULT:      -7.1      2.518      6.248
REMARK  Name = 
REMARK  7 active torsions:
REMARK  status: ('A' for Active; 'I' for Inactive)
REMARK    1  A    between atoms: C_1  and  O_2
REMARK    2  A    between atoms: O_2  and  C_3
REMARK    3  A    between atoms: C_8  and  O_9
REMARK    4  A    between atoms: O_9  and  C_10
REMARK    5  A    between atoms: C_12  and  C_13
REMARK    6  A    between atoms: C_15  and  C_16
REMARK    7  A    between atoms: C_19  and  N_20
REMARK                            x       y       z     vdW  Elec       q    Type
REMARK                         _______ _______ _______ _____ _____    ______ ____
ROOT
ATOM      1  C   UNL     1       2.633   6.328  19.647  0.00  0.00    +0.000 A 
ATOM      2  C   UNL     1       1.594   6.823  20.480  0.00  0.00    +0.000 A 
ATOM      3  C   UNL     1       1.125   8.142  20.377  0.00  0.00    +0.000 A 
ATOM      4  C   UNL     1       1.613   8.944  19.348  0.00  0.00    +0.000 A 
ATOM      5  C   UNL     1       2.477   8.378  18.400  0.00  0.00    +0.000 A 
ATOM      6  C   UNL     1       3.034   7.069  18.530  0.00  0.00    +0.000 A 
ENDROOT
BRANCH   6   7
ATOM      7  N   UNL     1       4.057   6.730  17.569  0.00  0.00    +0.000 N 
ATOM      8  N   UNL     1       4.889   7.760  17.209  0.00  0.00    +0.000 NA
ATOM      9  N   UNL     1       6.018   7.268  16.754  0.00  0.00    +0.000 NA
ATOM     10  C   UNL     1       5.817   5.950  16.531  0.00  0.00    +0.000 A 
ATOM     11  C   UNL     1       6.714   5.032  15.969  0.00  0.00    +0.000 A 
ATOM     12  C   UNL     1       6.250   3.764  15.641  0.00  0.00    +0.000 A 
ATOM     13  C   UNL     1       4.913   3.433  15.873  0.00  0.00    +0.000 A 
ATOM     14  C   UNL     1       4.019   4.316  16.529  0.00  0.00    +0.000 A 
ATOM     15  C   UNL     1       4.511   5.583  16.897  0.00  0.00    +0.000 A 
ENDBRANCH   6   7
BRANCH   3  16
ATOM     16  C   UNL     1       0.253   8.666  21.393  0.00  0.00    +0.000 C 
ATOM     17  N   UNL     1      -0.463   9.099  22.200  0.00  0.00    +0.000 NA
ENDBRANCH   3  16
BRANCH   4  18
ATOM     18  C   UNL     1       1.316  10.340  19.263  0.00  0.00    +0.000 C 
ATOM     19  N   UNL     1       1.094  11.473  19.132  0.00  0.00    +0.000 NA
ENDBRANCH   4  18
BRANCH   1  20
ATOM     20  O   UNL     1       3.314   5.194  20.031  0.00  0.00    +0.000 OA
BRANCH  20  26
ATOM     21  C   UNL     1       3.547   2.739  19.590  0.00  0.00    +0.000 A 
ATOM     22  C   UNL     1       2.903   1.569  19.155  0.00  0.00    +0.000 A 
ATOM     23  C   UNL     1       1.586   1.614  18.690  0.00  0.00    +0.000 A 
ATOM     24  C   UNL     1       0.890   2.812  18.690  0.00  0.00    +0.000 A 
ATOM     25  C   UNL     1       1.497   3.973  19.175  0.00  0.00    +0.000 A 
ATOM     26  C   UNL     1       2.821   3.952  19.630  0.00  0.00    +0.000 A 
BRANCH  21  28
ATOM     27  C   UNL     1       5.231   1.578  20.781  0.00  0.00    +0.000 C 
ATOM     28  O   UNL     1       4.848   2.726  20.028  0.00  0.00    +0.000 OA
ENDBRANCH  21  28
ENDBRANCH  20  26
ENDBRANCH   1  20
TORSDOF 6
ENDMDL
MODEL 6
REMARK VINA RESULT:      -7.1      4.684      9.521
REMARK  Name = 
REMARK  7 active torsions:
REMARK  status: ('A' for Active; 'I' for Inactive)
REMARK    1  A    between atoms: C_1  and  O_2
REMARK    2  A    between atoms: O_2  and  C_3
REMARK    3  A    between atoms: C_8  and  O_9
REMARK    4  A    between atoms: O_9  and  C_10
REMARK    5  A    between atoms: C_12  and  C_13
REMARK    6  A    between atoms: C_15  and  C_16
REMARK    7  A    between atoms: C_19  and  N_20
REMARK                            x       y       z     vdW  Elec       q    Type
REMARK                         _______ _______ _______ _____ _____    ______ ____
ROOT
ATOM      1  C   UNL     1       0.261  12.339  19.173  0.00  0.00    +0.000 A 
ATOM      2  C   UNL     1       0.280  13.759  19.140  0.00  0.00    +0.000 A 
ATOM      3  C   UNL     1       1.443  14.479  18.826  0.00  0.00    +0.000 A 
ATOM      4  C   UNL     1       2.574  13.774  18.421  0.00  0.00    +0.000 A 
ATOM      5  C   UNL     1       2.480  12.386  18.247  0.00  0.00    +0.000 A 
ATOM      6  C   UNL     1       1.338  11.622  18.640  0.00  0.00    +0.000 A 
ENDROOT
BRANCH   6   7
ATOM      7  N   UNL     1       1.496  10.188  18.575  0.00  0.00    +0.000 N 
ATOM      8  N   UNL     1       1.882   9.695  17.355  0.00  0.00    +0.000 NA
ATOM      9  N   UNL     1       2.452   8.523  17.521  0.00  0.00    +0.000 NA
ATOM     10  C   UNL     1       2.169   8.117  18.779  0.00  0.00    +0.000 A 
ATOM     11  C   UNL     1       2.498   6.893  19.375  0.00  0.00    +0.000 A 
ATOM     12  C   UNL     1       1.947   6.588  20.614  0.00  0.00    +0.000 A 
ATOM     13  C   UNL     1       1.085   7.496  21.232  0.00  0.00    +0.000 A 
ATOM     14  C   UNL     1       0.820   8.777  20.688  0.00  0.00    +0.000 A 
ATOM     15  C   UNL     1       1.419   9.094  19.453  0.00  0.00    +0.000 A 
ENDBRANCH   6   7
BRANCH   3  16
ATOM     16  C   UNL     1       1.478  15.900  19.042  0.00  0.00    +0.000 C 
ATOM     17  N   UNL     1       1.509  17.046  19.235  0.00  0.00    +0.000 NA
ENDBRANCH   3  16
BRANCH   4  18
ATOM     18  C   UNL     1       3.843  14.407  18.238  0.00  0.00    +0.000 C 
ATOM     19  N   UNL     1       4.864  14.918  18.026  0.00  0.00    +0.000 NA
ENDBRANCH   4  18
BRANCH   1  20
ATOM     20  O   UNL     1      -0.757  11.700  19.846  0.00  0.00    +0.000 OA
BRANCH  20  26
ATOM     21  C   UNL     1      -3.175  12.174  19.397  0.00  0.00    +0.000 A 
ATOM     22  C   UNL     1      -4.307  11.826  18.643  0.00  0.00    +0.000 A 
ATOM     23  C   UNL     1      -4.264  10.753  17.748  0.00  0.00    +0.000 A 
ATOM     24  C   UNL     1      -3.086  10.047  17.569  0.00  0.00    +0.000 A 
ATOM     25  C   UNL     1      -1.934  10.418  18.268  0.00  0.00    +0.000 A 
ATOM     26  C   UNL     1      -1.963  11.479  19.181  0.00  0.00    +0.000 A 
BRANCH  21  28
ATOM     27  C   UNL     1      -3.531  12.846  21.638  0.00  0.00    +0.000 C 
ATOM     28  O   UNL     1      -3.199  13.208  20.300  0.00  0.00    +0.000 OA
ENDBRANCH  21  28
ENDBRANCH  20  26
ENDBRANCH   1  20
TORSDOF 6
ENDMDL
MODEL 7
REMARK VINA RESULT:      -7.0      2.362      6.556
REMARK  Name = 
REMARK  7 active torsions:
REMARK  status: ('A' for Active; 'I' for Inactive)
REMARK    1  A    between atoms: C_1  and  O_2
REMARK    2  A    between atoms: O_2  and  C_3
REMARK    3  A    between atoms: C_8  and  O_9
REMARK    4  A    between atoms: O_9  and  C_10
REMARK    5  A    between atoms: C_12  and  C_13
REMARK    6  A    between atoms: C_15  and  C_16
REMARK    7  A    between atoms: C_19  and  N_20
REMARK                            x       y       z     vdW  Elec       q    Type
REMARK                         _______ _______ _______ _____ _____    ______ ____
ROOT
ATOM      1  C   UNL     1       2.270   6.307  19.912  0.00  0.00    +0.000 A 
ATOM      2  C   UNL     1       1.405   7.311  20.425  0.00  0.00    +0.000 A 
ATOM      3  C   UNL     1       1.382   8.611  19.898  0.00  0.00    +0.000 A 
ATOM      4  C   UNL     1       2.142   8.884  18.763  0.00  0.00    +0.000 A 
ATOM      5  C   UNL     1       2.823   7.831  18.135  0.00  0.00    +0.000 A 
ATOM      6  C   UNL     1       2.932   6.522  18.698  0.00  0.00    +0.000 A 
ENDROOT
BRANCH   6   7
ATOM      7  N   UNL     1       3.837   5.626  18.017  0.00  0.00    +0.000 N 
ATOM      8  N   UNL     1       3.254   4.794  17.094  0.00  0.00    +0.000 NA
ATOM      9  N   UNL     1       4.161   4.404  16.228  0.00  0.00    +0.000 NA
ATOM     10  C   UNL     1       5.369   4.721  16.746  0.00  0.00    +0.000 A 
ATOM     11  C   UNL     1       6.630   4.425  16.213  0.00  0.00    +0.000 A 
ATOM     12  C   UNL     1       7.754   4.664  16.994  0.00  0.00    +0.000 A 
ATOM     13  C   UNL     1       7.607   5.187  18.281  0.00  0.00    +0.000 A 
ATOM     14  C   UNL     1       6.347   5.582  18.796  0.00  0.00    +0.000 A 
ATOM     15  C   UNL     1       5.218   5.376  17.979  0.00  0.00    +0.000 A 
ENDBRANCH   6   7
BRANCH   3  16
ATOM     16  C   UNL     1       0.677   9.649  20.600  0.00  0.00    +0.000 C 
ATOM     17  N   UNL     1       0.096  10.474  21.178  0.00  0.00    +0.000 NA
ENDBRANCH   3  16
BRANCH   4  18
ATOM     18  C   UNL     1       2.305  10.210  18.254  0.00  0.00    +0.000 C 
ATOM     19  N   UNL     1       2.374  11.293  17.841  0.00  0.00    +0.000 NA
ENDBRANCH   4  18
BRANCH   1  20
ATOM     20  O   UNL     1       2.540   5.199  20.684  0.00  0.00    +0.000 OA
BRANCH  20  26
ATOM     21  C   UNL     1       3.061   2.853  19.979  0.00  0.00    +0.000 A 
ATOM     22  C   UNL     1       2.546   1.648  19.474  0.00  0.00    +0.000 A 
ATOM     23  C   UNL     1       1.200   1.548  19.110  0.00  0.00    +0.000 A 
ATOM     24  C   UNL     1       0.353   2.631  19.282  0.00  0.00    +0.000 A 
ATOM     25  C   UNL     1       0.837   3.817  19.839  0.00  0.00    +0.000 A 
ATOM     26  C   UNL     1       2.185   3.941  20.194  0.00  0.00    +0.000 A 
BRANCH  21  28
ATOM     27  C   UNL     1       5.038   1.782  20.719  0.00  0.00    +0.000 C 
ATOM     28  O   UNL     1       4.385   2.984  20.320  0.00  0.00    +0.000 OA
ENDBRANCH  21  28
ENDBRANCH  20  26
ENDBRANCH   1  20
TORSDOF 6
ENDMDL
MODEL 8
REMARK VINA RESULT:      -7.0      4.796      8.407
REMARK  Name = 
REMARK  7 active torsions:
REMARK  status: ('A' for Active; 'I' for Inactive)
REMARK    1  A    between atoms: C_1  and  O_2
REMARK    2  A    between atoms: O_2  and  C_3
REMARK    3  A    between atoms: C_8  and  O_9
REMARK    4  A    between atoms: O_9  and  C_10
REMARK    5  A    between atoms: C_12  and  C_13
REMARK    6  A    between atoms: C_15  and  C_16
REMARK    7  A    between atoms: C_19  and  N_20
REMARK                            x       y       z     vdW  Elec       q    Type
REMARK                         _______ _______ _______ _____ _____    ______ ____
ROOT
ATOM      1  C   UNL     1       0.952  11.829  18.643  0.00  0.00    +0.000 A 
ATOM      2  C   UNL     1       2.256  12.386  18.566  0.00  0.00    +0.000 A 
ATOM      3  C   UNL     1       2.474  13.773  18.586  0.00  0.00    +0.000 A 
ATOM      4  C   UNL     1       1.387  14.614  18.808  0.00  0.00    +0.000 A 
ATOM      5  C   UNL     1       0.139  14.046  19.099  0.00  0.00    +0.000 A 
ATOM      6  C   UNL     1      -0.127  12.645  19.000  0.00  0.00    +0.000 A 
ENDROOT
BRANCH   6   7
ATOM      7  N   UNL     1      -1.513  12.263  19.139  0.00  0.00    +0.000 N 
ATOM      8  N   UNL     1      -2.048  12.439  20.389  0.00  0.00    +0.000 NA
ATOM      9  N   UNL     1      -3.354  12.537  20.293  0.00  0.00    +0.000 NA
ATOM     10  C   UNL     1      -3.693  12.126  19.050  0.00  0.00    +0.000 A 
ATOM     11  C   UNL     1      -4.983  11.981  18.522  0.00  0.00    +0.000 A 
ATOM     12  C   UNL     1      -5.129  11.357  17.289  0.00  0.00    +0.000 A 
ATOM     13  C   UNL     1      -4.001  10.891  16.609  0.00  0.00    +0.000 A 
ATOM     14  C   UNL     1      -2.685  11.117  17.084  0.00  0.00    +0.000 A 
ATOM     15  C   UNL     1      -2.546  11.789  18.314  0.00  0.00    +0.000 A 
ENDBRANCH   6   7
BRANCH   3  16
ATOM     16  C   UNL     1       3.775  14.291  18.263  0.00  0.00    +0.000 C 
ATOM     17  N   UNL     1       4.821  14.720  17.985  0.00  0.00    +0.000 NA
ENDBRANCH   3  16
BRANCH   4  18
ATOM     18  C   UNL     1       1.484  16.036  18.686  0.00  0.00    +0.000 C 
ATOM     19  N   UNL     1       1.611  17.189  18.629  0.00  0.00    +0.000 NA
ENDBRANCH   4  18
BRANCH   1  20
ATOM     20  O   UNL     1       0.756  10.528  18.235  0.00  0.00    +0.000 OA
BRANCH  20  26
ATOM     21  C   UNL     1       1.930   8.405  18.859  0.00  0.00    +0.000 A 
ATOM     22  C   UNL     1       2.141   7.443  19.860  0.00  0.00    +0.000 A 
ATOM     23  C   UNL     1       1.449   7.516  21.073  0.00  0.00    +0.000 A 
ATOM     24  C   UNL     1       0.576   8.564  21.310  0.00  0.00    +0.000 A 
ATOM     25  C   UNL     1       0.400   9.561  20.348  0.00  0.00    +0.000 A 
ATOM     26  C   UNL     1       1.071   9.496  19.121  0.00  0.00    +0.000 A 
BRANCH  21  28
ATOM     27  C   UNL     1       3.610   7.363  17.557  0.00  0.00    +0.000 C 
ATOM     28  O   UNL     1       2.579   8.341  17.650  0.00  0.00    +0.000 OA
ENDBRANCH  21  28
ENDBRANCH  20  26
ENDBRANCH   1  20
TORSDOF 6
ENDMDL
MODEL 9
REMARK VINA RESULT:      -6.9      6.772      9.999
REMARK  Name = 
REMARK  7 active torsions:
REMARK  status: ('A' for Active; 'I' for Inactive)
REMARK    1  A    between atoms: C_1  and  O_2
REMARK    2  A    between atoms: O_2  and  C_3
REMARK    3  A    between atoms: C_8  and  O_9
REMARK    4  A    between atoms: O_9  and  C_10
REMARK    5  A    between atoms: C_12  and  C_13
REMARK    6  A    between atoms: C_15  and  C_16
REMARK    7  A    between atoms: C_19  and  N_20
REMARK                            x       y       z     vdW  Elec       q    Type
REMARK                         _______ _______ _______ _____ _____    ______ ____
ROOT
ATOM      1  C   UNL     1      -2.217  12.631  20.272  0.00  0.00    +0.000 A 
ATOM      2  C   UNL     1      -2.244  12.148  18.936  0.00  0.00    +0.000 A 
ATOM      3  C   UNL     1      -3.428  11.699  18.332  0.00  0.00    +0.000 A 
ATOM      4  C   UNL     1      -4.627  11.845  19.026  0.00  0.00    +0.000 A 
ATOM      5  C   UNL     1      -4.620  12.522  20.254  0.00  0.00    +0.000 A 
ATOM      6  C   UNL     1      -3.421  12.911  20.928  0.00  0.00    +0.000 A 
ENDROOT
BRANCH   6   7
ATOM      7  N   UNL     1      -3.597  13.412  22.271  0.00  0.00    +0.000 N 
ATOM      8  N   UNL     1      -4.265  12.574  23.127  0.00  0.00    +0.000 NA
ATOM      9  N   UNL     1      -3.950  12.877  24.366  0.00  0.00    +0.000 NA
ATOM     10  C   UNL     1      -3.333  14.080  24.337  0.00  0.00    +0.000 A 
ATOM     11  C   UNL     1      -2.893  14.840  25.428  0.00  0.00    +0.000 A 
ATOM     12  C   UNL     1      -2.460  16.140  25.200  0.00  0.00    +0.000 A 
ATOM     13  C   UNL     1      -2.474  16.660  23.904  0.00  0.00    +0.000 A 
ATOM     14  C   UNL     1      -2.824  15.873  22.779  0.00  0.00    +0.000 A 
ATOM     15  C   UNL     1      -3.219  14.542  23.015  0.00  0.00    +0.000 A 
ENDBRANCH   6   7
BRANCH   3  16
ATOM     16  C   UNL     1      -3.364  10.999  17.078  0.00  0.00    +0.000 C 
ATOM     17  N   UNL     1      -3.311  10.415  16.074  0.00  0.00    +0.000 NA
ENDBRANCH   3  16
BRANCH   4  18
ATOM     18  C   UNL     1      -5.852  11.275  18.561  0.00  0.00    +0.000 C 
ATOM     19  N   UNL     1      -6.876  10.833  18.237  0.00  0.00    +0.000 NA
ENDBRANCH   4  18
BRANCH   1  20
ATOM     20  O   UNL     1      -1.013  12.689  20.938  0.00  0.00    +0.000 OA
BRANCH  20  26
ATOM     21  C   UNL     1       0.505  10.703  20.773  0.00  0.00    +0.000 A 
ATOM     22  C   UNL     1       0.957   9.530  21.398  0.00  0.00    +0.000 A 
ATOM     23  C   UNL     1       0.403   9.112  22.612  0.00  0.00    +0.000 A 
ATOM     24  C   UNL     1      -0.574   9.877  23.227  0.00  0.00    +0.000 A 
ATOM     25  C   UNL     1      -0.993  11.077  22.648  0.00  0.00    +0.000 A 
ATOM     26  C   UNL     1      -0.462  11.503  21.425  0.00  0.00    +0.000 A 
BRANCH  21  28
ATOM     27  C   UNL     1       0.941  10.175  18.507  0.00  0.00    +0.000 C 
ATOM     28  O   UNL     1       1.016  11.122  19.569  0.00  0.00    +0.000 OA
ENDBRANCH  21  28
ENDBRANCH  20  26
ENDBRANCH   1  20
TORSDOF 6
ENDMDL
