MODEL 1
REMARK VINA RESULT:      -6.2      0.000      0.000
REMARK  Name = 
REMARK  10 active torsions:
REMARK  status: ('A' for Active; 'I' for Inactive)
REMARK    1  A    between atoms: C_1  and  C_2
REMARK    2  A    between atoms: C_2  and  C_3
REMARK    3  A    between atoms: C_3  and  S_4
REMARK    4  A    between atoms: S_4  and  N_7
REMARK    5  A    between atoms: N_7  and  C_8
REMARK    6  A    between atoms: C_8  and  C_9
REMARK    7  A    between atoms: C_12  and  C_13
REMARK    8  A    between atoms: C_14  and  O_15
REMARK    9  A    between atoms: O_15  and  C_16
REMARK   10  A    between atoms: C_17  and  C_18
REMARK                            x       y       z     vdW  Elec       q    Type
REMARK                         _______ _______ _______ _____ _____    ______ ____
ROOT
ATOM      1  C   UNL     1       5.048   3.930  19.019  0.00  0.00    +0.000 A 
ATOM      2  N   UNL     1       6.042   4.489  19.743  0.00  0.00    +0.000 NA
ATOM      3  C   UNL     1       6.726   5.500  19.175  0.00  0.00    +0.000 A 
ATOM      4  C   UNL     1       6.472   6.036  17.911  0.00  0.00    +0.000 A 
ATOM      5  C   UNL     1       7.357   7.155  17.461  0.00  0.00    +0.000 C 
ATOM      6  C   UNL     1       5.430   5.452  17.176  0.00  0.00    +0.000 A 
ATOM      7  C   UNL     1       4.718   4.356  17.723  0.00  0.00    +0.000 A 
ATOM      8  C   UNL     1       3.643   3.647  16.939  0.00  0.00    +0.000 C 
ENDROOT
BRANCH   6   9
ATOM      9  O   UNL     1       5.058   5.761  15.894  0.00  0.00    +0.000 OA
ATOM     10  C   UNL     1       5.794   5.258  14.792  0.00  0.00    +0.000 C 
ENDBRANCH   6   9
BRANCH   1  11
ATOM     11  C   UNL     1       4.316   2.798  19.711  0.00  0.00    +0.000 C 
BRANCH  11  12
ATOM     12  N   UNL     1       3.448   3.287  20.801  0.00  0.00    +0.000 NA
ATOM     13  H   UNL     1       3.833   3.030  21.714  0.00  0.00    +0.000 HD
BRANCH  12  14
ATOM     14  S   UNL     1       1.837   2.831  20.684  0.00  0.00    +0.000 S 
ATOM     15  O   UNL     1       1.420   2.464  22.024  0.00  0.00    +0.000 OA
ATOM     16  O   UNL     1       1.733   1.907  19.584  0.00  0.00    +0.000 OA
BRANCH  14  17
ATOM     17  C   UNL     1       1.039   4.376  20.228  0.00  0.00    +0.000 C 
BRANCH  17  19
ATOM     18  C   UNL     1       2.348   6.404  19.507  0.00  0.00    +0.000 C 
ATOM     19  C   UNL     1       1.873   5.564  20.679  0.00  0.00    +0.000 C 
ENDBRANCH  17  19
ENDBRANCH  14  17
ENDBRANCH  12  14
ENDBRANCH  11  12
ENDBRANCH   1  11
TORSDOF 6
ENDMDL
MODEL 2
REMARK VINA RESULT:      -6.1      2.529      5.519
REMARK  Name = 
REMARK  10 active torsions:
REMARK  status: ('A' for Active; 'I' for Inactive)
REMARK    1  A    between atoms: C_1  and  C_2
REMARK    2  A    between atoms: C_2  and  C_3
REMARK    3  A    between atoms: C_3  and  S_4
REMARK    4  A    between atoms: S_4  and  N_7
REMARK    5  A    between atoms: N_7  and  C_8
REMARK    6  A    between atoms: C_8  and  C_9
REMARK    7  A    between atoms: C_12  and  C_13
REMARK    8  A    between atoms: C_14  and  O_15
REMARK    9  A    between atoms: O_15  and  C_16
REMARK   10  A    between atoms: C_17  and  C_18
REMARK                            x       y       z     vdW  Elec       q    Type
REMARK                         _______ _______ _______ _____ _____    ______ ____
ROOT
ATOM      1  C   UNL     1       3.869   5.003  17.766  0.00  0.00    +0.000 A 
ATOM      2  N   UNL     1       3.826   6.316  18.083  0.00  0.00    +0.000 NA
ATOM      3  C   UNL     1       2.986   6.686  19.069  0.00  0.00    +0.000 A 
ATOM      4  C   UNL     1       2.179   5.820  19.807  0.00  0.00    +0.000 A 
ATOM      5  C   UNL     1       1.307   6.437  20.856  0.00  0.00    +0.000 C 
ATOM      6  C   UNL     1       2.242   4.458  19.474  0.00  0.00    +0.000 A 
ATOM      7  C   UNL     1       3.080   4.038  18.412  0.00  0.00    +0.000 A 
ATOM      8  C   UNL     1       3.122   2.598  17.966  0.00  0.00    +0.000 C 
ENDROOT
BRANCH   6   9
ATOM      9  O   UNL     1       1.487   3.448  20.007  0.00  0.00    +0.000 OA
ATOM     10  C   UNL     1       1.685   3.035  21.348  0.00  0.00    +0.000 C 
ENDBRANCH   6   9
BRANCH   1  11
ATOM     11  C   UNL     1       4.831   4.649  16.651  0.00  0.00    +0.000 C 
BRANCH  11  12
ATOM     12  N   UNL     1       6.082   5.430  16.733  0.00  0.00    +0.000 NA
ATOM     13  H   UNL     1       6.526   5.501  15.813  0.00  0.00    +0.000 HD
BRANCH  12  14
ATOM     14  S   UNL     1       7.179   4.893  17.885  0.00  0.00    +0.000 S 
ATOM     15  O   UNL     1       8.217   4.187  17.158  0.00  0.00    +0.000 OA
ATOM     16  O   UNL     1       6.423   4.253  18.930  0.00  0.00    +0.000 OA
BRANCH  14  17
ATOM     17  C   UNL     1       7.854   6.436  18.511  0.00  0.00    +0.000 C 
BRANCH  17  19
ATOM     18  C   UNL     1       8.210   8.876  17.995  0.00  0.00    +0.000 C 
ATOM     19  C   UNL     1       7.549   7.581  17.559  0.00  0.00    +0.000 C 
ENDBRANCH  17  19
ENDBRANCH  14  17
ENDBRANCH  12  14
ENDBRANCH  11  12
ENDBRANCH   1  11
TORSDOF 6
ENDMDL
MODEL 3
REMARK VINA RESULT:      -6.0      2.766      6.152
REMARK  Name = 
REMARK  10 active torsions:
REMARK  status: ('A' for Active; 'I' for Inactive)
REMARK    1  A    between atoms: C_1  and  C_2
REMARK    2  A    between atoms: C_2  and  C_3
REMARK    3  A    between atoms: C_3  and  S_4
REMARK    4  A    between atoms: S_4  and  N_7
REMARK    5  A    between atoms: N_7  and  C_8
REMARK    6  A    between atoms: C_8  and  C_9
REMARK    7  A    between atoms: C_12  and  C_13
REMARK    8  A    between atoms: C_14  and  O_15
REMARK    9  A    between atoms: O_15  and  C_16
REMARK   10  A    between atoms: C_17  and  C_18
REMARK                            x       y       z     vdW  Elec       q    Type
REMARK                         _______ _______ _______ _____ _____    ______ ____
ROOT
ATOM      1  C   UNL     1       4.009   4.303  18.242  0.00  0.00    +0.000 A 
ATOM      2  N   UNL     1       3.536   5.525  17.913  0.00  0.00    +0.000 NA
ATOM      3  C   UNL     1       2.705   6.121  18.790  0.00  0.00    +0.000 A 
ATOM      4  C   UNL     1       2.317   5.591  20.021  0.00  0.00    +0.000 A 
ATOM      5  C   UNL     1       1.375   6.413  20.844  0.00  0.00    +0.000 C 
ATOM      6  C   UNL     1       2.825   4.326  20.353  0.00  0.00    +0.000 A 
ATOM      7  C   UNL     1       3.665   3.649  19.436  0.00  0.00    +0.000 A 
ATOM      8  C   UNL     1       4.172   2.256  19.714  0.00  0.00    +0.000 C 
ENDROOT
BRANCH   6   9
ATOM      9  O   UNL     1       2.519   3.586  21.464  0.00  0.00    +0.000 OA
ATOM     10  C   UNL     1       1.338   2.804  21.503  0.00  0.00    +0.000 C 
ENDBRANCH   6   9
BRANCH   1  11
ATOM     11  C   UNL     1       4.938   3.684  17.218  0.00  0.00    +0.000 C 
BRANCH  11  12
ATOM     12  N   UNL     1       5.141   4.568  16.052  0.00  0.00    +0.000 NA
ATOM     13  H   UNL     1       4.860   4.097  15.187  0.00  0.00    +0.000 HD
BRANCH  12  14
ATOM     14  S   UNL     1       6.687   5.207  15.908  0.00  0.00    +0.000 S 
ATOM     15  O   UNL     1       7.541   4.399  16.757  0.00  0.00    +0.000 OA
ATOM     16  O   UNL     1       6.579   6.632  16.087  0.00  0.00    +0.000 OA
BRANCH  14  17
ATOM     17  C   UNL     1       7.079   4.861  14.189  0.00  0.00    +0.000 C 
BRANCH  17  19
ATOM     18  C   UNL     1       6.450   3.482  12.176  0.00  0.00    +0.000 C 
ATOM     19  C   UNL     1       6.112   3.840  13.612  0.00  0.00    +0.000 C 
ENDBRANCH  17  19
ENDBRANCH  14  17
ENDBRANCH  12  14
ENDBRANCH  11  12
ENDBRANCH   1  11
TORSDOF 6
ENDMDL
MODEL 4
REMARK VINA RESULT:      -6.0      2.413      5.714
REMARK  Name = 
REMARK  10 active torsions:
REMARK  status: ('A' for Active; 'I' for Inactive)
REMARK    1  A    between atoms: C_1  and  C_2
REMARK    2  A    between atoms: C_2  and  C_3
REMARK    3  A    between atoms: C_3  and  S_4
REMARK    4  A    between atoms: S_4  and  N_7
REMARK    5  A    between atoms: N_7  and  C_8
REMARK    6  A    between atoms: C_8  and  C_9
REMARK    7  A    between atoms: C_12  and  C_13
REMARK    8  A    between atoms: C_14  and  O_15
REMARK    9  A    between atoms: O_15  and  C_16
REMARK   10  A    between atoms: C_17  and  C_18
REMARK                            x       y       z     vdW  Elec       q    Type
REMARK                         _______ _______ _______ _____ _____    ______ ____
ROOT
ATOM      1  C   UNL     1       3.416   4.340  17.947  0.00  0.00    +0.000 A 
ATOM      2  N   UNL     1       3.585   5.667  18.136  0.00  0.00    +0.000 NA
ATOM      3  C   UNL     1       2.880   6.245  19.128  0.00  0.00    +0.000 A 
ATOM      4  C   UNL     1       2.013   5.578  19.995  0.00  0.00    +0.000 A 
ATOM      5  C   UNL     1       1.318   6.409  21.026  0.00  0.00    +0.000 C 
ATOM      6  C   UNL     1       1.856   4.198  19.793  0.00  0.00    +0.000 A 
ATOM      7  C   UNL     1       2.546   3.565  18.730  0.00  0.00    +0.000 A 
ATOM      8  C   UNL     1       2.348   2.101  18.426  0.00  0.00    +0.000 C 
ENDROOT
BRANCH   6   9
ATOM      9  O   UNL     1       1.005   3.364  20.467  0.00  0.00    +0.000 OA
ATOM     10  C   UNL     1       1.421   2.724  21.661  0.00  0.00    +0.000 C 
ENDBRANCH   6   9
BRANCH   1  11
ATOM     11  C   UNL     1       4.234   3.749  16.818  0.00  0.00    +0.000 C 
BRANCH  11  12
ATOM     12  N   UNL     1       5.685   3.906  17.046  0.00  0.00    +0.000 NA
ATOM     13  H   UNL     1       5.870   4.205  18.008  0.00  0.00    +0.000 HD
BRANCH  12  14
ATOM     14  S   UNL     1       6.471   4.905  15.950  0.00  0.00    +0.000 S 
ATOM     15  O   UNL     1       5.678   4.878  14.735  0.00  0.00    +0.000 OA
ATOM     16  O   UNL     1       7.861   4.530  15.950  0.00  0.00    +0.000 OA
BRANCH  14  17
ATOM     17  C   UNL     1       6.300   6.520  16.721  0.00  0.00    +0.000 C 
BRANCH  17  19
ATOM     18  C   UNL     1       7.917   8.189  17.693  0.00  0.00    +0.000 C 
ATOM     19  C   UNL     1       7.417   6.756  17.725  0.00  0.00    +0.000 C 
ENDBRANCH  17  19
ENDBRANCH  14  17
ENDBRANCH  12  14
ENDBRANCH  11  12
ENDBRANCH   1  11
TORSDOF 6
ENDMDL
MODEL 5
REMARK VINA RESULT:      -5.9      2.576      5.565
REMARK  Name = 
REMARK  10 active torsions:
REMARK  status: ('A' for Active; 'I' for Inactive)
REMARK    1  A    between atoms: C_1  and  C_2
REMARK    2  A    between atoms: C_2  and  C_3
REMARK    3  A    between atoms: C_3  and  S_4
REMARK    4  A    between atoms: S_4  and  N_7
REMARK    5  A    between atoms: N_7  and  C_8
REMARK    6  A    between atoms: C_8  and  C_9
REMARK    7  A    between atoms: C_12  and  C_13
REMARK    8  A    between atoms: C_14  and  O_15
REMARK    9  A    between atoms: O_15  and  C_16
REMARK   10  A    between atoms: C_17  and  C_18
REMARK                            x       y       z     vdW  Elec       q    Type
REMARK                         _______ _______ _______ _____ _____    ______ ____
ROOT
ATOM      1  C   UNL     1       3.665   3.864  18.020  0.00  0.00    +0.000 A 
ATOM      2  N   UNL     1       3.893   2.665  18.601  0.00  0.00    +0.000 NA
ATOM      3  C   UNL     1       3.196   2.377  19.717  0.00  0.00    +0.000 A 
ATOM      4  C   UNL     1       2.238   3.204  20.305  0.00  0.00    +0.000 A 
ATOM      5  C   UNL     1       1.583   2.700  21.552  0.00  0.00    +0.000 C 
ATOM      6  C   UNL     1       2.005   4.441  19.685  0.00  0.00    +0.000 A 
ATOM      7  C   UNL     1       2.752   4.797  18.536  0.00  0.00    +0.000 A 
ATOM      8  C   UNL     1       2.592   6.147  17.881  0.00  0.00    +0.000 C 
ENDROOT
BRANCH   6   9
ATOM      9  O   UNL     1       1.175   5.436  20.128  0.00  0.00    +0.000 OA
ATOM     10  C   UNL     1       1.654   6.428  21.019  0.00  0.00    +0.000 C 
ENDBRANCH   6   9
BRANCH   1  11
ATOM     11  C   UNL     1       4.477   4.129  16.770  0.00  0.00    +0.000 C 
BRANCH  11  12
ATOM     12  N   UNL     1       5.848   3.591  16.877  0.00  0.00    +0.000 NA
ATOM     13  H   UNL     1       5.851   2.710  17.400  0.00  0.00    +0.000 HD
BRANCH  12  14
ATOM     14  S   UNL     1       6.983   4.659  17.500  0.00  0.00    +0.000 S 
ATOM     15  O   UNL     1       8.283   4.134  17.123  0.00  0.00    +0.000 OA
ATOM     16  O   UNL     1       6.638   4.895  18.878  0.00  0.00    +0.000 OA
BRANCH  14  17
ATOM     17  C   UNL     1       6.660   6.149  16.550  0.00  0.00    +0.000 C 
BRANCH  17  19
ATOM     18  C   UNL     1       7.825   8.099  17.640  0.00  0.00    +0.000 C 
ATOM     19  C   UNL     1       6.515   7.351  17.470  0.00  0.00    +0.000 C 
ENDBRANCH  17  19
ENDBRANCH  14  17
ENDBRANCH  12  14
ENDBRANCH  11  12
ENDBRANCH   1  11
TORSDOF 6
ENDMDL
MODEL 6
REMARK VINA RESULT:      -5.9      2.428      5.708
REMARK  Name = 
REMARK  10 active torsions:
REMARK  status: ('A' for Active; 'I' for Inactive)
REMARK    1  A    between atoms: C_1  and  C_2
REMARK    2  A    between atoms: C_2  and  C_3
REMARK    3  A    between atoms: C_3  and  S_4
REMARK    4  A    between atoms: S_4  and  N_7
REMARK    5  A    between atoms: N_7  and  C_8
REMARK    6  A    between atoms: C_8  and  C_9
REMARK    7  A    between atoms: C_12  and  C_13
REMARK    8  A    between atoms: C_14  and  O_15
REMARK    9  A    between atoms: O_15  and  C_16
REMARK   10  A    between atoms: C_17  and  C_18
REMARK                            x       y       z     vdW  Elec       q    Type
REMARK                         _______ _______ _______ _____ _____    ______ ____
ROOT
ATOM      1  C   UNL     1       3.990   4.788  18.515  0.00  0.00    +0.000 A 
ATOM      2  N   UNL     1       3.570   6.041  18.234  0.00  0.00    +0.000 NA
ATOM      3  C   UNL     1       2.680   6.598  19.078  0.00  0.00    +0.000 A 
ATOM      4  C   UNL     1       2.180   5.997  20.234  0.00  0.00    +0.000 A 
ATOM      5  C   UNL     1       1.189   6.786  21.031  0.00  0.00    +0.000 C 
ATOM      6  C   UNL     1       2.633   4.700  20.518  0.00  0.00    +0.000 A 
ATOM      7  C   UNL     1       3.533   4.065  19.628  0.00  0.00    +0.000 A 
ATOM      8  C   UNL     1       3.987   2.644  19.850  0.00  0.00    +0.000 C 
ENDROOT
BRANCH   6   9
ATOM      9  O   UNL     1       2.220   3.895  21.546  0.00  0.00    +0.000 OA
ATOM     10  C   UNL     1       1.190   2.943  21.344  0.00  0.00    +0.000 C 
ENDBRANCH   6   9
BRANCH   1  11
ATOM     11  C   UNL     1       4.989   4.216  17.531  0.00  0.00    +0.000 C 
BRANCH  11  12
ATOM     12  N   UNL     1       6.280   3.903  18.174  0.00  0.00    +0.000 NA
ATOM     13  H   UNL     1       6.225   4.048  19.186  0.00  0.00    +0.000 HD
BRANCH  12  14
ATOM     14  S   UNL     1       7.607   4.703  17.529  0.00  0.00    +0.000 S 
ATOM     15  O   UNL     1       7.290   4.955  16.135  0.00  0.00    +0.000 OA
ATOM     16  O   UNL     1       8.782   3.963  17.912  0.00  0.00    +0.000 OA
BRANCH  14  17
ATOM     17  C   UNL     1       7.579   6.262  18.423  0.00  0.00    +0.000 C 
BRANCH  17  19
ATOM     18  C   UNL     1       8.035   8.673  17.852  0.00  0.00    +0.000 C 
ATOM     19  C   UNL     1       7.270   7.415  17.481  0.00  0.00    +0.000 C 
ENDBRANCH  17  19
ENDBRANCH  14  17
ENDBRANCH  12  14
ENDBRANCH  11  12
ENDBRANCH   1  11
TORSDOF 6
ENDMDL
MODEL 7
REMARK VINA RESULT:      -5.8      2.489      5.711
REMARK  Name = 
REMARK  10 active torsions:
REMARK  status: ('A' for Active; 'I' for Inactive)
REMARK    1  A    between atoms: C_1  and  C_2
REMARK    2  A    between atoms: C_2  and  C_3
REMARK    3  A    between atoms: C_3  and  S_4
REMARK    4  A    between atoms: S_4  and  N_7
REMARK    5  A    between atoms: N_7  and  C_8
REMARK    6  A    between atoms: C_8  and  C_9
REMARK    7  A    between atoms: C_12  and  C_13
REMARK    8  A    between atoms: C_14  and  O_15
REMARK    9  A    between atoms: O_15  and  C_16
REMARK   10  A    between atoms: C_17  and  C_18
REMARK                            x       y       z     vdW  Elec       q    Type
REMARK                         _______ _______ _______ _____ _____    ______ ____
ROOT
ATOM      1  C   UNL     1       3.846   4.156  18.055  0.00  0.00    +0.000 A 
ATOM      2  N   UNL     1       3.933   5.496  18.204  0.00  0.00    +0.000 NA
ATOM      3  C   UNL     1       3.100   6.074  19.090  0.00  0.00    +0.000 A 
ATOM      4  C   UNL     1       2.175   5.398  19.888  0.00  0.00    +0.000 A 
ATOM      5  C   UNL     1       1.335   6.232  20.804  0.00  0.00    +0.000 C 
ATOM      6  C   UNL     1       2.104   4.006  19.730  0.00  0.00    +0.000 A 
ATOM      7  C   UNL     1       2.932   3.369  18.774  0.00  0.00    +0.000 A 
ATOM      8  C   UNL     1       2.835   1.886  18.514  0.00  0.00    +0.000 C 
ENDROOT
BRANCH   6   9
ATOM      9  O   UNL     1       1.223   3.156  20.345  0.00  0.00    +0.000 OA
ATOM     10  C   UNL     1       1.482   2.677  21.653  0.00  0.00    +0.000 C 
ENDBRANCH   6   9
BRANCH   1  11
ATOM     11  C   UNL     1       4.807   3.564  17.046  0.00  0.00    +0.000 C 
BRANCH  11  12
ATOM     12  N   UNL     1       4.811   4.321  15.778  0.00  0.00    +0.000 NA
ATOM     13  H   UNL     1       4.589   3.707  14.989  0.00  0.00    +0.000 HD
BRANCH  12  14
ATOM     14  S   UNL     1       6.212   5.195  15.478  0.00  0.00    +0.000 S 
ATOM     15  O   UNL     1       5.833   6.595  15.517  0.00  0.00    +0.000 OA
ATOM     16  O   UNL     1       6.837   4.616  14.317  0.00  0.00    +0.000 OA
BRANCH  14  17
ATOM     17  C   UNL     1       7.208   4.821  16.927  0.00  0.00    +0.000 C 
BRANCH  17  19
ATOM     18  C   UNL     1       7.785   5.772  19.187  0.00  0.00    +0.000 C 
ATOM     19  C   UNL     1       7.476   6.081  17.733  0.00  0.00    +0.000 C 
ENDBRANCH  17  19
ENDBRANCH  14  17
ENDBRANCH  12  14
ENDBRANCH  11  12
ENDBRANCH   1  11
TORSDOF 6
ENDMDL
MODEL 8
REMARK VINA RESULT:      -5.8      2.688      6.113
REMARK  Name = 
REMARK  10 active torsions:
REMARK  status: ('A' for Active; 'I' for Inactive)
REMARK    1  A    between atoms: C_1  and  C_2
REMARK    2  A    between atoms: C_2  and  C_3
REMARK    3  A    between atoms: C_3  and  S_4
REMARK    4  A    between atoms: S_4  and  N_7
REMARK    5  A    between atoms: N_7  and  C_8
REMARK    6  A    between atoms: C_8  and  C_9
REMARK    7  A    between atoms: C_12  and  C_13
REMARK    8  A    between atoms: C_14  and  O_15
REMARK    9  A    between atoms: O_15  and  C_16
REMARK   10  A    between atoms: C_17  and  C_18
REMARK                            x       y       z     vdW  Elec       q    Type
REMARK                         _______ _______ _______ _____ _____    ______ ____
ROOT
ATOM      1  C   UNL     1       5.058   4.447  18.721  0.00  0.00    +0.000 A 
ATOM      2  N   UNL     1       5.274   3.277  19.361  0.00  0.00    +0.000 NA
ATOM      3  C   UNL     1       4.271   2.794  20.120  0.00  0.00    +0.000 A 
ATOM      4  C   UNL     1       3.019   3.390  20.275  0.00  0.00    +0.000 A 
ATOM      5  C   UNL     1       2.046   2.694  21.174  0.00  0.00    +0.000 C 
ATOM      6  C   UNL     1       2.806   4.599  19.596  0.00  0.00    +0.000 A 
ATOM      7  C   UNL     1       3.853   5.160  18.826  0.00  0.00    +0.000 A 
ATOM      8  C   UNL     1       3.698   6.496  18.142  0.00  0.00    +0.000 C 
ENDROOT
BRANCH   6   9
ATOM      9  O   UNL     1       1.692   5.392  19.666  0.00  0.00    +0.000 OA
ATOM     10  C   UNL     1       1.492   6.255  20.772  0.00  0.00    +0.000 C 
ENDBRANCH   6   9
BRANCH   1  11
ATOM     11  C   UNL     1       6.221   4.938  17.884  0.00  0.00    +0.000 C 
BRANCH  11  12
ATOM     12  N   UNL     1       6.474   4.062  16.723  0.00  0.00    +0.000 NA
ATOM     13  H   UNL     1       7.350   3.546  16.843  0.00  0.00    +0.000 HD
BRANCH  12  14
ATOM     14  S   UNL     1       6.435   4.831  15.232  0.00  0.00    +0.000 S 
ATOM     15  O   UNL     1       7.775   5.337  15.001  0.00  0.00    +0.000 OA
ATOM     16  O   UNL     1       5.289   5.704  15.230  0.00  0.00    +0.000 OA
BRANCH  14  17
ATOM     17  C   UNL     1       6.129   3.461  14.109  0.00  0.00    +0.000 C 
BRANCH  17  19
ATOM     18  C   UNL     1       5.101   3.197  11.824  0.00  0.00    +0.000 C 
ATOM     19  C   UNL     1       6.122   3.941  12.667  0.00  0.00    +0.000 C 
ENDBRANCH  17  19
ENDBRANCH  14  17
ENDBRANCH  12  14
ENDBRANCH  11  12
ENDBRANCH   1  11
TORSDOF 6
ENDMDL
MODEL 9
REMARK VINA RESULT:      -5.8      2.666      5.841
REMARK  Name = 
REMARK  10 active torsions:
REMARK  status: ('A' for Active; 'I' for Inactive)
REMARK    1  A    between atoms: C_1  and  C_2
REMARK    2  A    between atoms: C_2  and  C_3
REMARK    3  A    between atoms: C_3  and  S_4
REMARK    4  A    between atoms: S_4  and  N_7
REMARK    5  A    between atoms: N_7  and  C_8
REMARK    6  A    between atoms: C_8  and  C_9
REMARK    7  A    between atoms: C_12  and  C_13
REMARK    8  A    between atoms: C_14  and  O_15
REMARK    9  A    between atoms: O_15  and  C_16
REMARK   10  A    between atoms: C_17  and  C_18
REMARK                            x       y       z     vdW  Elec       q    Type
REMARK                         _______ _______ _______ _____ _____    ______ ____
ROOT
ATOM      1  C   UNL     1       3.625   5.004  17.736  0.00  0.00    +0.000 A 
ATOM      2  N   UNL     1       3.476   3.961  16.890  0.00  0.00    +0.000 NA
ATOM      3  C   UNL     1       2.572   3.020  17.224  0.00  0.00    +0.000 A 
ATOM      4  C   UNL     1       1.757   3.051  18.357  0.00  0.00    +0.000 A 
ATOM      5  C   UNL     1       0.823   1.898  18.548  0.00  0.00    +0.000 C 
ATOM      6  C   UNL     1       1.916   4.145  19.220  0.00  0.00    +0.000 A 
ATOM      7  C   UNL     1       2.890   5.131  18.925  0.00  0.00    +0.000 A 
ATOM      8  C   UNL     1       3.151   6.283  19.862  0.00  0.00    +0.000 C 
ENDROOT
BRANCH   6   9
ATOM      9  O   UNL     1       1.285   4.341  20.419  0.00  0.00    +0.000 OA
ATOM     10  C   UNL     1       1.608   3.536  21.541  0.00  0.00    +0.000 C 
ENDBRANCH   6   9
BRANCH   1  11
ATOM     11  C   UNL     1       4.655   6.028  17.307  0.00  0.00    +0.000 C 
BRANCH  11  12
ATOM     12  N   UNL     1       5.853   5.394  16.720  0.00  0.00    +0.000 NA
ATOM     13  H   UNL     1       5.587   4.623  16.100  0.00  0.00    +0.000 HD
BRANCH  12  14
ATOM     14  S   UNL     1       7.009   4.896  17.830  0.00  0.00    +0.000 S 
ATOM     15  O   UNL     1       8.061   4.257  17.062  0.00  0.00    +0.000 OA
ATOM     16  O   UNL     1       6.318   4.199  18.884  0.00  0.00    +0.000 OA
BRANCH  14  17
ATOM     17  C   UNL     1       7.621   6.461  18.465  0.00  0.00    +0.000 C 
BRANCH  17  19
ATOM     18  C   UNL     1       8.086   8.868  17.884  0.00  0.00    +0.000 C 
ATOM     19  C   UNL     1       7.686   7.501  17.359  0.00  0.00    +0.000 C 
ENDBRANCH  17  19
ENDBRANCH  14  17
ENDBRANCH  12  14
ENDBRANCH  11  12
ENDBRANCH   1  11
TORSDOF 6
ENDMDL
