MODEL 1
REMARK VINA RESULT:      -8.9      0.000      0.000
REMARK  Name = 
REMARK  7 active torsions:
REMARK  status: ('A' for Active; 'I' for Inactive)
REMARK    1  A    between atoms: C_1  and  O_2
REMARK    2  A    between atoms: O_2  and  C_3
REMARK    3  A    between atoms: C_8  and  C_9
REMARK    4  A    between atoms: C_15  and  C_16
REMARK    5  A    between atoms: C_16  and  C_17
REMARK    6  A    between atoms: N_21  and  C_22
REMARK    7  A    between atoms: C_22  and  C_23
REMARK                            x       y       z     vdW  Elec       q    Type
REMARK                         _______ _______ _______ _____ _____    ______ ____
ROOT
ATOM      1  C   UNL     1       0.960   8.175  20.490  0.00  0.00    +0.000 A 
ATOM      2  C   UNL     1       1.782   8.372  19.358  0.00  0.00    +0.000 A 
ATOM      3  C   UNL     1       2.674   7.390  18.862  0.00  0.00    +0.000 A 
ATOM      4  C   UNL     1       2.713   6.166  19.538  0.00  0.00    +0.000 A 
ATOM      5  C   UNL     1       1.726   5.836  20.473  0.00  0.00    +0.000 A 
ATOM      6  C   UNL     1       0.892   6.859  20.984  0.00  0.00    +0.000 A 
ATOM      7  C   UNL     1       1.844   4.418  20.614  0.00  0.00    +0.000 A 
ATOM      8  C   UNL     1       3.226   4.274  20.637  0.00  0.00    +0.000 A 
ATOM      9  N   UNL     1       3.555   5.064  19.528  0.00  0.00    +0.000 N 
ENDROOT
BRANCH   1  15
ATOM     10  C   UNL     1      -0.245  10.477  20.571  0.00  0.00    +0.000 A 
ATOM     11  C   UNL     1      -0.961  11.438  21.319  0.00  0.00    +0.000 A 
ATOM     12  C   UNL     1      -1.112  11.312  22.697  0.00  0.00    +0.000 A 
ATOM     13  C   UNL     1      -0.565  10.211  23.339  0.00  0.00    +0.000 A 
ATOM     14  C   UNL     1       0.113   9.235  22.599  0.00  0.00    +0.000 A 
ATOM     15  C   UNL     1       0.297   9.324  21.198  0.00  0.00    +0.000 A 
BRANCH  10  17
ATOM     16  C   UNL     1      -1.280  10.928  18.485  0.00  0.00    +0.000 C 
ATOM     17  O   UNL     1      -0.093  10.610  19.208  0.00  0.00    +0.000 OA
ENDBRANCH  10  17
ENDBRANCH   1  15
BRANCH   7  18
ATOM     18  C   UNL     1       1.051   3.311  19.937  0.00  0.00    +0.000 C 
BRANCH  18  19
ATOM     19  C   UNL     1       1.343   2.903  18.523  0.00  0.00    +0.000 C 
ATOM     20  N   UNL     1       1.883   1.685  18.297  0.00  0.00    +0.000 N 
ATOM     21  O   UNL     1       1.086   3.649  17.577  0.00  0.00    +0.000 OA
ATOM     22  H   UNL     1       2.075   1.060  19.069  0.00  0.00    +0.000 HD
ATOM     23  H   UNL     1       1.628   1.264  17.418  0.00  0.00    +0.000 HD
ENDBRANCH  18  19
ENDBRANCH   7  18
BRANCH   9  24
ATOM     24  C   UNL     1       4.434   4.566  18.470  0.00  0.00    +0.000 C 
BRANCH  24  25
ATOM     25  C   UNL     1       5.672   5.418  18.308  0.00  0.00    +0.000 A 
ATOM     26  C   UNL     1       6.764   5.301  19.190  0.00  0.00    +0.000 A 
ATOM     27  C   UNL     1       7.866   6.149  19.067  0.00  0.00    +0.000 A 
ATOM     28  C   UNL     1       7.895   7.121  18.071  0.00  0.00    +0.000 A 
ATOM     29  C   UNL     1       6.825   7.239  17.188  0.00  0.00    +0.000 A 
ATOM     30  C   UNL     1       5.724   6.391  17.305  0.00  0.00    +0.000 A 
ENDBRANCH  24  25
ENDBRANCH   9  24
TORSDOF 6
ENDMDL
MODEL 2
REMARK VINA RESULT:      -8.3      1.270      1.336
REMARK  Name = 
REMARK  7 active torsions:
REMARK  status: ('A' for Active; 'I' for Inactive)
REMARK    1  A    between atoms: C_1  and  O_2
REMARK    2  A    between atoms: O_2  and  C_3
REMARK    3  A    between atoms: C_8  and  C_9
REMARK    4  A    between atoms: C_15  and  C_16
REMARK    5  A    between atoms: C_16  and  C_17
REMARK    6  A    between atoms: N_21  and  C_22
REMARK    7  A    between atoms: C_22  and  C_23
REMARK                            x       y       z     vdW  Elec       q    Type
REMARK                         _______ _______ _______ _____ _____    ______ ____
ROOT
ATOM      1  C   UNL     1       0.655   9.009  20.351  0.00  0.00    +0.000 A 
ATOM      2  C   UNL     1       1.309   9.149  19.107  0.00  0.00    +0.000 A 
ATOM      3  C   UNL     1       2.191   8.175  18.577  0.00  0.00    +0.000 A 
ATOM      4  C   UNL     1       2.394   7.019  19.338  0.00  0.00    +0.000 A 
ATOM      5  C   UNL     1       1.559   6.721  20.420  0.00  0.00    +0.000 A 
ATOM      6  C   UNL     1       0.734   7.740  20.953  0.00  0.00    +0.000 A 
ATOM      7  C   UNL     1       1.784   5.329  20.657  0.00  0.00    +0.000 A 
ATOM      8  C   UNL     1       3.164   5.261  20.506  0.00  0.00    +0.000 A 
ATOM      9  N   UNL     1       3.296   5.966  19.304  0.00  0.00    +0.000 N 
ENDROOT
BRANCH   1  15
ATOM     10  C   UNL     1      -0.363  11.401  20.428  0.00  0.00    +0.000 A 
ATOM     11  C   UNL     1      -1.073  12.386  21.150  0.00  0.00    +0.000 A 
ATOM     12  C   UNL     1      -1.375  12.215  22.497  0.00  0.00    +0.000 A 
ATOM     13  C   UNL     1      -0.990  11.045  23.133  0.00  0.00    +0.000 A 
ATOM     14  C   UNL     1      -0.319  10.047  22.416  0.00  0.00    +0.000 A 
ATOM     15  C   UNL     1       0.016  10.180  21.047  0.00  0.00    +0.000 A 
BRANCH  10  17
ATOM     16  C   UNL     1       0.577  12.812  18.771  0.00  0.00    +0.000 C 
ATOM     17  O   UNL     1      -0.059  11.578  19.097  0.00  0.00    +0.000 OA
ENDBRANCH  10  17
ENDBRANCH   1  15
BRANCH   7  18
ATOM     18  C   UNL     1       0.982   4.127  20.183  0.00  0.00    +0.000 C 
BRANCH  18  19
ATOM     19  C   UNL     1       1.373   2.732  20.575  0.00  0.00    +0.000 C 
ATOM     20  N   UNL     1       1.472   2.431  21.889  0.00  0.00    +0.000 N 
ATOM     21  O   UNL     1       1.587   1.866  19.726  0.00  0.00    +0.000 OA
ATOM     22  H   UNL     1       1.275   3.134  22.590  0.00  0.00    +0.000 HD
ATOM     23  H   UNL     1       1.255   1.475  22.122  0.00  0.00    +0.000 HD
ENDBRANCH  18  19
ENDBRANCH   7  18
BRANCH   9  24
ATOM     24  C   UNL     1       4.062   5.424  18.181  0.00  0.00    +0.000 C 
BRANCH  24  25
ATOM     25  C   UNL     1       5.489   5.922  18.170  0.00  0.00    +0.000 A 
ATOM     26  C   UNL     1       6.451   5.414  19.064  0.00  0.00    +0.000 A 
ATOM     27  C   UNL     1       7.743   5.942  19.087  0.00  0.00    +0.000 A 
ATOM     28  C   UNL     1       8.094   6.976  18.225  0.00  0.00    +0.000 A 
ATOM     29  C   UNL     1       7.153   7.479  17.328  0.00  0.00    +0.000 A 
ATOM     30  C   UNL     1       5.862   6.953  17.300  0.00  0.00    +0.000 A 
ENDBRANCH  24  25
ENDBRANCH   9  24
TORSDOF 6
ENDMDL
MODEL 3
REMARK VINA RESULT:      -8.2      2.077      3.266
REMARK  Name = 
REMARK  7 active torsions:
REMARK  status: ('A' for Active; 'I' for Inactive)
REMARK    1  A    between atoms: C_1  and  O_2
REMARK    2  A    between atoms: O_2  and  C_3
REMARK    3  A    between atoms: C_8  and  C_9
REMARK    4  A    between atoms: C_15  and  C_16
REMARK    5  A    between atoms: C_16  and  C_17
REMARK    6  A    between atoms: N_21  and  C_22
REMARK    7  A    between atoms: C_22  and  C_23
REMARK                            x       y       z     vdW  Elec       q    Type
REMARK                         _______ _______ _______ _____ _____    ______ ____
ROOT
ATOM      1  C   UNL     1       2.371   7.620  18.461  0.00  0.00    +0.000 A 
ATOM      2  C   UNL     1       3.376   7.883  17.505  0.00  0.00    +0.000 A 
ATOM      3  C   UNL     1       4.542   7.091  17.363  0.00  0.00    +0.000 A 
ATOM      4  C   UNL     1       4.672   5.992  18.216  0.00  0.00    +0.000 A 
ATOM      5  C   UNL     1       3.583   5.540  18.970  0.00  0.00    +0.000 A 
ATOM      6  C   UNL     1       2.460   6.387  19.132  0.00  0.00    +0.000 A 
ATOM      7  C   UNL     1       3.955   4.213  19.354  0.00  0.00    +0.000 A 
ATOM      8  C   UNL     1       5.291   4.403  19.681  0.00  0.00    +0.000 A 
ATOM      9  N   UNL     1       5.701   5.124  18.553  0.00  0.00    +0.000 N 
ENDROOT
BRANCH   1  15
ATOM     10  C   UNL     1       1.013   9.057  20.150  0.00  0.00    +0.000 A 
ATOM     11  C   UNL     1       0.116  10.125  20.378  0.00  0.00    +0.000 A 
ATOM     12  C   UNL     1      -0.515  10.773  19.320  0.00  0.00    +0.000 A 
ATOM     13  C   UNL     1      -0.240  10.375  18.022  0.00  0.00    +0.000 A 
ATOM     14  C   UNL     1       0.677   9.342  17.786  0.00  0.00    +0.000 A 
ATOM     15  C   UNL     1       1.337   8.650  18.829  0.00  0.00    +0.000 A 
BRANCH  10  17
ATOM     16  C   UNL     1       1.502   9.049  22.471  0.00  0.00    +0.000 C 
ATOM     17  O   UNL     1       1.629   8.413  21.200  0.00  0.00    +0.000 OA
ENDBRANCH  10  17
ENDBRANCH   1  15
BRANCH   7  18
ATOM     18  C   UNL     1       3.588   2.884  18.711  0.00  0.00    +0.000 C 
BRANCH  18  19
ATOM     19  C   UNL     1       2.262   2.690  18.036  0.00  0.00    +0.000 C 
ATOM     20  N   UNL     1       1.354   1.872  18.612  0.00  0.00    +0.000 N 
ATOM     21  O   UNL     1       1.990   3.271  16.984  0.00  0.00    +0.000 OA
ATOM     22  H   UNL     1       1.565   1.411  19.487  0.00  0.00    +0.000 HD
ATOM     23  H   UNL     1       0.392   2.121  18.444  0.00  0.00    +0.000 HD
ENDBRANCH  18  19
ENDBRANCH   7  18
BRANCH   9  24
ATOM     24  C   UNL     1       6.888   4.737  17.789  0.00  0.00    +0.000 C 
BRANCH  24  25
ATOM     25  C   UNL     1       6.586   4.555  16.319  0.00  0.00    +0.000 A 
ATOM     26  C   UNL     1       5.515   3.751  15.884  0.00  0.00    +0.000 A 
ATOM     27  C   UNL     1       5.300   3.536  14.521  0.00  0.00    +0.000 A 
ATOM     28  C   UNL     1       6.145   4.114  13.578  0.00  0.00    +0.000 A 
ATOM     29  C   UNL     1       7.202   4.919  13.998  0.00  0.00    +0.000 A 
ATOM     30  C   UNL     1       7.418   5.139  15.358  0.00  0.00    +0.000 A 
ENDBRANCH  24  25
ENDBRANCH   9  24
TORSDOF 6
ENDMDL
MODEL 4
REMARK VINA RESULT:      -8.2      1.733      1.996
REMARK  Name = 
REMARK  7 active torsions:
REMARK  status: ('A' for Active; 'I' for Inactive)
REMARK    1  A    between atoms: C_1  and  O_2
REMARK    2  A    between atoms: O_2  and  C_3
REMARK    3  A    between atoms: C_8  and  C_9
REMARK    4  A    between atoms: C_15  and  C_16
REMARK    5  A    between atoms: C_16  and  C_17
REMARK    6  A    between atoms: N_21  and  C_22
REMARK    7  A    between atoms: C_22  and  C_23
REMARK                            x       y       z     vdW  Elec       q    Type
REMARK                         _______ _______ _______ _____ _____    ______ ____
ROOT
ATOM      1  C   UNL     1       0.916   9.249  20.164  0.00  0.00    +0.000 A 
ATOM      2  C   UNL     1       1.185   9.211  18.778  0.00  0.00    +0.000 A 
ATOM      3  C   UNL     1       1.838   8.128  18.141  0.00  0.00    +0.000 A 
ATOM      4  C   UNL     1       2.212   7.047  18.946  0.00  0.00    +0.000 A 
ATOM      5  C   UNL     1       1.717   6.924  20.249  0.00  0.00    +0.000 A 
ATOM      6  C   UNL     1       1.121   8.048  20.868  0.00  0.00    +0.000 A 
ATOM      7  C   UNL     1       1.951   5.552  20.579  0.00  0.00    +0.000 A 
ATOM      8  C   UNL     1       3.224   5.372  20.051  0.00  0.00    +0.000 A 
ATOM      9  N   UNL     1       3.026   5.936  18.785  0.00  0.00    +0.000 N 
ENDROOT
BRANCH   1  15
ATOM     10  C   UNL     1       0.966  11.830  20.479  0.00  0.00    +0.000 A 
ATOM     11  C   UNL     1       0.460  12.975  21.134  0.00  0.00    +0.000 A 
ATOM     12  C   UNL     1      -0.416  12.862  22.209  0.00  0.00    +0.000 A 
ATOM     13  C   UNL     1      -0.813  11.602  22.628  0.00  0.00    +0.000 A 
ATOM     14  C   UNL     1      -0.346  10.462  21.960  0.00  0.00    +0.000 A 
ATOM     15  C   UNL     1       0.551  10.528  20.867  0.00  0.00    +0.000 A 
BRANCH  10  17
ATOM     16  C   UNL     1       1.702  13.131  18.638  0.00  0.00    +0.000 C 
ATOM     17  O   UNL     1       1.839  11.946  19.420  0.00  0.00    +0.000 OA
ENDBRANCH  10  17
ENDBRANCH   1  15
BRANCH   7  18
ATOM     18  C   UNL     1       1.003   4.365  20.502  0.00  0.00    +0.000 C 
BRANCH  18  19
ATOM     19  C   UNL     1       1.483   2.971  20.779  0.00  0.00    +0.000 C 
ATOM     20  N   UNL     1       1.709   2.606  22.061  0.00  0.00    +0.000 N 
ATOM     21  O   UNL     1       1.656   2.161  19.867  0.00  0.00    +0.000 OA
ATOM     22  H   UNL     1       1.547   3.261  22.815  0.00  0.00    +0.000 HD
ATOM     23  H   UNL     1       1.554   1.630  22.258  0.00  0.00    +0.000 HD
ENDBRANCH  18  19
ENDBRANCH   7  18
BRANCH   9  24
ATOM     24  C   UNL     1       3.412   5.226  17.564  0.00  0.00    +0.000 C 
BRANCH  24  25
ATOM     25  C   UNL     1       4.884   5.376  17.257  0.00  0.00    +0.000 A 
ATOM     26  C   UNL     1       5.562   6.589  17.486  0.00  0.00    +0.000 A 
ATOM     27  C   UNL     1       6.904   6.728  17.125  0.00  0.00    +0.000 A 
ATOM     28  C   UNL     1       7.585   5.668  16.534  0.00  0.00    +0.000 A 
ATOM     29  C   UNL     1       6.926   4.461  16.312  0.00  0.00    +0.000 A 
ATOM     30  C   UNL     1       5.587   4.317  16.674  0.00  0.00    +0.000 A 
ENDBRANCH  24  25
ENDBRANCH   9  24
TORSDOF 6
ENDMDL
MODEL 5
REMARK VINA RESULT:      -8.2      1.959      2.695
REMARK  Name = 
REMARK  7 active torsions:
REMARK  status: ('A' for Active; 'I' for Inactive)
REMARK    1  A    between atoms: C_1  and  O_2
REMARK    2  A    between atoms: O_2  and  C_3
REMARK    3  A    between atoms: C_8  and  C_9
REMARK    4  A    between atoms: C_15  and  C_16
REMARK    5  A    between atoms: C_16  and  C_17
REMARK    6  A    between atoms: N_21  and  C_22
REMARK    7  A    between atoms: C_22  and  C_23
REMARK                            x       y       z     vdW  Elec       q    Type
REMARK                         _______ _______ _______ _____ _____    ______ ____
ROOT
ATOM      1  C   UNL     1       1.402   9.154  19.249  0.00  0.00    +0.000 A 
ATOM      2  C   UNL     1       1.627   8.794  17.902  0.00  0.00    +0.000 A 
ATOM      3  C   UNL     1       2.190   7.554  17.511  0.00  0.00    +0.000 A 
ATOM      4  C   UNL     1       2.518   6.655  18.530  0.00  0.00    +0.000 A 
ATOM      5  C   UNL     1       2.056   6.855  19.836  0.00  0.00    +0.000 A 
ATOM      6  C   UNL     1       1.552   8.127  20.199  0.00  0.00    +0.000 A 
ATOM      7  C   UNL     1       2.212   5.577  20.458  0.00  0.00    +0.000 A 
ATOM      8  C   UNL     1       3.454   5.199  19.964  0.00  0.00    +0.000 A 
ATOM      9  N   UNL     1       3.255   5.482  18.607  0.00  0.00    +0.000 N 
ENDROOT
BRANCH   1  15
ATOM     10  C   UNL     1       0.289  10.991  20.716  0.00  0.00    +0.000 A 
ATOM     11  C   UNL     1       0.214  12.349  21.096  0.00  0.00    +0.000 A 
ATOM     12  C   UNL     1       0.927  13.329  20.412  0.00  0.00    +0.000 A 
ATOM     13  C   UNL     1       1.741  12.958  19.353  0.00  0.00    +0.000 A 
ATOM     14  C   UNL     1       1.851  11.609  18.994  0.00  0.00    +0.000 A 
ATOM     15  C   UNL     1       1.140  10.579  19.656  0.00  0.00    +0.000 A 
BRANCH  10  17
ATOM     16  C   UNL     1      -0.388  10.116  22.813  0.00  0.00    +0.000 C 
ATOM     17  O   UNL     1      -0.424  10.025  21.391  0.00  0.00    +0.000 OA
ENDBRANCH  10  17
ENDBRANCH   1  15
BRANCH   7  18
ATOM     18  C   UNL     1       1.188   4.471  20.660  0.00  0.00    +0.000 C 
BRANCH  18  19
ATOM     19  C   UNL     1       1.615   3.072  20.995  0.00  0.00    +0.000 C 
ATOM     20  N   UNL     1       1.730   2.171  19.994  0.00  0.00    +0.000 N 
ATOM     21  O   UNL     1       1.873   2.743  22.154  0.00  0.00    +0.000 OA
ATOM     22  H   UNL     1       1.541   2.444  19.038  0.00  0.00    +0.000 HD
ATOM     23  H   UNL     1       2.431   1.462  20.140  0.00  0.00    +0.000 HD
ENDBRANCH  18  19
ENDBRANCH   7  18
BRANCH   9  24
ATOM     24  C   UNL     1       3.558   4.496  17.569  0.00  0.00    +0.000 C 
BRANCH  24  25
ATOM     25  C   UNL     1       4.834   4.821  16.827  0.00  0.00    +0.000 A 
ATOM     26  C   UNL     1       5.118   4.252  15.571  0.00  0.00    +0.000 A 
ATOM     27  C   UNL     1       6.336   4.507  14.938  0.00  0.00    +0.000 A 
ATOM     28  C   UNL     1       7.283   5.328  15.544  0.00  0.00    +0.000 A 
ATOM     29  C   UNL     1       7.007   5.905  16.782  0.00  0.00    +0.000 A 
ATOM     30  C   UNL     1       5.790   5.655  17.416  0.00  0.00    +0.000 A 
ENDBRANCH  24  25
ENDBRANCH   9  24
TORSDOF 6
ENDMDL
MODEL 6
REMARK VINA RESULT:      -8.2      0.922      1.304
REMARK  Name = 
REMARK  7 active torsions:
REMARK  status: ('A' for Active; 'I' for Inactive)
REMARK    1  A    between atoms: C_1  and  O_2
REMARK    2  A    between atoms: O_2  and  C_3
REMARK    3  A    between atoms: C_8  and  C_9
REMARK    4  A    between atoms: C_15  and  C_16
REMARK    5  A    between atoms: C_16  and  C_17
REMARK    6  A    between atoms: N_21  and  C_22
REMARK    7  A    between atoms: C_22  and  C_23
REMARK                            x       y       z     vdW  Elec       q    Type
REMARK                         _______ _______ _______ _____ _____    ______ ____
ROOT
ATOM      1  C   UNL     1       1.205   8.281  19.728  0.00  0.00    +0.000 A 
ATOM      2  C   UNL     1       2.176   8.173  18.708  0.00  0.00    +0.000 A 
ATOM      3  C   UNL     1       3.016   7.044  18.549  0.00  0.00    +0.000 A 
ATOM      4  C   UNL     1       2.845   5.991  19.453  0.00  0.00    +0.000 A 
ATOM      5  C   UNL     1       1.722   5.941  20.286  0.00  0.00    +0.000 A 
ATOM      6  C   UNL     1       0.941   7.108  20.459  0.00  0.00    +0.000 A 
ATOM      7  C   UNL     1       1.675   4.579  20.721  0.00  0.00    +0.000 A 
ATOM      8  C   UNL     1       3.021   4.340  20.967  0.00  0.00    +0.000 A 
ATOM      9  N   UNL     1       3.564   4.852  19.782  0.00  0.00    +0.000 N 
ENDROOT
BRANCH   1  15
ATOM     10  C   UNL     1      -0.262  10.375  19.251  0.00  0.00    +0.000 A 
ATOM     11  C   UNL     1      -0.899  11.537  19.738  0.00  0.00    +0.000 A 
ATOM     12  C   UNL     1      -0.680  11.988  21.037  0.00  0.00    +0.000 A 
ATOM     13  C   UNL     1       0.162  11.268  21.869  0.00  0.00    +0.000 A 
ATOM     14  C   UNL     1       0.768  10.093  21.406  0.00  0.00    +0.000 A 
ATOM     15  C   UNL     1       0.581   9.601  20.092  0.00  0.00    +0.000 A 
BRANCH  10  17
ATOM     16  C   UNL     1      -1.781  10.174  17.441  0.00  0.00    +0.000 C 
ATOM     17  O   UNL     1      -0.475   9.937  17.962  0.00  0.00    +0.000 OA
ENDBRANCH  10  17
ENDBRANCH   1  15
BRANCH   7  18
ATOM     18  C   UNL     1       0.862   3.417  20.171  0.00  0.00    +0.000 C 
BRANCH  18  19
ATOM     19  C   UNL     1       1.135   2.859  18.806  0.00  0.00    +0.000 C 
ATOM     20  N   UNL     1       1.521   1.568  18.698  0.00  0.00    +0.000 N 
ATOM     21  O   UNL     1       1.000   3.548  17.794  0.00  0.00    +0.000 OA
ATOM     22  H   UNL     1       1.611   0.991  19.525  0.00  0.00    +0.000 HD
ATOM     23  H   UNL     1       1.236   1.109  17.847  0.00  0.00    +0.000 HD
ENDBRANCH  18  19
ENDBRANCH   7  18
BRANCH   9  24
ATOM     24  C   UNL     1       4.512   4.077  18.980  0.00  0.00    +0.000 C 
BRANCH  24  25
ATOM     25  C   UNL     1       5.583   4.947  18.363  0.00  0.00    +0.000 A 
ATOM     26  C   UNL     1       5.652   5.151  16.972  0.00  0.00    +0.000 A 
ATOM     27  C   UNL     1       6.694   5.897  16.418  0.00  0.00    +0.000 A 
ATOM     28  C   UNL     1       7.677   6.445  17.236  0.00  0.00    +0.000 A 
ATOM     29  C   UNL     1       7.612   6.258  18.615  0.00  0.00    +0.000 A 
ATOM     30  C   UNL     1       6.571   5.517  19.173  0.00  0.00    +0.000 A 
ENDBRANCH  24  25
ENDBRANCH   9  24
TORSDOF 6
ENDMDL
MODEL 7
REMARK VINA RESULT:      -8.2      3.500      8.113
REMARK  Name = 
REMARK  7 active torsions:
REMARK  status: ('A' for Active; 'I' for Inactive)
REMARK    1  A    between atoms: C_1  and  O_2
REMARK    2  A    between atoms: O_2  and  C_3
REMARK    3  A    between atoms: C_8  and  C_9
REMARK    4  A    between atoms: C_15  and  C_16
REMARK    5  A    between atoms: C_16  and  C_17
REMARK    6  A    between atoms: N_21  and  C_22
REMARK    7  A    between atoms: C_22  and  C_23
REMARK                            x       y       z     vdW  Elec       q    Type
REMARK                         _______ _______ _______ _____ _____    ______ ____
ROOT
ATOM      1  C   UNL     1       5.265   4.684  15.417  0.00  0.00    +0.000 A 
ATOM      2  C   UNL     1       5.574   5.949  15.965  0.00  0.00    +0.000 A 
ATOM      3  C   UNL     1       4.919   6.488  17.099  0.00  0.00    +0.000 A 
ATOM      4  C   UNL     1       3.930   5.700  17.697  0.00  0.00    +0.000 A 
ATOM      5  C   UNL     1       3.796   4.348  17.363  0.00  0.00    +0.000 A 
ATOM      6  C   UNL     1       4.423   3.864  16.190  0.00  0.00    +0.000 A 
ATOM      7  C   UNL     1       3.023   3.802  18.435  0.00  0.00    +0.000 A 
ATOM      8  C   UNL     1       2.083   4.808  18.615  0.00  0.00    +0.000 A 
ATOM      9  N   UNL     1       2.938   5.917  18.642  0.00  0.00    +0.000 N 
ENDROOT
BRANCH   1  15
ATOM     10  C   UNL     1       6.968   4.597  13.454  0.00  0.00    +0.000 A 
ATOM     11  C   UNL     1       7.333   4.066  12.197  0.00  0.00    +0.000 A 
ATOM     12  C   UNL     1       6.454   3.270  11.469  0.00  0.00    +0.000 A 
ATOM     13  C   UNL     1       5.208   2.978  12.000  0.00  0.00    +0.000 A 
ATOM     14  C   UNL     1       4.853   3.469  13.262  0.00  0.00    +0.000 A 
ATOM     15  C   UNL     1       5.710   4.288  14.036  0.00  0.00    +0.000 A 
BRANCH  10  17
ATOM     16  C   UNL     1       8.914   5.953  13.419  0.00  0.00    +0.000 C 
ATOM     17  O   UNL     1       7.838   5.391  14.168  0.00  0.00    +0.000 OA
ENDBRANCH  10  17
ENDBRANCH   1  15
BRANCH   7  18
ATOM     18  C   UNL     1       3.488   3.067  19.683  0.00  0.00    +0.000 C 
BRANCH  18  19
ATOM     19  C   UNL     1       4.355   1.846  19.585  0.00  0.00    +0.000 C 
ATOM     20  N   UNL     1       4.166   0.996  18.552  0.00  0.00    +0.000 N 
ATOM     21  O   UNL     1       5.236   1.620  20.416  0.00  0.00    +0.000 OA
ATOM     22  H   UNL     1       3.458   1.190  17.855  0.00  0.00    +0.000 HD
ATOM     23  H   UNL     1       4.993   0.511  18.244  0.00  0.00    +0.000 HD
ENDBRANCH  18  19
ENDBRANCH   7  18
BRANCH   9  24
ATOM     24  C   UNL     1       2.865   6.912  19.713  0.00  0.00    +0.000 C 
BRANCH  24  25
ATOM     25  C   UNL     1       1.926   8.047  19.375  0.00  0.00    +0.000 A 
ATOM     26  C   UNL     1       1.847   8.571  18.070  0.00  0.00    +0.000 A 
ATOM     27  C   UNL     1       1.028   9.668  17.797  0.00  0.00    +0.000 A 
ATOM     28  C   UNL     1       0.281  10.256  18.814  0.00  0.00    +0.000 A 
ATOM     29  C   UNL     1       0.344   9.739  20.106  0.00  0.00    +0.000 A 
ATOM     30  C   UNL     1       1.158   8.641  20.382  0.00  0.00    +0.000 A 
ENDBRANCH  24  25
ENDBRANCH   9  24
TORSDOF 6
ENDMDL
MODEL 8
REMARK VINA RESULT:      -8.1      2.519      4.890
REMARK  Name = 
REMARK  7 active torsions:
REMARK  status: ('A' for Active; 'I' for Inactive)
REMARK    1  A    between atoms: C_1  and  O_2
REMARK    2  A    between atoms: O_2  and  C_3
REMARK    3  A    between atoms: C_8  and  C_9
REMARK    4  A    between atoms: C_15  and  C_16
REMARK    5  A    between atoms: C_16  and  C_17
REMARK    6  A    between atoms: N_21  and  C_22
REMARK    7  A    between atoms: C_22  and  C_23
REMARK                            x       y       z     vdW  Elec       q    Type
REMARK                         _______ _______ _______ _____ _____    ______ ____
ROOT
ATOM      1  C   UNL     1       1.611   9.040  18.698  0.00  0.00    +0.000 A 
ATOM      2  C   UNL     1       1.555   8.125  19.773  0.00  0.00    +0.000 A 
ATOM      3  C   UNL     1       2.270   6.903  19.792  0.00  0.00    +0.000 A 
ATOM      4  C   UNL     1       3.075   6.618  18.686  0.00  0.00    +0.000 A 
ATOM      5  C   UNL     1       3.375   7.611  17.746  0.00  0.00    +0.000 A 
ATOM      6  C   UNL     1       2.599   8.795  17.726  0.00  0.00    +0.000 A 
ATOM      7  C   UNL     1       4.511   7.096  17.048  0.00  0.00    +0.000 A 
ATOM      8  C   UNL     1       4.143   5.764  16.902  0.00  0.00    +0.000 A 
ATOM      9  N   UNL     1       3.738   5.494  18.215  0.00  0.00    +0.000 N 
ENDROOT
BRANCH   1  15
ATOM     10  C   UNL     1       0.811  11.510  18.839  0.00  0.00    +0.000 A 
ATOM     11  C   UNL     1      -0.169  12.480  18.531  0.00  0.00    +0.000 A 
ATOM     12  C   UNL     1      -1.392  12.117  17.974  0.00  0.00    +0.000 A 
ATOM     13  C   UNL     1      -1.639  10.781  17.699  0.00  0.00    +0.000 A 
ATOM     14  C   UNL     1      -0.658   9.818  17.966  0.00  0.00    +0.000 A 
ATOM     15  C   UNL     1       0.596  10.139  18.538  0.00  0.00    +0.000 A 
BRANCH  10  17
ATOM     16  C   UNL     1       2.400  13.233  19.200  0.00  0.00    +0.000 C 
ATOM     17  O   UNL     1       2.017  11.873  19.397  0.00  0.00    +0.000 OA
ENDBRANCH  10  17
ENDBRANCH   1  15
BRANCH   7  18
ATOM     18  C   UNL     1       5.990   7.378  17.270  0.00  0.00    +0.000 C 
BRANCH  18  19
ATOM     19  C   UNL     1       7.022   6.310  17.059  0.00  0.00    +0.000 C 
ATOM     20  N   UNL     1       7.510   5.657  18.137  0.00  0.00    +0.000 N 
ATOM     21  O   UNL     1       7.414   6.015  15.929  0.00  0.00    +0.000 OA
ATOM     22  H   UNL     1       7.174   5.881  19.064  0.00  0.00    +0.000 HD
ATOM     23  H   UNL     1       7.787   4.704  17.966  0.00  0.00    +0.000 HD
ENDBRANCH  18  19
ENDBRANCH   7  18
BRANCH   9  24
ATOM     24  C   UNL     1       4.238   4.328  18.943  0.00  0.00    +0.000 C 
BRANCH  24  25
ATOM     25  C   UNL     1       3.144   3.621  19.710  0.00  0.00    +0.000 A 
ATOM     26  C   UNL     1       1.985   3.147  19.067  0.00  0.00    +0.000 A 
ATOM     27  C   UNL     1       0.954   2.566  19.806  0.00  0.00    +0.000 A 
ATOM     28  C   UNL     1       1.061   2.448  21.189  0.00  0.00    +0.000 A 
ATOM     29  C   UNL     1       2.209   2.904  21.834  0.00  0.00    +0.000 A 
ATOM     30  C   UNL     1       3.242   3.484  21.099  0.00  0.00    +0.000 A 
ENDBRANCH  24  25
ENDBRANCH   9  24
TORSDOF 6
ENDMDL
MODEL 9
REMARK VINA RESULT:      -8.1      1.659      1.959
REMARK  Name = 
REMARK  7 active torsions:
REMARK  status: ('A' for Active; 'I' for Inactive)
REMARK    1  A    between atoms: C_1  and  O_2
REMARK    2  A    between atoms: O_2  and  C_3
REMARK    3  A    between atoms: C_8  and  C_9
REMARK    4  A    between atoms: C_15  and  C_16
REMARK    5  A    between atoms: C_16  and  C_17
REMARK    6  A    between atoms: N_21  and  C_22
REMARK    7  A    between atoms: C_22  and  C_23
REMARK                            x       y       z     vdW  Elec       q    Type
REMARK                         _______ _______ _______ _____ _____    ______ ____
ROOT
ATOM      1  C   UNL     1       0.857   9.252  20.326  0.00  0.00    +0.000 A 
ATOM      2  C   UNL     1       1.203   9.321  18.958  0.00  0.00    +0.000 A 
ATOM      3  C   UNL     1       1.920   8.302  18.285  0.00  0.00    +0.000 A 
ATOM      4  C   UNL     1       2.279   7.175  19.031  0.00  0.00    +0.000 A 
ATOM      5  C   UNL     1       1.717   6.946  20.292  0.00  0.00    +0.000 A 
ATOM      6  C   UNL     1       1.056   8.009  20.954  0.00  0.00    +0.000 A 
ATOM      7  C   UNL     1       1.971   5.560  20.537  0.00  0.00    +0.000 A 
ATOM      8  C   UNL     1       3.275   5.450  20.071  0.00  0.00    +0.000 A 
ATOM      9  N   UNL     1       3.132   6.099  18.839  0.00  0.00    +0.000 N 
ENDROOT
BRANCH   1  15
ATOM     10  C   UNL     1       0.771  11.809  20.789  0.00  0.00    +0.000 A 
ATOM     11  C   UNL     1       0.199  12.887  21.501  0.00  0.00    +0.000 A 
ATOM     12  C   UNL     1      -0.684  12.668  22.554  0.00  0.00    +0.000 A 
ATOM     13  C   UNL     1      -1.022  11.367  22.893  0.00  0.00    +0.000 A 
ATOM     14  C   UNL     1      -0.489  10.294  22.168  0.00  0.00    +0.000 A 
ATOM     15  C   UNL     1       0.417  10.468  21.095  0.00  0.00    +0.000 A 
BRANCH  10  17
ATOM     16  C   UNL     1       1.277  13.059  18.838  0.00  0.00    +0.000 C 
ATOM     17  O   UNL     1       1.651  12.031  19.753  0.00  0.00    +0.000 OA
ENDBRANCH  10  17
ENDBRANCH   1  15
BRANCH   7  18
ATOM     18  C   UNL     1       1.061   4.360  20.322  0.00  0.00    +0.000 C 
BRANCH  18  19
ATOM     19  C   UNL     1       1.504   2.976  20.697  0.00  0.00    +0.000 C 
ATOM     20  N   UNL     1       1.770   2.710  21.995  0.00  0.00    +0.000 N 
ATOM     21  O   UNL     1       1.612   2.088  19.851  0.00  0.00    +0.000 OA
ATOM     22  H   UNL     1       1.660   3.431  22.697  0.00  0.00    +0.000 HD
ATOM     23  H   UNL     1       1.589   1.760  22.279  0.00  0.00    +0.000 HD
ENDBRANCH  18  19
ENDBRANCH   7  18
BRANCH   9  24
ATOM     24  C   UNL     1       3.604   5.488  17.595  0.00  0.00    +0.000 C 
BRANCH  24  25
ATOM     25  C   UNL     1       5.099   5.266  17.599  0.00  0.00    +0.000 A 
ATOM     26  C   UNL     1       5.746   4.600  16.540  0.00  0.00    +0.000 A 
ATOM     27  C   UNL     1       7.116   4.340  16.600  0.00  0.00    +0.000 A 
ATOM     28  C   UNL     1       7.857   4.736  17.709  0.00  0.00    +0.000 A 
ATOM     29  C   UNL     1       7.229   5.405  18.758  0.00  0.00    +0.000 A 
ATOM     30  C   UNL     1       5.861   5.669  18.701  0.00  0.00    +0.000 A 
ENDBRANCH  24  25
ENDBRANCH   9  24
TORSDOF 6
ENDMDL
