MODEL 1
REMARK VINA RESULT:      -6.4      0.000      0.000
REMARK  Name = 
REMARK  8 active torsions:
REMARK  status: ('A' for Active; 'I' for Inactive)
REMARK    1  A    between atoms: C_1  and  C_2
REMARK    2  A    between atoms: C_2  and  C_3
REMARK    3  A    between atoms: C_3  and  C_4
REMARK    4  A    between atoms: C_4  and  C_5
REMARK    5  A    between atoms: C_4  and  C_8
REMARK    6  A    between atoms: C_5  and  O_7
REMARK    7  A    between atoms: C_9  and  C_10
REMARK    8  A    between atoms: C_17  and  C_18
REMARK                            x       y       z     vdW  Elec       q    Type
REMARK                         _______ _______ _______ _____ _____    ______ ____
ROOT
ATOM      1  C   UNL     1      -0.999  11.415  19.785  0.00  0.00    +0.000 A 
ATOM      2  C   UNL     1      -0.925  10.676  18.595  0.00  0.00    +0.000 A 
ATOM      3  C   UNL     1       0.248   9.837  18.127  0.00  0.00    +0.000 C 
ATOM      4  N   UNL     1      -1.905  10.628  17.700  0.00  0.00    +0.000 NA
ATOM      5  C   UNL     1      -3.033  11.268  18.023  0.00  0.00    +0.000 A 
ATOM      6  S   UNL     1      -4.295  11.150  16.881  0.00  0.00    +0.000 S 
ATOM      7  C   UNL     1      -5.326  12.049  17.852  0.00  0.00    +0.000 A 
ATOM      8  C   UNL     1      -4.729  12.502  19.024  0.00  0.00    +0.000 A 
ATOM      9  C   UNL     1      -3.318  12.012  19.168  0.00  0.00    +0.000 A 
ATOM     10  C   UNL     1      -2.220  12.112  20.167  0.00  0.00    +0.000 A 
ATOM     11  C   UNL     1      -5.572  13.338  19.953  0.00  0.00    +0.000 C 
ATOM     12  C   UNL     1      -6.834  13.915  19.297  0.00  0.00    +0.000 C 
ATOM     13  C   UNL     1      -7.594  12.845  18.537  0.00  0.00    +0.000 C 
ATOM     14  C   UNL     1      -6.734  12.315  17.392  0.00  0.00    +0.000 C 
ENDROOT
BRANCH  10  15
ATOM     15  C   UNL     1      -2.372  12.996  21.428  0.00  0.00    +0.000 A 
ATOM     16  C   UNL     1      -3.137  12.425  22.463  0.00  0.00    +0.000 A 
ATOM     17  C   UNL     1      -3.143  12.894  23.795  0.00  0.00    +0.000 A 
ATOM     18  C   UNL     1      -2.552  14.096  24.115  0.00  0.00    +0.000 A 
ATOM     19  C   UNL     1      -2.013  14.829  23.092  0.00  0.00    +0.000 A 
ATOM     20  C   UNL     1      -1.900  14.304  21.783  0.00  0.00    +0.000 A 
ATOM     21 CL   UNL     1      -1.210  15.577  20.835  0.00  0.00    +0.000 Cl
ENDBRANCH  10  15
BRANCH   1  22
ATOM     22  C   UNL     1       0.200  11.413  20.705  0.00  0.00    +0.000 C 
BRANCH  22  23
ATOM     23  C   UNL     1       1.251  12.438  20.349  0.00  0.00    +0.000 C 
ATOM     24  O   UNL     1       1.749  12.570  19.235  0.00  0.00    +0.000 OA
BRANCH  23  25
ATOM     25  O   UNL     1       1.708  13.175  21.400  0.00  0.00    +0.000 OA
ATOM     26  H   UNL     1       1.983  14.086  21.159  0.00  0.00    +0.000 HD
ENDBRANCH  23  25
ENDBRANCH  22  23
BRANCH  22  27
ATOM     27  C   UNL     1       0.711   9.959  20.970  0.00  0.00    +0.000 C 
BRANCH  27  29
ATOM     28  C   UNL     1      -0.544   9.848  23.192  0.00  0.00    +0.000 C 
ATOM     29  C   UNL     1      -0.158   9.101  21.931  0.00  0.00    +0.000 C 
ENDBRANCH  27  29
ENDBRANCH  22  27
ENDBRANCH   1  22
TORSDOF 6
ENDMDL
MODEL 2
REMARK VINA RESULT:      -6.3      1.217      2.098
REMARK  Name = 
REMARK  8 active torsions:
REMARK  status: ('A' for Active; 'I' for Inactive)
REMARK    1  A    between atoms: C_1  and  C_2
REMARK    2  A    between atoms: C_2  and  C_3
REMARK    3  A    between atoms: C_3  and  C_4
REMARK    4  A    between atoms: C_4  and  C_5
REMARK    5  A    between atoms: C_4  and  C_8
REMARK    6  A    between atoms: C_5  and  O_7
REMARK    7  A    between atoms: C_9  and  C_10
REMARK    8  A    between atoms: C_17  and  C_18
REMARK                            x       y       z     vdW  Elec       q    Type
REMARK                         _______ _______ _______ _____ _____    ______ ____
ROOT
ATOM      1  C   UNL     1      -1.147  11.367  19.734  0.00  0.00    +0.000 A 
ATOM      2  C   UNL     1      -1.062  10.648  18.533  0.00  0.00    +0.000 A 
ATOM      3  C   UNL     1       0.100   9.786  18.080  0.00  0.00    +0.000 C 
ATOM      4  N   UNL     1      -2.019  10.644  17.613  0.00  0.00    +0.000 NA
ATOM      5  C   UNL     1      -3.138  11.310  17.919  0.00  0.00    +0.000 A 
ATOM      6  S   UNL     1      -4.372  11.248  16.742  0.00  0.00    +0.000 S 
ATOM      7  C   UNL     1      -5.403  12.157  17.704  0.00  0.00    +0.000 A 
ATOM      8  C   UNL     1      -4.824  12.572  18.899  0.00  0.00    +0.000 A 
ATOM      9  C   UNL     1      -3.432  12.041  19.070  0.00  0.00    +0.000 A 
ATOM     10  C   UNL     1      -2.358  12.091  20.098  0.00  0.00    +0.000 A 
ATOM     11  C   UNL     1      -5.668  13.415  19.822  0.00  0.00    +0.000 C 
ATOM     12  C   UNL     1      -6.896  14.039  19.144  0.00  0.00    +0.000 C 
ATOM     13  C   UNL     1      -7.665  13.004  18.345  0.00  0.00    +0.000 C 
ATOM     14  C   UNL     1      -6.790  12.471  17.213  0.00  0.00    +0.000 C 
ENDROOT
BRANCH  10  15
ATOM     15  C   UNL     1      -2.519  12.956  21.371  0.00  0.00    +0.000 A 
ATOM     16  C   UNL     1      -3.230  12.342  22.420  0.00  0.00    +0.000 A 
ATOM     17  C   UNL     1      -3.224  12.797  23.756  0.00  0.00    +0.000 A 
ATOM     18  C   UNL     1      -2.681  14.022  24.073  0.00  0.00    +0.000 A 
ATOM     19  C   UNL     1      -2.203  14.789  23.044  0.00  0.00    +0.000 A 
ATOM     20  C   UNL     1      -2.099  14.282  21.727  0.00  0.00    +0.000 A 
ATOM     21 CL   UNL     1      -1.492  15.593  20.776  0.00  0.00    +0.000 Cl
ENDBRANCH  10  15
BRANCH   1  22
ATOM     22  C   UNL     1       0.027  11.315  20.685  0.00  0.00    +0.000 C 
BRANCH  22  23
ATOM     23  C   UNL     1      -0.242  10.539  21.953  0.00  0.00    +0.000 C 
ATOM     24  O   UNL     1      -0.179  11.009  23.085  0.00  0.00    +0.000 OA
BRANCH  23  25
ATOM     25  O   UNL     1      -0.471   9.209  21.771  0.00  0.00    +0.000 OA
ATOM     26  H   UNL     1       0.332   8.693  21.544  0.00  0.00    +0.000 HD
ENDBRANCH  23  25
ENDBRANCH  22  23
BRANCH  22  27
ATOM     27  C   UNL     1       0.680  12.725  20.860  0.00  0.00    +0.000 C 
BRANCH  27  29
ATOM     28  C   UNL     1       1.136  14.041  18.719  0.00  0.00    +0.000 C 
ATOM     29  C   UNL     1       1.720  13.127  19.776  0.00  0.00    +0.000 C 
ENDBRANCH  27  29
ENDBRANCH  22  27
ENDBRANCH   1  22
TORSDOF 6
ENDMDL
MODEL 3
REMARK VINA RESULT:      -6.3      2.653      4.992
REMARK  Name = 
REMARK  8 active torsions:
REMARK  status: ('A' for Active; 'I' for Inactive)
REMARK    1  A    between atoms: C_1  and  C_2
REMARK    2  A    between atoms: C_2  and  C_3
REMARK    3  A    between atoms: C_3  and  C_4
REMARK    4  A    between atoms: C_4  and  C_5
REMARK    5  A    between atoms: C_4  and  C_8
REMARK    6  A    between atoms: C_5  and  O_7
REMARK    7  A    between atoms: C_9  and  C_10
REMARK    8  A    between atoms: C_17  and  C_18
REMARK                            x       y       z     vdW  Elec       q    Type
REMARK                         _______ _______ _______ _____ _____    ______ ____
ROOT
ATOM      1  C   UNL     1      -3.540  13.242  21.861  0.00  0.00    +0.000 A 
ATOM      2  C   UNL     1      -4.841  13.669  21.557  0.00  0.00    +0.000 A 
ATOM      3  C   UNL     1      -5.734  14.527  22.432  0.00  0.00    +0.000 C 
ATOM      4  N   UNL     1      -5.472  13.353  20.433  0.00  0.00    +0.000 NA
ATOM      5  C   UNL     1      -4.768  12.656  19.535  0.00  0.00    +0.000 A 
ATOM      6  S   UNL     1      -5.583  12.306  18.077  0.00  0.00    +0.000 S 
ATOM      7  C   UNL     1      -4.232  11.534  17.449  0.00  0.00    +0.000 A 
ATOM      8  C   UNL     1      -3.165  11.474  18.339  0.00  0.00    +0.000 A 
ATOM      9  C   UNL     1      -3.459  12.182  19.628  0.00  0.00    +0.000 A 
ATOM     10  C   UNL     1      -2.747  12.491  20.897  0.00  0.00    +0.000 A 
ATOM     11  C   UNL     1      -1.911  10.778  17.871  0.00  0.00    +0.000 C 
ATOM     12  C   UNL     1      -2.120   9.881  16.643  0.00  0.00    +0.000 C 
ATOM     13  C   UNL     1      -2.887  10.611  15.556  0.00  0.00    +0.000 C 
ATOM     14  C   UNL     1      -4.285  10.962  16.058  0.00  0.00    +0.000 C 
ENDROOT
BRANCH  10  15
ATOM     15  C   UNL     1      -1.329  11.931  21.167  0.00  0.00    +0.000 A 
ATOM     16  C   UNL     1      -1.261  10.946  22.170  0.00  0.00    +0.000 A 
ATOM     17  C   UNL     1      -0.161  10.083  22.359  0.00  0.00    +0.000 A 
ATOM     18  C   UNL     1       1.024  10.306  21.694  0.00  0.00    +0.000 A 
ATOM     19  C   UNL     1       1.103  11.414  20.894  0.00  0.00    +0.000 A 
ATOM     20  C   UNL     1      -0.034  12.206  20.611  0.00  0.00    +0.000 A 
ATOM     21 CL   UNL     1       0.541  13.495  19.611  0.00  0.00    +0.000 Cl
ENDBRANCH  10  15
BRANCH   1  22
ATOM     22  C   UNL     1      -2.946  13.643  23.192  0.00  0.00    +0.000 C 
BRANCH  22  23
ATOM     23  C   UNL     1      -3.694  13.103  24.388  0.00  0.00    +0.000 C 
ATOM     24  O   UNL     1      -4.235  12.002  24.434  0.00  0.00    +0.000 OA
BRANCH  23  25
ATOM     25  O   UNL     1      -3.826  13.979  25.422  0.00  0.00    +0.000 OA
ATOM     26  H   UNL     1      -3.396  13.684  26.253  0.00  0.00    +0.000 HD
ENDBRANCH  23  25
ENDBRANCH  22  23
BRANCH  22  27
ATOM     27  C   UNL     1      -2.597  15.167  23.222  0.00  0.00    +0.000 C 
BRANCH  27  29
ATOM     28  C   UNL     1      -1.798  16.367  21.114  0.00  0.00    +0.000 C 
ATOM     29  C   UNL     1      -1.384  15.601  22.353  0.00  0.00    +0.000 C 
ENDBRANCH  27  29
ENDBRANCH  22  27
ENDBRANCH   1  22
TORSDOF 6
ENDMDL
MODEL 4
REMARK VINA RESULT:      -6.1      1.728      2.583
REMARK  Name = 
REMARK  8 active torsions:
REMARK  status: ('A' for Active; 'I' for Inactive)
REMARK    1  A    between atoms: C_1  and  C_2
REMARK    2  A    between atoms: C_2  and  C_3
REMARK    3  A    between atoms: C_3  and  C_4
REMARK    4  A    between atoms: C_4  and  C_5
REMARK    5  A    between atoms: C_4  and  C_8
REMARK    6  A    between atoms: C_5  and  O_7
REMARK    7  A    between atoms: C_9  and  C_10
REMARK    8  A    between atoms: C_17  and  C_18
REMARK                            x       y       z     vdW  Elec       q    Type
REMARK                         _______ _______ _______ _____ _____    ______ ____
ROOT
ATOM      1  C   UNL     1      -0.407  10.927  19.337  0.00  0.00    +0.000 A 
ATOM      2  C   UNL     1      -0.463  10.185  18.148  0.00  0.00    +0.000 A 
ATOM      3  C   UNL     1       0.639   9.313  17.578  0.00  0.00    +0.000 C 
ATOM      4  N   UNL     1      -1.521  10.164  17.347  0.00  0.00    +0.000 NA
ATOM      5  C   UNL     1      -2.597  10.837  17.769  0.00  0.00    +0.000 A 
ATOM      6  S   UNL     1      -3.961  10.754  16.747  0.00  0.00    +0.000 S 
ATOM      7  C   UNL     1      -4.873  11.683  17.806  0.00  0.00    +0.000 A 
ATOM      8  C   UNL     1      -4.158  12.120  18.916  0.00  0.00    +0.000 A 
ATOM      9  C   UNL     1      -2.755  11.590  18.933  0.00  0.00    +0.000 A 
ATOM     10  C   UNL     1      -1.567  11.659  19.826  0.00  0.00    +0.000 A 
ATOM     11  C   UNL     1      -4.889  12.981  19.916  0.00  0.00    +0.000 C 
ATOM     12  C   UNL     1      -6.189  13.593  19.375  0.00  0.00    +0.000 C 
ATOM     13  C   UNL     1      -7.045  12.544  18.691  0.00  0.00    +0.000 C 
ATOM     14  C   UNL     1      -6.309  11.989  17.475  0.00  0.00    +0.000 C 
ENDROOT
BRANCH  10  15
ATOM     15  C   UNL     1      -1.579  12.548  21.093  0.00  0.00    +0.000 A 
ATOM     16  C   UNL     1      -1.438  13.928  20.851  0.00  0.00    +0.000 A 
ATOM     17  C   UNL     1      -1.737  14.933  21.796  0.00  0.00    +0.000 A 
ATOM     18  C   UNL     1      -1.983  14.605  23.110  0.00  0.00    +0.000 A 
ATOM     19  C   UNL     1      -1.876  13.287  23.465  0.00  0.00    +0.000 A 
ATOM     20  C   UNL     1      -1.698  12.270  22.497  0.00  0.00    +0.000 A 
ATOM     21 CL   UNL     1      -1.579  10.796  23.394  0.00  0.00    +0.000 Cl
ENDBRANCH  10  15
BRANCH   1  22
ATOM     22  C   UNL     1       0.871  10.892  20.144  0.00  0.00    +0.000 C 
BRANCH  22  23
ATOM     23  C   UNL     1       0.830   9.944  21.320  0.00  0.00    +0.000 C 
ATOM     24  O   UNL     1       1.509  10.063  22.336  0.00  0.00    +0.000 OA
BRANCH  23  25
ATOM     25  O   UNL     1       0.038   8.850  21.144  0.00  0.00    +0.000 OA
ATOM     26  H   UNL     1       0.451   8.141  20.605  0.00  0.00    +0.000 HD
ENDBRANCH  23  25
ENDBRANCH  22  23
BRANCH  22  27
ATOM     27  C   UNL     1       1.400  12.334  20.433  0.00  0.00    +0.000 C 
BRANCH  27  29
ATOM     28  C   UNL     1       2.572  12.548  18.174  0.00  0.00    +0.000 C 
ATOM     29  C   UNL     1       1.666  13.221  19.184  0.00  0.00    +0.000 C 
ENDBRANCH  27  29
ENDBRANCH  22  27
ENDBRANCH   1  22
TORSDOF 6
ENDMDL
MODEL 5
REMARK VINA RESULT:      -6.0      3.104      5.692
REMARK  Name = 
REMARK  8 active torsions:
REMARK  status: ('A' for Active; 'I' for Inactive)
REMARK    1  A    between atoms: C_1  and  C_2
REMARK    2  A    between atoms: C_2  and  C_3
REMARK    3  A    between atoms: C_3  and  C_4
REMARK    4  A    between atoms: C_4  and  C_5
REMARK    5  A    between atoms: C_4  and  C_8
REMARK    6  A    between atoms: C_5  and  O_7
REMARK    7  A    between atoms: C_9  and  C_10
REMARK    8  A    between atoms: C_17  and  C_18
REMARK                            x       y       z     vdW  Elec       q    Type
REMARK                         _______ _______ _______ _____ _____    ______ ____
ROOT
ATOM      1  C   UNL     1      -3.815  13.293  21.803  0.00  0.00    +0.000 A 
ATOM      2  C   UNL     1      -2.540  12.909  22.245  0.00  0.00    +0.000 A 
ATOM      3  C   UNL     1      -1.945  13.173  23.615  0.00  0.00    +0.000 C 
ATOM      4  N   UNL     1      -1.668  12.254  21.488  0.00  0.00    +0.000 NA
ATOM      5  C   UNL     1      -2.093  11.893  20.273  0.00  0.00    +0.000 A 
ATOM      6  S   UNL     1      -0.973  11.009  19.338  0.00  0.00    +0.000 S 
ATOM      7  C   UNL     1      -2.072  10.851  18.079  0.00  0.00    +0.000 A 
ATOM      8  C   UNL     1      -3.278  11.504  18.312  0.00  0.00    +0.000 A 
ATOM      9  C   UNL     1      -3.329  12.136  19.672  0.00  0.00    +0.000 A 
ATOM     10  C   UNL     1      -4.308  12.902  20.489  0.00  0.00    +0.000 A 
ATOM     11  C   UNL     1      -4.323  11.436  17.227  0.00  0.00    +0.000 C 
ATOM     12  C   UNL     1      -3.772  11.009  15.860  0.00  0.00    +0.000 C 
ATOM     13  C   UNL     1      -2.900   9.774  15.982  0.00  0.00    +0.000 C 
ATOM     14  C   UNL     1      -1.679  10.087  16.844  0.00  0.00    +0.000 C 
ENDROOT
BRANCH  10  15
ATOM     15  C   UNL     1      -5.673  13.328  19.897  0.00  0.00    +0.000 A 
ATOM     16  C   UNL     1      -5.829  14.713  19.700  0.00  0.00    +0.000 A 
ATOM     17  C   UNL     1      -6.833  15.291  18.895  0.00  0.00    +0.000 A 
ATOM     18  C   UNL     1      -7.873  14.525  18.418  0.00  0.00    +0.000 A 
ATOM     19  C   UNL     1      -7.917  13.210  18.797  0.00  0.00    +0.000 A 
ATOM     20  C   UNL     1      -6.849  12.605  19.501  0.00  0.00    +0.000 A 
ATOM     21 CL   UNL     1      -7.355  10.977  19.794  0.00  0.00    +0.000 Cl
ENDBRANCH  10  15
BRANCH   1  22
ATOM     22  C   UNL     1      -4.701  14.064  22.754  0.00  0.00    +0.000 C 
BRANCH  22  23
ATOM     23  C   UNL     1      -4.129  15.393  23.188  0.00  0.00    +0.000 C 
ATOM     24  O   UNL     1      -4.145  15.817  24.340  0.00  0.00    +0.000 OA
BRANCH  23  25
ATOM     25  O   UNL     1      -3.663  16.173  22.174  0.00  0.00    +0.000 OA
ATOM     26  H   UNL     1      -3.323  17.046  22.465  0.00  0.00    +0.000 HD
ENDBRANCH  23  25
ENDBRANCH  22  23
BRANCH  22  27
ATOM     27  C   UNL     1      -5.254  13.142  23.889  0.00  0.00    +0.000 C 
BRANCH  27  29
ATOM     28  C   UNL     1      -7.555  12.326  23.140  0.00  0.00    +0.000 C 
ATOM     29  C   UNL     1      -6.791  13.196  24.116  0.00  0.00    +0.000 C 
ENDBRANCH  27  29
ENDBRANCH  22  27
ENDBRANCH   1  22
TORSDOF 6
ENDMDL
MODEL 6
REMARK VINA RESULT:      -6.0      1.671      2.001
REMARK  Name = 
REMARK  8 active torsions:
REMARK  status: ('A' for Active; 'I' for Inactive)
REMARK    1  A    between atoms: C_1  and  C_2
REMARK    2  A    between atoms: C_2  and  C_3
REMARK    3  A    between atoms: C_3  and  C_4
REMARK    4  A    between atoms: C_4  and  C_5
REMARK    5  A    between atoms: C_4  and  C_8
REMARK    6  A    between atoms: C_5  and  O_7
REMARK    7  A    between atoms: C_9  and  C_10
REMARK    8  A    between atoms: C_17  and  C_18
REMARK                            x       y       z     vdW  Elec       q    Type
REMARK                         _______ _______ _______ _____ _____    ______ ____
ROOT
ATOM      1  C   UNL     1      -1.554  11.411  19.150  0.00  0.00    +0.000 A 
ATOM      2  C   UNL     1      -2.057  10.710  18.045  0.00  0.00    +0.000 A 
ATOM      3  C   UNL     1      -1.291   9.738  17.170  0.00  0.00    +0.000 C 
ATOM      4  N   UNL     1      -3.307  10.824  17.612  0.00  0.00    +0.000 NA
ATOM      5  C   UNL     1      -4.117  11.600  18.341  0.00  0.00    +0.000 A 
ATOM      6  S   UNL     1      -5.731  11.691  17.794  0.00  0.00    +0.000 S 
ATOM      7  C   UNL     1      -6.161  12.687  19.074  0.00  0.00    +0.000 A 
ATOM      8  C   UNL     1      -5.093  13.015  19.903  0.00  0.00    +0.000 A 
ATOM      9  C   UNL     1      -3.822  12.336  19.489  0.00  0.00    +0.000 A 
ATOM     10  C   UNL     1      -2.416  12.253  19.969  0.00  0.00    +0.000 A 
ATOM     11  C   UNL     1      -5.378  13.925  21.072  0.00  0.00    +0.000 C 
ATOM     12  C   UNL     1      -6.705  14.689  20.955  0.00  0.00    +0.000 C 
ATOM     13  C   UNL     1      -7.842  13.757  20.582  0.00  0.00    +0.000 C 
ATOM     14  C   UNL     1      -7.585  13.156  19.203  0.00  0.00    +0.000 C 
ENDROOT
BRANCH  10  15
ATOM     15  C   UNL     1      -1.936  13.106  21.167  0.00  0.00    +0.000 A 
ATOM     16  C   UNL     1      -1.528  14.413  20.840  0.00  0.00    +0.000 A 
ATOM     17  C   UNL     1      -1.363  15.451  21.782  0.00  0.00    +0.000 A 
ATOM     18  C   UNL     1      -1.384  15.178  23.132  0.00  0.00    +0.000 A 
ATOM     19  C   UNL     1      -1.517  13.870  23.512  0.00  0.00    +0.000 A 
ATOM     20  C   UNL     1      -1.805  12.850  22.574  0.00  0.00    +0.000 A 
ATOM     21 CL   UNL     1      -1.843  11.382  23.488  0.00  0.00    +0.000 Cl
ENDBRANCH  10  15
BRANCH   1  22
ATOM     22  C   UNL     1      -0.101  11.217  19.521  0.00  0.00    +0.000 C 
BRANCH  22  23
ATOM     23  C   UNL     1       0.869  11.912  18.595  0.00  0.00    +0.000 C 
ATOM     24  O   UNL     1       2.011  11.525  18.362  0.00  0.00    +0.000 OA
BRANCH  23  25
ATOM     25  O   UNL     1       0.425  13.095  18.086  0.00  0.00    +0.000 OA
ATOM     26  H   UNL     1       1.142  13.711  17.824  0.00  0.00    +0.000 HD
ENDBRANCH  23  25
ENDBRANCH  22  23
BRANCH  22  27
ATOM     27  C   UNL     1       0.206   9.719  19.850  0.00  0.00    +0.000 C 
BRANCH  27  29
ATOM     28  C   UNL     1       0.883   9.211  22.260  0.00  0.00    +0.000 C 
ATOM     29  C   UNL     1      -0.249   9.228  21.253  0.00  0.00    +0.000 C 
ENDBRANCH  27  29
ENDBRANCH  22  27
ENDBRANCH   1  22
TORSDOF 6
ENDMDL
MODEL 7
REMARK VINA RESULT:      -6.0      1.260      1.450
REMARK  Name = 
REMARK  8 active torsions:
REMARK  status: ('A' for Active; 'I' for Inactive)
REMARK    1  A    between atoms: C_1  and  C_2
REMARK    2  A    between atoms: C_2  and  C_3
REMARK    3  A    between atoms: C_3  and  C_4
REMARK    4  A    between atoms: C_4  and  C_5
REMARK    5  A    between atoms: C_4  and  C_8
REMARK    6  A    between atoms: C_5  and  O_7
REMARK    7  A    between atoms: C_9  and  C_10
REMARK    8  A    between atoms: C_17  and  C_18
REMARK                            x       y       z     vdW  Elec       q    Type
REMARK                         _______ _______ _______ _____ _____    ______ ____
ROOT
ATOM      1  C   UNL     1      -1.509  11.499  19.224  0.00  0.00    +0.000 A 
ATOM      2  C   UNL     1      -1.960  10.706  18.159  0.00  0.00    +0.000 A 
ATOM      3  C   UNL     1      -1.137   9.710  17.366  0.00  0.00    +0.000 C 
ATOM      4  N   UNL     1      -3.204  10.740  17.695  0.00  0.00    +0.000 NA
ATOM      5  C   UNL     1      -4.060  11.528  18.355  0.00  0.00    +0.000 A 
ATOM      6  S   UNL     1      -5.663  11.517  17.772  0.00  0.00    +0.000 S 
ATOM      7  C   UNL     1      -6.160  12.577  18.974  0.00  0.00    +0.000 A 
ATOM      8  C   UNL     1      -5.125  13.003  19.799  0.00  0.00    +0.000 A 
ATOM      9  C   UNL     1      -3.819  12.350  19.456  0.00  0.00    +0.000 A 
ATOM     10  C   UNL     1      -2.422  12.356  19.968  0.00  0.00    +0.000 A 
ATOM     11  C   UNL     1      -5.471  13.976  20.898  0.00  0.00    +0.000 C 
ATOM     12  C   UNL     1      -6.824  14.675  20.706  0.00  0.00    +0.000 C 
ATOM     13  C   UNL     1      -7.915  13.675  20.373  0.00  0.00    +0.000 C 
ATOM     14  C   UNL     1      -7.604  12.995  19.043  0.00  0.00    +0.000 C 
ENDROOT
BRANCH  10  15
ATOM     15  C   UNL     1      -2.002  13.306  21.116  0.00  0.00    +0.000 A 
ATOM     16  C   UNL     1      -2.257  12.818  22.412  0.00  0.00    +0.000 A 
ATOM     17  C   UNL     1      -1.681  13.350  23.586  0.00  0.00    +0.000 A 
ATOM     18  C   UNL     1      -0.990  14.540  23.547  0.00  0.00    +0.000 A 
ATOM     19  C   UNL     1      -0.932  15.200  22.349  0.00  0.00    +0.000 A 
ATOM     20  C   UNL     1      -1.402  14.609  21.153  0.00  0.00    +0.000 A 
ATOM     21 CL   UNL     1      -1.165  15.805  19.925  0.00  0.00    +0.000 Cl
ENDBRANCH  10  15
BRANCH   1  22
ATOM     22  C   UNL     1      -0.058  11.388  19.635  0.00  0.00    +0.000 C 
BRANCH  22  23
ATOM     23  C   UNL     1       0.893  12.154  18.746  0.00  0.00    +0.000 C 
ATOM     24  O   UNL     1       0.843  13.365  18.549  0.00  0.00    +0.000 OA
BRANCH  23  25
ATOM     25  O   UNL     1       1.788  11.382  18.069  0.00  0.00    +0.000 OA
ATOM     26  H   UNL     1       1.675  11.403  17.094  0.00  0.00    +0.000 HD
ENDBRANCH  23  25
ENDBRANCH  22  23
BRANCH  22  27
ATOM     27  C   UNL     1       0.331   9.908  19.956  0.00  0.00    +0.000 C 
BRANCH  27  29
ATOM     28  C   UNL     1       0.008   9.922  22.489  0.00  0.00    +0.000 C 
ATOM     29  C   UNL     1      -0.384   9.271  21.180  0.00  0.00    +0.000 C 
ENDBRANCH  27  29
ENDBRANCH  22  27
ENDBRANCH   1  22
TORSDOF 6
ENDMDL
MODEL 8
REMARK VINA RESULT:      -6.0      1.060      1.405
REMARK  Name = 
REMARK  8 active torsions:
REMARK  status: ('A' for Active; 'I' for Inactive)
REMARK    1  A    between atoms: C_1  and  C_2
REMARK    2  A    between atoms: C_2  and  C_3
REMARK    3  A    between atoms: C_3  and  C_4
REMARK    4  A    between atoms: C_4  and  C_5
REMARK    5  A    between atoms: C_4  and  C_8
REMARK    6  A    between atoms: C_5  and  O_7
REMARK    7  A    between atoms: C_9  and  C_10
REMARK    8  A    between atoms: C_17  and  C_18
REMARK                            x       y       z     vdW  Elec       q    Type
REMARK                         _______ _______ _______ _____ _____    ______ ____
ROOT
ATOM      1  C   UNL     1      -0.886  11.434  19.768  0.00  0.00    +0.000 A 
ATOM      2  C   UNL     1      -0.894  10.597  18.642  0.00  0.00    +0.000 A 
ATOM      3  C   UNL     1       0.232   9.690  18.185  0.00  0.00    +0.000 C 
ATOM      4  N   UNL     1      -1.922  10.503  17.806  0.00  0.00    +0.000 NA
ATOM      5  C   UNL     1      -3.015  11.199  18.133  0.00  0.00    +0.000 A 
ATOM      6  S   UNL     1      -4.340  11.022  17.072  0.00  0.00    +0.000 S 
ATOM      7  C   UNL     1      -5.295  12.027  18.017  0.00  0.00    +0.000 A 
ATOM      8  C   UNL     1      -4.625  12.558  19.113  0.00  0.00    +0.000 A 
ATOM      9  C   UNL     1      -3.220  12.043  19.225  0.00  0.00    +0.000 A 
ATOM     10  C   UNL     1      -2.067  12.193  20.153  0.00  0.00    +0.000 A 
ATOM     11  C   UNL     1      -5.396  13.491  20.012  0.00  0.00    +0.000 C 
ATOM     12  C   UNL     1      -6.678  14.048  19.376  0.00  0.00    +0.000 C 
ATOM     13  C   UNL     1      -7.503  12.940  18.749  0.00  0.00    +0.000 C 
ATOM     14  C   UNL     1      -6.719  12.294  17.609  0.00  0.00    +0.000 C 
ENDROOT
BRANCH  10  15
ATOM     15  C   UNL     1      -2.131  13.182  21.342  0.00  0.00    +0.000 A 
ATOM     16  C   UNL     1      -1.631  14.470  21.070  0.00  0.00    +0.000 A 
ATOM     17  C   UNL     1      -1.875  15.602  21.877  0.00  0.00    +0.000 A 
ATOM     18  C   UNL     1      -2.451  15.462  23.120  0.00  0.00    +0.000 A 
ATOM     19  C   UNL     1      -2.724  14.192  23.552  0.00  0.00    +0.000 A 
ATOM     20  C   UNL     1      -2.592  13.073  22.697  0.00  0.00    +0.000 A 
ATOM     21 CL   UNL     1      -2.998  11.701  23.669  0.00  0.00    +0.000 Cl
ENDBRANCH  10  15
BRANCH   1  22
ATOM     22  C   UNL     1       0.361  11.474  20.622  0.00  0.00    +0.000 C 
BRANCH  22  23
ATOM     23  C   UNL     1       1.413  12.440  20.130  0.00  0.00    +0.000 C 
ATOM     24  O   UNL     1       1.719  12.599  18.952  0.00  0.00    +0.000 OA
BRANCH  23  25
ATOM     25  O   UNL     1       2.102  13.083  21.114  0.00  0.00    +0.000 OA
ATOM     26  H   UNL     1       3.054  12.848  21.153  0.00  0.00    +0.000 HD
ENDBRANCH  23  25
ENDBRANCH  22  23
BRANCH  22  27
ATOM     27  C   UNL     1       0.854  10.033  20.976  0.00  0.00    +0.000 C 
BRANCH  27  29
ATOM     28  C   UNL     1      -0.176   9.668  23.285  0.00  0.00    +0.000 C 
ATOM     29  C   UNL     1      -0.110   9.184  21.851  0.00  0.00    +0.000 C 
ENDBRANCH  27  29
ENDBRANCH  22  27
ENDBRANCH   1  22
TORSDOF 6
ENDMDL
MODEL 9
REMARK VINA RESULT:      -6.0      6.536      9.448
REMARK  Name = 
REMARK  8 active torsions:
REMARK  status: ('A' for Active; 'I' for Inactive)
REMARK    1  A    between atoms: C_1  and  C_2
REMARK    2  A    between atoms: C_2  and  C_3
REMARK    3  A    between atoms: C_3  and  C_4
REMARK    4  A    between atoms: C_4  and  C_5
REMARK    5  A    between atoms: C_4  and  C_8
REMARK    6  A    between atoms: C_5  and  O_7
REMARK    7  A    between atoms: C_9  and  C_10
REMARK    8  A    between atoms: C_17  and  C_18
REMARK                            x       y       z     vdW  Elec       q    Type
REMARK                         _______ _______ _______ _____ _____    ______ ____
ROOT
ATOM      1  C   UNL     1       3.967   5.799  17.514  0.00  0.00    +0.000 A 
ATOM      2  C   UNL     1       4.298   6.926  16.748  0.00  0.00    +0.000 A 
ATOM      3  C   UNL     1       5.244   6.964  15.564  0.00  0.00    +0.000 C 
ATOM      4  N   UNL     1       3.812   8.139  16.982  0.00  0.00    +0.000 NA
ATOM      5  C   UNL     1       2.904   8.235  17.960  0.00  0.00    +0.000 A 
ATOM      6  S   UNL     1       2.257   9.794  18.208  0.00  0.00    +0.000 S 
ATOM      7  C   UNL     1       1.244   9.235  19.423  0.00  0.00    +0.000 A 
ATOM      8  C   UNL     1       1.410   7.882  19.703  0.00  0.00    +0.000 A 
ATOM      9  C   UNL     1       2.412   7.232  18.796  0.00  0.00    +0.000 A 
ATOM     10  C   UNL     1       2.973   5.872  18.577  0.00  0.00    +0.000 A 
ATOM     11  C   UNL     1       0.556   7.292  20.797  0.00  0.00    +0.000 C 
ATOM     12  C   UNL     1      -0.081   8.339  21.722  0.00  0.00    +0.000 C 
ATOM     13  C   UNL     1      -0.744   9.444  20.922  0.00  0.00    +0.000 C 
ATOM     14  C   UNL     1       0.306  10.193  20.106  0.00  0.00    +0.000 C 
ENDROOT
BRANCH  10  15
ATOM     15  C   UNL     1       2.589   4.697  19.507  0.00  0.00    +0.000 A 
ATOM     16  C   UNL     1       2.874   4.902  20.871  0.00  0.00    +0.000 A 
ATOM     17  C   UNL     1       2.333   4.127  21.919  0.00  0.00    +0.000 A 
ATOM     18  C   UNL     1       1.648   2.965  21.646  0.00  0.00    +0.000 A 
ATOM     19  C   UNL     1       1.561   2.572  20.338  0.00  0.00    +0.000 A 
ATOM     20  C   UNL     1       1.996   3.408  19.282  0.00  0.00    +0.000 A 
ATOM     21 CL   UNL     1       1.734   2.497  17.836  0.00  0.00    +0.000 Cl
ENDBRANCH  10  15
BRANCH   1  22
ATOM     22  C   UNL     1       4.615   4.479  17.164  0.00  0.00    +0.000 C 
BRANCH  22  23
ATOM     23  C   UNL     1       5.883   4.192  17.933  0.00  0.00    +0.000 C 
ATOM     24  O   UNL     1       6.991   4.632  17.641  0.00  0.00    +0.000 OA
BRANCH  23  25
ATOM     25  O   UNL     1       5.742   3.302  18.954  0.00  0.00    +0.000 OA
ATOM     26  H   UNL     1       5.616   3.719  19.834  0.00  0.00    +0.000 HD
ENDBRANCH  23  25
ENDBRANCH  22  23
BRANCH  22  27
ATOM     27  C   UNL     1       4.681   4.272  15.616  0.00  0.00    +0.000 C 
BRANCH  27  29
ATOM     28  C   UNL     1       6.243   3.883  13.633  0.00  0.00    +0.000 C 
ATOM     29  C   UNL     1       5.953   3.555  15.083  0.00  0.00    +0.000 C 
ENDBRANCH  27  29
ENDBRANCH  22  27
ENDBRANCH   1  22
TORSDOF 6
ENDMDL
