MODEL 1
REMARK VINA RESULT:      -8.4      0.000      0.000
REMARK  Name = 
REMARK  5 active torsions:
REMARK  status: ('A' for Active; 'I' for Inactive)
REMARK    1  A    between atoms: C_2  and  C_3
REMARK    2  A    between atoms: C_6  and  C_7
REMARK    3  A    between atoms: N_9  and  C_10
REMARK    4  A    between atoms: C_14  and  N_15
REMARK    5  A    between atoms: C_16  and  C_18
REMARK                            x       y       z     vdW  Elec       q    Type
REMARK                         _______ _______ _______ _____ _____    ______ ____
ROOT
ATOM      1  C   UNL     1       2.210   5.259  20.579  0.00  0.00    +0.000 A 
ATOM      2  C   UNL     1       2.190   4.086  21.334  0.00  0.00    +0.000 A 
ATOM      3  C   UNL     1       2.884   2.959  20.911  0.00  0.00    +0.000 A 
ATOM      4  C   UNL     1       3.601   2.990  19.721  0.00  0.00    +0.000 A 
ATOM      5  C   UNL     1       3.619   4.138  18.926  0.00  0.00    +0.000 A 
ATOM      6  C   UNL     1       2.915   5.275  19.361  0.00  0.00    +0.000 A 
ENDROOT
BRANCH   1   9
ATOM      7  C   UNL     1       1.602   7.668  20.375  0.00  0.00    +0.000 C 
ATOM      8  O   UNL     1       2.222   7.916  19.344  0.00  0.00    +0.000 OA
ATOM      9  N   UNL     1       1.532   6.429  20.998  0.00  0.00    +0.000 N 
ATOM     10  H   UNL     1       0.885   6.323  21.772  0.00  0.00    +0.000 HD
BRANCH   7  14
ATOM     11  C   UNL     1      -0.628  10.857  22.209  0.00  0.00    +0.000 A 
ATOM     12  C   UNL     1       0.010   9.890  22.990  0.00  0.00    +0.000 A 
ATOM     13  C   UNL     1       0.731   8.862  22.376  0.00  0.00    +0.000 A 
ATOM     14  C   UNL     1       0.823   8.787  20.974  0.00  0.00    +0.000 A 
ATOM     15  C   UNL     1       0.183   9.761  20.210  0.00  0.00    +0.000 A 
ATOM     16  F   UNL     1       0.244   9.742  18.871  0.00  0.00    +0.000 F 
ATOM     17  C   UNL     1      -0.539  10.790  20.815  0.00  0.00    +0.000 A 
BRANCH  11  19
ATOM     18  N   UNL     1      -1.982  12.763  23.331  0.00  0.00    +0.000 NA
ATOM     19  C   UNL     1      -1.373  11.908  22.831  0.00  0.00    +0.000 C 
ENDBRANCH  11  19
ENDBRANCH   7  14
ENDBRANCH   1   9
BRANCH   5  20
ATOM     20  N   UNL     1       4.339   4.195  17.711  0.00  0.00    +0.000 N 
ATOM     21  C   UNL     1       5.715   4.332  17.572  0.00  0.00    +0.000 C 
ATOM     22  O   UNL     1       6.520   4.381  18.498  0.00  0.00    +0.000 OA
ATOM     23  H   UNL     1       3.826   4.072  16.845  0.00  0.00    +0.000 HD
BRANCH  21  24
ATOM     24  C   UNL     1       6.165   4.370  16.195  0.00  0.00    +0.000 A 
ATOM     25  C   UNL     1       5.673   3.724  15.074  0.00  0.00    +0.000 A 
ATOM     26  C   UNL     1       6.459   4.151  13.980  0.00  0.00    +0.000 A 
ATOM     27  C   UNL     1       7.391   5.019  14.497  0.00  0.00    +0.000 A 
ATOM     28  O   UNL     1       7.227   5.160  15.839  0.00  0.00    +0.000 OA
ENDBRANCH  21  24
ENDBRANCH   5  20
TORSDOF 5
ENDMDL
MODEL 2
REMARK VINA RESULT:      -8.2      4.103      9.760
REMARK  Name = 
REMARK  5 active torsions:
REMARK  status: ('A' for Active; 'I' for Inactive)
REMARK    1  A    between atoms: C_2  and  C_3
REMARK    2  A    between atoms: C_6  and  C_7
REMARK    3  A    between atoms: N_9  and  C_10
REMARK    4  A    between atoms: C_14  and  N_15
REMARK    5  A    between atoms: C_16  and  C_18
REMARK                            x       y       z     vdW  Elec       q    Type
REMARK                         _______ _______ _______ _____ _____    ______ ____
ROOT
ATOM      1  C   UNL     1       0.734  10.283  19.001  0.00  0.00    +0.000 A 
ATOM      2  C   UNL     1       1.483  11.455  18.896  0.00  0.00    +0.000 A 
ATOM      3  C   UNL     1       0.857  12.681  18.708  0.00  0.00    +0.000 A 
ATOM      4  C   UNL     1      -0.528  12.747  18.614  0.00  0.00    +0.000 A 
ATOM      5  C   UNL     1      -1.307  11.591  18.685  0.00  0.00    +0.000 A 
ATOM      6  C   UNL     1      -0.666  10.353  18.877  0.00  0.00    +0.000 A 
ENDROOT
BRANCH   1   9
ATOM      7  C   UNL     1       2.109   8.329  18.290  0.00  0.00    +0.000 C 
ATOM      8  O   UNL     1       2.406   8.726  17.166  0.00  0.00    +0.000 OA
ATOM      9  N   UNL     1       1.344   9.024  19.218  0.00  0.00    +0.000 N 
ATOM     10  H   UNL     1       1.276   8.645  20.156  0.00  0.00    +0.000 HD
BRANCH   7  14
ATOM     11  C   UNL     1       3.766   4.511  19.379  0.00  0.00    +0.000 A 
ATOM     12  C   UNL     1       4.170   5.158  18.208  0.00  0.00    +0.000 A 
ATOM     13  C   UNL     1       3.621   6.398  17.871  0.00  0.00    +0.000 A 
ATOM     14  C   UNL     1       2.661   7.008  18.701  0.00  0.00    +0.000 A 
ATOM     15  C   UNL     1       2.272   6.350  19.866  0.00  0.00    +0.000 A 
ATOM     16  F   UNL     1       1.366   6.889  20.695  0.00  0.00    +0.000 F 
ATOM     17  C   UNL     1       2.814   5.112  20.209  0.00  0.00    +0.000 A 
BRANCH  11  19
ATOM     18  N   UNL     1       4.763   2.201  20.009  0.00  0.00    +0.000 NA
ATOM     19  C   UNL     1       4.319   3.238  19.726  0.00  0.00    +0.000 C 
ENDBRANCH  11  19
ENDBRANCH   7  14
ENDBRANCH   1   9
BRANCH   5  20
ATOM     20  N   UNL     1      -2.716  11.630  18.590  0.00  0.00    +0.000 N 
ATOM     21  C   UNL     1      -3.471  11.486  17.431  0.00  0.00    +0.000 C 
ATOM     22  O   UNL     1      -3.016  11.258  16.313  0.00  0.00    +0.000 OA
ATOM     23  H   UNL     1      -3.251  11.716  19.447  0.00  0.00    +0.000 HD
BRANCH  21  24
ATOM     24  C   UNL     1      -4.901  11.582  17.646  0.00  0.00    +0.000 A 
ATOM     25  C   UNL     1      -5.740  10.818  18.437  0.00  0.00    +0.000 A 
ATOM     26  C   UNL     1      -7.034  11.371  18.312  0.00  0.00    +0.000 A 
ATOM     27  C   UNL     1      -6.912  12.430  17.442  0.00  0.00    +0.000 A 
ATOM     28  O   UNL     1      -5.625  12.567  17.028  0.00  0.00    +0.000 OA
ENDBRANCH  21  24
ENDBRANCH   5  20
TORSDOF 5
ENDMDL
MODEL 3
REMARK VINA RESULT:      -8.1      4.156      9.736
REMARK  Name = 
REMARK  5 active torsions:
REMARK  status: ('A' for Active; 'I' for Inactive)
REMARK    1  A    between atoms: C_2  and  C_3
REMARK    2  A    between atoms: C_6  and  C_7
REMARK    3  A    between atoms: N_9  and  C_10
REMARK    4  A    between atoms: C_14  and  N_15
REMARK    5  A    between atoms: C_16  and  C_18
REMARK                            x       y       z     vdW  Elec       q    Type
REMARK                         _______ _______ _______ _____ _____    ______ ____
ROOT
ATOM      1  C   UNL     1       0.781  10.363  19.036  0.00  0.00    +0.000 A 
ATOM      2  C   UNL     1       1.510  11.552  19.003  0.00  0.00    +0.000 A 
ATOM      3  C   UNL     1       0.865  12.774  18.867  0.00  0.00    +0.000 A 
ATOM      4  C   UNL     1      -0.520  12.821  18.753  0.00  0.00    +0.000 A 
ATOM      5  C   UNL     1      -1.278  11.649  18.753  0.00  0.00    +0.000 A 
ATOM      6  C   UNL     1      -0.618  10.415  18.892  0.00  0.00    +0.000 A 
ENDROOT
BRANCH   1   9
ATOM      7  C   UNL     1       2.131   8.432  18.221  0.00  0.00    +0.000 C 
ATOM      8  O   UNL     1       2.366   8.850  17.090  0.00  0.00    +0.000 OA
ATOM      9  N   UNL     1       1.411   9.106  19.199  0.00  0.00    +0.000 N 
ATOM     10  H   UNL     1       1.395   8.710  20.133  0.00  0.00    +0.000 HD
BRANCH   7  14
ATOM     11  C   UNL     1       3.746   4.608  19.353  0.00  0.00    +0.000 A 
ATOM     12  C   UNL     1       2.739   5.211  20.111  0.00  0.00    +0.000 A 
ATOM     13  C   UNL     1       2.226   6.453  19.726  0.00  0.00    +0.000 A 
ATOM     14  C   UNL     1       2.713   7.109  18.580  0.00  0.00    +0.000 A 
ATOM     15  C   UNL     1       3.716   6.492  17.834  0.00  0.00    +0.000 A 
ATOM     16  F   UNL     1       4.212   7.069  16.730  0.00  0.00    +0.000 F 
ATOM     17  C   UNL     1       4.234   5.253  18.211  0.00  0.00    +0.000 A 
BRANCH  11  19
ATOM     18  N   UNL     1       4.711   2.307  20.057  0.00  0.00    +0.000 NA
ATOM     19  C   UNL     1       4.280   3.340  19.743  0.00  0.00    +0.000 C 
ENDBRANCH  11  19
ENDBRANCH   7  14
ENDBRANCH   1   9
BRANCH   5  20
ATOM     20  N   UNL     1      -2.686  11.668  18.637  0.00  0.00    +0.000 N 
ATOM     21  C   UNL     1      -3.422  11.464  17.475  0.00  0.00    +0.000 C 
ATOM     22  O   UNL     1      -2.950  11.192  16.375  0.00  0.00    +0.000 OA
ATOM     23  H   UNL     1      -3.234  11.786  19.482  0.00  0.00    +0.000 HD
BRANCH  21  24
ATOM     24  C   UNL     1      -4.856  11.554  17.666  0.00  0.00    +0.000 A 
ATOM     25  C   UNL     1      -5.708  10.776  18.430  0.00  0.00    +0.000 A 
ATOM     26  C   UNL     1      -7.001  11.328  18.289  0.00  0.00    +0.000 A 
ATOM     27  C   UNL     1      -6.866  12.400  17.439  0.00  0.00    +0.000 A 
ATOM     28  O   UNL     1      -5.572  12.547  17.051  0.00  0.00    +0.000 OA
ENDBRANCH  21  24
ENDBRANCH   5  20
TORSDOF 5
ENDMDL
MODEL 4
REMARK VINA RESULT:      -8.1      2.367      3.648
REMARK  Name = 
REMARK  5 active torsions:
REMARK  status: ('A' for Active; 'I' for Inactive)
REMARK    1  A    between atoms: C_2  and  C_3
REMARK    2  A    between atoms: C_6  and  C_7
REMARK    3  A    between atoms: N_9  and  C_10
REMARK    4  A    between atoms: C_14  and  N_15
REMARK    5  A    between atoms: C_16  and  C_18
REMARK                            x       y       z     vdW  Elec       q    Type
REMARK                         _______ _______ _______ _____ _____    ______ ____
ROOT
ATOM      1  C   UNL     1       5.360   6.088  18.003  0.00  0.00    +0.000 A 
ATOM      2  C   UNL     1       6.542   5.853  18.706  0.00  0.00    +0.000 A 
ATOM      3  C   UNL     1       7.516   5.007  18.192  0.00  0.00    +0.000 A 
ATOM      4  C   UNL     1       7.315   4.378  16.969  0.00  0.00    +0.000 A 
ATOM      5  C   UNL     1       6.132   4.567  16.252  0.00  0.00    +0.000 A 
ATOM      6  C   UNL     1       5.151   5.426  16.778  0.00  0.00    +0.000 A 
ENDROOT
BRANCH   1   9
ATOM      7  C   UNL     1       3.059   6.605  18.809  0.00  0.00    +0.000 C 
ATOM      8  O   UNL     1       2.598   5.468  18.760  0.00  0.00    +0.000 OA
ATOM      9  N   UNL     1       4.362   6.965  18.492  0.00  0.00    +0.000 N 
ATOM     10  H   UNL     1       4.656   7.914  18.695  0.00  0.00    +0.000 HD
BRANCH   7  14
ATOM     11  C   UNL     1       0.417   9.641  20.331  0.00  0.00    +0.000 A 
ATOM     12  C   UNL     1       0.816   8.571  21.137  0.00  0.00    +0.000 A 
ATOM     13  C   UNL     1       1.676   7.595  20.625  0.00  0.00    +0.000 A 
ATOM     14  C   UNL     1       2.147   7.676  19.301  0.00  0.00    +0.000 A 
ATOM     15  C   UNL     1       1.742   8.751  18.513  0.00  0.00    +0.000 A 
ATOM     16  F   UNL     1       2.166   8.880  17.247  0.00  0.00    +0.000 F 
ATOM     17  C   UNL     1       0.884   9.728  19.016  0.00  0.00    +0.000 A 
BRANCH  11  19
ATOM     18  N   UNL     1      -1.183  11.453  21.269  0.00  0.00    +0.000 NA
ATOM     19  C   UNL     1      -0.468  10.640  20.847  0.00  0.00    +0.000 C 
ENDBRANCH  11  19
ENDBRANCH   7  14
ENDBRANCH   1   9
BRANCH   5  20
ATOM     20  N   UNL     1       5.902   3.938  15.008  0.00  0.00    +0.000 N 
ATOM     21  C   UNL     1       6.464   4.292  13.787  0.00  0.00    +0.000 C 
ATOM     22  O   UNL     1       7.287   5.188  13.618  0.00  0.00    +0.000 OA
ATOM     23  H   UNL     1       5.315   3.111  14.991  0.00  0.00    +0.000 HD
BRANCH  21  24
ATOM     24  C   UNL     1       6.030   3.464  12.679  0.00  0.00    +0.000 A 
ATOM     25  C   UNL     1       6.723   2.522  11.940  0.00  0.00    +0.000 A 
ATOM     26  C   UNL     1       5.809   1.982  11.008  0.00  0.00    +0.000 A 
ATOM     27  C   UNL     1       4.617   2.634  11.222  0.00  0.00    +0.000 A 
ATOM     28  O   UNL     1       4.738   3.538  12.230  0.00  0.00    +0.000 OA
ENDBRANCH  21  24
ENDBRANCH   5  20
TORSDOF 5
ENDMDL
MODEL 5
REMARK VINA RESULT:      -8.1      1.751      2.381
REMARK  Name = 
REMARK  5 active torsions:
REMARK  status: ('A' for Active; 'I' for Inactive)
REMARK    1  A    between atoms: C_2  and  C_3
REMARK    2  A    between atoms: C_6  and  C_7
REMARK    3  A    between atoms: N_9  and  C_10
REMARK    4  A    between atoms: C_14  and  N_15
REMARK    5  A    between atoms: C_16  and  C_18
REMARK                            x       y       z     vdW  Elec       q    Type
REMARK                         _______ _______ _______ _____ _____    ______ ____
ROOT
ATOM      1  C   UNL     1       3.014   5.451  18.906  0.00  0.00    +0.000 A 
ATOM      2  C   UNL     1       3.287   4.488  19.878  0.00  0.00    +0.000 A 
ATOM      3  C   UNL     1       4.156   3.438  19.610  0.00  0.00    +0.000 A 
ATOM      4  C   UNL     1       4.758   3.334  18.362  0.00  0.00    +0.000 A 
ATOM      5  C   UNL     1       4.486   4.264  17.356  0.00  0.00    +0.000 A 
ATOM      6  C   UNL     1       3.605   5.325  17.635  0.00  0.00    +0.000 A 
ENDROOT
BRANCH   1   9
ATOM      7  C   UNL     1       2.322   7.834  18.672  0.00  0.00    +0.000 C 
ATOM      8  O   UNL     1       3.215   8.200  17.912  0.00  0.00    +0.000 OA
ATOM      9  N   UNL     1       2.152   6.545  19.160  0.00  0.00    +0.000 N 
ATOM     10  H   UNL     1       1.304   6.341  19.678  0.00  0.00    +0.000 HD
BRANCH   7  14
ATOM     11  C   UNL     1      -0.612  10.816  19.678  0.00  0.00    +0.000 A 
ATOM     12  C   UNL     1      -0.305  10.537  18.344  0.00  0.00    +0.000 A 
ATOM     13  C   UNL     1       0.650   9.564  18.037  0.00  0.00    +0.000 A 
ATOM     14  C   UNL     1       1.311   8.858  19.060  0.00  0.00    +0.000 A 
ATOM     15  C   UNL     1       0.991   9.147  20.385  0.00  0.00    +0.000 A 
ATOM     16  F   UNL     1       1.585   8.499  21.398  0.00  0.00    +0.000 F 
ATOM     17  C   UNL     1       0.040  10.116  20.699  0.00  0.00    +0.000 A 
BRANCH  11  19
ATOM     18  N   UNL     1      -2.376  12.626  20.257  0.00  0.00    +0.000 NA
ATOM     19  C   UNL     1      -1.584  11.815  20.000  0.00  0.00    +0.000 C 
ENDBRANCH  11  19
ENDBRANCH   7  14
ENDBRANCH   1   9
BRANCH   5  20
ATOM     20  N   UNL     1       5.083   4.181  16.079  0.00  0.00    +0.000 N 
ATOM     21  C   UNL     1       6.103   4.989  15.589  0.00  0.00    +0.000 C 
ATOM     22  O   UNL     1       6.670   5.876  16.221  0.00  0.00    +0.000 OA
ATOM     23  H   UNL     1       4.791   3.431  15.462  0.00  0.00    +0.000 HD
BRANCH  21  24
ATOM     24  C   UNL     1       6.505   4.671  14.233  0.00  0.00    +0.000 A 
ATOM     25  C   UNL     1       6.028   3.708  13.361  0.00  0.00    +0.000 A 
ATOM     26  C   UNL     1       6.744   3.862  12.153  0.00  0.00    +0.000 A 
ATOM     27  C   UNL     1       7.624   4.898  12.362  0.00  0.00    +0.000 A 
ATOM     28  O   UNL     1       7.493   5.395  13.620  0.00  0.00    +0.000 OA
ENDBRANCH  21  24
ENDBRANCH   5  20
TORSDOF 5
ENDMDL
MODEL 6
REMARK VINA RESULT:      -8.0      2.699      4.007
REMARK  Name = 
REMARK  5 active torsions:
REMARK  status: ('A' for Active; 'I' for Inactive)
REMARK    1  A    between atoms: C_2  and  C_3
REMARK    2  A    between atoms: C_6  and  C_7
REMARK    3  A    between atoms: N_9  and  C_10
REMARK    4  A    between atoms: C_14  and  N_15
REMARK    5  A    between atoms: C_16  and  C_18
REMARK                            x       y       z     vdW  Elec       q    Type
REMARK                         _______ _______ _______ _____ _____    ______ ____
ROOT
ATOM      1  C   UNL     1       5.406   6.173  17.705  0.00  0.00    +0.000 A 
ATOM      2  C   UNL     1       6.532   5.966  18.503  0.00  0.00    +0.000 A 
ATOM      3  C   UNL     1       7.527   5.081  18.107  0.00  0.00    +0.000 A 
ATOM      4  C   UNL     1       7.404   4.387  16.909  0.00  0.00    +0.000 A 
ATOM      5  C   UNL     1       6.278   4.548  16.100  0.00  0.00    +0.000 A 
ATOM      6  C   UNL     1       5.275   5.446  16.507  0.00  0.00    +0.000 A 
ENDROOT
BRANCH   1   9
ATOM      7  C   UNL     1       3.132   6.743  18.552  0.00  0.00    +0.000 C 
ATOM      8  O   UNL     1       2.738   5.601  18.773  0.00  0.00    +0.000 OA
ATOM      9  N   UNL     1       4.389   7.087  18.072  0.00  0.00    +0.000 N 
ATOM     10  H   UNL     1       4.637   8.070  18.052  0.00  0.00    +0.000 HD
BRANCH   7  14
ATOM     11  C   UNL     1       0.427   9.984  19.380  0.00  0.00    +0.000 A 
ATOM     12  C   UNL     1       1.015   9.848  18.119  0.00  0.00    +0.000 A 
ATOM     13  C   UNL     1       1.890   8.788  17.869  0.00  0.00    +0.000 A 
ATOM     14  C   UNL     1       2.190   7.850  18.875  0.00  0.00    +0.000 A 
ATOM     15  C   UNL     1       1.592   7.999  20.125  0.00  0.00    +0.000 A 
ATOM     16  F   UNL     1       1.836   7.131  21.118  0.00  0.00    +0.000 F 
ATOM     17  C   UNL     1       0.718   9.055  20.383  0.00  0.00    +0.000 A 
BRANCH  11  19
ATOM     18  N   UNL     1      -1.190  11.952  19.867  0.00  0.00    +0.000 NA
ATOM     19  C   UNL     1      -0.466  11.070  19.645  0.00  0.00    +0.000 C 
ENDBRANCH  11  19
ENDBRANCH   7  14
ENDBRANCH   1   9
BRANCH   5  20
ATOM     20  N   UNL     1       6.127   3.853  14.880  0.00  0.00    +0.000 N 
ATOM     21  C   UNL     1       6.629   4.239  13.642  0.00  0.00    +0.000 C 
ATOM     22  O   UNL     1       7.321   5.233  13.436  0.00  0.00    +0.000 OA
ATOM     23  H   UNL     1       5.658   2.955  14.895  0.00  0.00    +0.000 HD
BRANCH  21  24
ATOM     24  C   UNL     1       6.303   3.325  12.565  0.00  0.00    +0.000 A 
ATOM     25  C   UNL     1       5.077   2.977  12.026  0.00  0.00    +0.000 A 
ATOM     26  C   UNL     1       5.338   2.078  10.968  0.00  0.00    +0.000 A 
ATOM     27  C   UNL     1       6.703   1.918  10.932  0.00  0.00    +0.000 A 
ATOM     28  O   UNL     1       7.301   2.665  11.897  0.00  0.00    +0.000 OA
ENDBRANCH  21  24
ENDBRANCH   5  20
TORSDOF 5
ENDMDL
MODEL 7
REMARK VINA RESULT:      -7.9      1.232      1.557
REMARK  Name = 
REMARK  5 active torsions:
REMARK  status: ('A' for Active; 'I' for Inactive)
REMARK    1  A    between atoms: C_2  and  C_3
REMARK    2  A    between atoms: C_6  and  C_7
REMARK    3  A    between atoms: N_9  and  C_10
REMARK    4  A    between atoms: C_14  and  N_15
REMARK    5  A    between atoms: C_16  and  C_18
REMARK                            x       y       z     vdW  Elec       q    Type
REMARK                         _______ _______ _______ _____ _____    ______ ____
ROOT
ATOM      1  C   UNL     1       2.925   5.068  19.227  0.00  0.00    +0.000 A 
ATOM      2  C   UNL     1       3.011   3.924  20.022  0.00  0.00    +0.000 A 
ATOM      3  C   UNL     1       3.757   2.828  19.607  0.00  0.00    +0.000 A 
ATOM      4  C   UNL     1       4.420   2.859  18.386  0.00  0.00    +0.000 A 
ATOM      5  C   UNL     1       4.332   3.975  17.552  0.00  0.00    +0.000 A 
ATOM      6  C   UNL     1       3.576   5.083  17.979  0.00  0.00    +0.000 A 
ENDROOT
BRANCH   1   9
ATOM      7  C   UNL     1       2.347   7.490  19.124  0.00  0.00    +0.000 C 
ATOM      8  O   UNL     1       3.102   7.810  18.210  0.00  0.00    +0.000 OA
ATOM      9  N   UNL     1       2.193   6.208  19.636  0.00  0.00    +0.000 N 
ATOM     10  H   UNL     1       1.446   6.050  20.304  0.00  0.00    +0.000 HD
BRANCH   7  14
ATOM     11  C   UNL     1      -0.121  10.551  20.869  0.00  0.00    +0.000 A 
ATOM     12  C   UNL     1       0.418   9.533  21.659  0.00  0.00    +0.000 A 
ATOM     13  C   UNL     1       1.219   8.547  21.074  0.00  0.00    +0.000 A 
ATOM     14  C   UNL     1       1.489   8.568  19.692  0.00  0.00    +0.000 A 
ATOM     15  C   UNL     1       0.945   9.593  18.921  0.00  0.00    +0.000 A 
ATOM     16  F   UNL     1       1.177   9.664  17.602  0.00  0.00    +0.000 F 
ATOM     17  C   UNL     1       0.145  10.579  19.497  0.00  0.00    +0.000 A 
BRANCH  11  19
ATOM     18  N   UNL     1      -1.618  12.382  21.935  0.00  0.00    +0.000 NA
ATOM     19  C   UNL     1      -0.947  11.560  21.460  0.00  0.00    +0.000 C 
ENDBRANCH  11  19
ENDBRANCH   7  14
ENDBRANCH   1   9
BRANCH   5  20
ATOM     20  N   UNL     1       4.994   4.032  16.306  0.00  0.00    +0.000 N 
ATOM     21  C   UNL     1       6.167   4.723  16.024  0.00  0.00    +0.000 C 
ATOM     22  O   UNL     1       6.829   5.358  16.841  0.00  0.00    +0.000 OA
ATOM     23  H   UNL     1       4.624   3.478  15.541  0.00  0.00    +0.000 HD
BRANCH  21  24
ATOM     24  C   UNL     1       6.603   4.603  14.647  0.00  0.00    +0.000 A 
ATOM     25  C   UNL     1       6.109   3.824  13.616  0.00  0.00    +0.000 A 
ATOM     26  C   UNL     1       6.879   4.126  12.471  0.00  0.00    +0.000 A 
ATOM     27  C   UNL     1       7.806   5.059  12.872  0.00  0.00    +0.000 A 
ATOM     28  O   UNL     1       7.653   5.356  14.189  0.00  0.00    +0.000 OA
ENDBRANCH  21  24
ENDBRANCH   5  20
TORSDOF 5
ENDMDL
MODEL 8
REMARK VINA RESULT:      -7.9      1.601      2.121
REMARK  Name = 
REMARK  5 active torsions:
REMARK  status: ('A' for Active; 'I' for Inactive)
REMARK    1  A    between atoms: C_2  and  C_3
REMARK    2  A    between atoms: C_6  and  C_7
REMARK    3  A    between atoms: N_9  and  C_10
REMARK    4  A    between atoms: C_14  and  N_15
REMARK    5  A    between atoms: C_16  and  C_18
REMARK                            x       y       z     vdW  Elec       q    Type
REMARK                         _______ _______ _______ _____ _____    ______ ____
ROOT
ATOM      1  C   UNL     1       3.298   5.653  19.213  0.00  0.00    +0.000 A 
ATOM      2  C   UNL     1       3.267   4.480  19.969  0.00  0.00    +0.000 A 
ATOM      3  C   UNL     1       3.866   3.318  19.497  0.00  0.00    +0.000 A 
ATOM      4  C   UNL     1       4.498   3.315  18.260  0.00  0.00    +0.000 A 
ATOM      5  C   UNL     1       4.523   4.462  17.465  0.00  0.00    +0.000 A 
ATOM      6  C   UNL     1       3.915   5.635  17.948  0.00  0.00    +0.000 A 
ENDROOT
BRANCH   1   9
ATOM      7  C   UNL     1       2.054   7.789  18.893  0.00  0.00    +0.000 C 
ATOM      8  O   UNL     1       1.833   7.682  17.689  0.00  0.00    +0.000 OA
ATOM      9  N   UNL     1       2.717   6.856  19.680  0.00  0.00    +0.000 N 
ATOM     10  H   UNL     1       2.725   7.002  20.684  0.00  0.00    +0.000 HD
BRANCH   7  14
ATOM     11  C   UNL     1       0.522  11.360  20.739  0.00  0.00    +0.000 A 
ATOM     12  C   UNL     1       0.896  11.356  19.393  0.00  0.00    +0.000 A 
ATOM     13  C   UNL     1       1.391  10.185  18.810  0.00  0.00    +0.000 A 
ATOM     14  C   UNL     1       1.518   9.005  19.566  0.00  0.00    +0.000 A 
ATOM     15  C   UNL     1       1.138   9.026  20.907  0.00  0.00    +0.000 A 
ATOM     16  F   UNL     1       1.232   7.928  21.671  0.00  0.00    +0.000 F 
ATOM     17  C   UNL     1       0.644  10.190  21.495  0.00  0.00    +0.000 A 
BRANCH  11  19
ATOM     18  N   UNL     1      -0.385  13.531  21.830  0.00  0.00    +0.000 NA
ATOM     19  C   UNL     1       0.021  12.556  21.344  0.00  0.00    +0.000 C 
ENDBRANCH  11  19
ENDBRANCH   7  14
ENDBRANCH   1   9
BRANCH   5  20
ATOM     20  N   UNL     1       5.156   4.484  16.202  0.00  0.00    +0.000 N 
ATOM     21  C   UNL     1       6.511   4.684  15.961  0.00  0.00    +0.000 C 
ATOM     22  O   UNL     1       7.371   4.829  16.825  0.00  0.00    +0.000 OA
ATOM     23  H   UNL     1       4.596   4.283  15.382  0.00  0.00    +0.000 HD
BRANCH  21  24
ATOM     24  C   UNL     1       6.867   4.664  14.556  0.00  0.00    +0.000 A 
ATOM     25  C   UNL     1       6.335   3.932  13.508  0.00  0.00    +0.000 A 
ATOM     26  C   UNL     1       7.024   4.331  12.342  0.00  0.00    +0.000 A 
ATOM     27  C   UNL     1       7.944   5.270  12.745  0.00  0.00    +0.000 A 
ATOM     28  O   UNL     1       7.862   5.479  14.086  0.00  0.00    +0.000 OA
ENDBRANCH  21  24
ENDBRANCH   5  20
TORSDOF 5
ENDMDL
MODEL 9
REMARK VINA RESULT:      -7.9      4.087      9.730
REMARK  Name = 
REMARK  5 active torsions:
REMARK  status: ('A' for Active; 'I' for Inactive)
REMARK    1  A    between atoms: C_2  and  C_3
REMARK    2  A    between atoms: C_6  and  C_7
REMARK    3  A    between atoms: N_9  and  C_10
REMARK    4  A    between atoms: C_14  and  N_15
REMARK    5  A    between atoms: C_16  and  C_18
REMARK                            x       y       z     vdW  Elec       q    Type
REMARK                         _______ _______ _______ _____ _____    ______ ____
ROOT
ATOM      1  C   UNL     1       0.671  10.344  18.668  0.00  0.00    +0.000 A 
ATOM      2  C   UNL     1       1.446  11.504  18.653  0.00  0.00    +0.000 A 
ATOM      3  C   UNL     1       0.846  12.756  18.595  0.00  0.00    +0.000 A 
ATOM      4  C   UNL     1      -0.538  12.862  18.544  0.00  0.00    +0.000 A 
ATOM      5  C   UNL     1      -1.344  11.722  18.528  0.00  0.00    +0.000 A 
ATOM      6  C   UNL     1      -0.730  10.457  18.588  0.00  0.00    +0.000 A 
ENDROOT
BRANCH   1   9
ATOM      7  C   UNL     1       1.553   8.383  19.929  0.00  0.00    +0.000 C 
ATOM      8  O   UNL     1       1.310   8.783  21.064  0.00  0.00    +0.000 OA
ATOM      9  N   UNL     1       1.255   9.057  18.752  0.00  0.00    +0.000 N 
ATOM     10  H   UNL     1       1.391   8.565  17.875  0.00  0.00    +0.000 HD
BRANCH   7  14
ATOM     11  C   UNL     1       3.297   4.458  19.690  0.00  0.00    +0.000 A 
ATOM     12  C   UNL     1       2.340   4.756  20.663  0.00  0.00    +0.000 A 
ATOM     13  C   UNL     1       1.784   6.037  20.724  0.00  0.00    +0.000 A 
ATOM     14  C   UNL     1       2.178   7.036  19.814  0.00  0.00    +0.000 A 
ATOM     15  C   UNL     1       3.132   6.720  18.848  0.00  0.00    +0.000 A 
ATOM     16  F   UNL     1       3.538   7.631  17.952  0.00  0.00    +0.000 F 
ATOM     17  C   UNL     1       3.692   5.445  18.781  0.00  0.00    +0.000 A 
BRANCH  11  19
ATOM     18  N   UNL     1       4.351   2.091  19.576  0.00  0.00    +0.000 NA
ATOM     19  C   UNL     1       3.876   3.151  19.625  0.00  0.00    +0.000 C 
ENDBRANCH  11  19
ENDBRANCH   7  14
ENDBRANCH   1   9
BRANCH   5  20
ATOM     20  N   UNL     1      -2.753  11.801  18.475  0.00  0.00    +0.000 N 
ATOM     21  C   UNL     1      -3.554  11.547  17.367  0.00  0.00    +0.000 C 
ATOM     22  O   UNL     1      -3.148  11.169  16.271  0.00  0.00    +0.000 OA
ATOM     23  H   UNL     1      -3.254  12.010  19.332  0.00  0.00    +0.000 HD
BRANCH  21  24
ATOM     24  C   UNL     1      -4.972  11.721  17.614  0.00  0.00    +0.000 A 
ATOM     25  C   UNL     1      -5.861  12.653  17.109  0.00  0.00    +0.000 A 
ATOM     26  C   UNL     1      -7.128  12.340  17.648  0.00  0.00    +0.000 A 
ATOM     27  C   UNL     1      -6.938  11.247  18.460  0.00  0.00    +0.000 A 
ATOM     28  O   UNL     1      -5.634  10.863  18.452  0.00  0.00    +0.000 OA
ENDBRANCH  21  24
ENDBRANCH   5  20
TORSDOF 5
ENDMDL
