MODEL 1
REMARK VINA RESULT:      -5.9      0.000      0.000
REMARK  Name = 
REMARK  8 active torsions:
REMARK  status: ('A' for Active; 'I' for Inactive)
REMARK    1  A    between atoms: C_1  and  C_2
REMARK    2  A    between atoms: C_2  and  C_3
REMARK    3  A    between atoms: C_3  and  C_4
REMARK    4  A    between atoms: C_3  and  N_7
REMARK    5  A    between atoms: C_4  and  O_5
REMARK    6  A    between atoms: O_5  and  C_6
REMARK    7  A    between atoms: N_13  and  C_14
REMARK    8  A    between atoms: C_18  and  C_19
REMARK                            x       y       z     vdW  Elec       q    Type
REMARK                         _______ _______ _______ _____ _____    ______ ____
ROOT
ATOM      1  N   UNL     1      -3.193  12.369  19.919  0.00  0.00    +0.000 N 
ATOM      2  C   UNL     1      -3.577  11.701  18.769  0.00  0.00    +0.000 A 
ATOM      3  C   UNL     1      -2.791  10.777  18.200  0.00  0.00    +0.000 A 
ATOM      4 CL   UNL     1      -3.374   9.897  16.830  0.00  0.00    +0.000 Cl
ATOM      5  N   UNL     1      -1.547  10.430  18.635  0.00  0.00    +0.000 NA
ATOM      6  C   UNL     1      -1.106  11.002  19.723  0.00  0.00    +0.000 A 
ATOM      7  N   UNL     1       0.131  10.721  20.273  0.00  0.00    +0.000 N 
ATOM      8  C   UNL     1      -1.941  12.084  20.470  0.00  0.00    +0.000 A 
ATOM      9  O   UNL     1      -1.447  12.612  21.460  0.00  0.00    +0.000 OA
ATOM     10  H   UNL     1       0.379  11.258  21.102  0.00  0.00    +0.000 HD
ENDROOT
BRANCH   7  11
ATOM     11  C   UNL     1       0.859   9.516  20.120  0.00  0.00    +0.000 A 
ATOM     12  C   UNL     1       0.731   8.505  21.098  0.00  0.00    +0.000 A 
ATOM     13 CL   UNL     1      -0.251   8.749  22.507  0.00  0.00    +0.000 Cl
ATOM     14  C   UNL     1       1.381   7.268  20.978  0.00  0.00    +0.000 A 
ATOM     15  C   UNL     1       2.179   6.991  19.863  0.00  0.00    +0.000 A 
ATOM     16  C   UNL     1       2.317   7.981  18.883  0.00  0.00    +0.000 A 
ATOM     17  C   UNL     1       1.660   9.217  18.998  0.00  0.00    +0.000 A 
ATOM     18 CL   UNL     1       1.788  10.263  17.622  0.00  0.00    +0.000 Cl
BRANCH  15  19
ATOM     19  C   UNL     1       2.846   5.651  19.674  0.00  0.00    +0.000 C 
ATOM     20  F   UNL     1       4.200   5.694  19.800  0.00  0.00    +0.000 F 
ATOM     21  F   UNL     1       2.414   4.734  20.583  0.00  0.00    +0.000 F 
ATOM     22  F   UNL     1       2.598   5.113  18.450  0.00  0.00    +0.000 F 
ENDBRANCH  15  19
ENDBRANCH   7  11
BRANCH   1  23
ATOM     23  C   UNL     1      -4.039  13.424  20.522  0.00  0.00    +0.000 C 
BRANCH  23  25
ATOM     24  C   UNL     1      -4.221  14.375  22.906  0.00  0.00    +0.000 C 
ATOM     25  C   UNL     1      -4.446  13.176  21.997  0.00  0.00    +0.000 C 
ENDBRANCH  23  25
BRANCH  23  26
ATOM     26  C   UNL     1      -5.296  13.677  19.655  0.00  0.00    +0.000 C 
BRANCH  26  27
ATOM     27  O   UNL     1      -6.454  13.140  20.296  0.00  0.00    +0.000 OA
ATOM     28  C   UNL     1      -7.588  13.131  19.441  0.00  0.00    +0.000 C 
ENDBRANCH  26  27
ENDBRANCH  23  26
ENDBRANCH   1  23
TORSDOF 6
ENDMDL
MODEL 2
REMARK VINA RESULT:      -5.9      2.558      3.206
REMARK  Name = 
REMARK  8 active torsions:
REMARK  status: ('A' for Active; 'I' for Inactive)
REMARK    1  A    between atoms: C_1  and  C_2
REMARK    2  A    between atoms: C_2  and  C_3
REMARK    3  A    between atoms: C_3  and  C_4
REMARK    4  A    between atoms: C_3  and  N_7
REMARK    5  A    between atoms: C_4  and  O_5
REMARK    6  A    between atoms: O_5  and  C_6
REMARK    7  A    between atoms: N_13  and  C_14
REMARK    8  A    between atoms: C_18  and  C_19
REMARK                            x       y       z     vdW  Elec       q    Type
REMARK                         _______ _______ _______ _____ _____    ______ ____
ROOT
ATOM      1  N   UNL     1      -0.821  12.721  18.984  0.00  0.00    +0.000 N 
ATOM      2  C   UNL     1      -1.690  11.997  18.187  0.00  0.00    +0.000 A 
ATOM      3  C   UNL     1      -1.486  10.699  17.925  0.00  0.00    +0.000 A 
ATOM      4 CL   UNL     1      -2.667   9.823  17.015  0.00  0.00    +0.000 Cl
ATOM      5  N   UNL     1      -0.415   9.973  18.351  0.00  0.00    +0.000 NA
ATOM      6  C   UNL     1       0.454  10.571  19.121  0.00  0.00    +0.000 A 
ATOM      7  N   UNL     1       1.571   9.935  19.631  0.00  0.00    +0.000 N 
ATOM      8  C   UNL     1       0.309  12.076  19.496  0.00  0.00    +0.000 A 
ATOM      9  O   UNL     1       1.184  12.585  20.186  0.00  0.00    +0.000 OA
ATOM     10  H   UNL     1       2.194  10.517  20.189  0.00  0.00    +0.000 HD
ENDROOT
BRANCH   7  11
ATOM     11  C   UNL     1       1.709   8.546  19.862  0.00  0.00    +0.000 A 
ATOM     12  C   UNL     1       1.152   7.983  21.031  0.00  0.00    +0.000 A 
ATOM     13 CL   UNL     1       0.363   8.980  22.211  0.00  0.00    +0.000 Cl
ATOM     14  C   UNL     1       1.206   6.605  21.292  0.00  0.00    +0.000 A 
ATOM     15  C   UNL     1       1.813   5.734  20.381  0.00  0.00    +0.000 A 
ATOM     16  C   UNL     1       2.370   6.275  19.215  0.00  0.00    +0.000 A 
ATOM     17  C   UNL     1       2.309   7.652  18.950  0.00  0.00    +0.000 A 
ATOM     18 CL   UNL     1       2.883   8.138  17.388  0.00  0.00    +0.000 Cl
BRANCH  15  19
ATOM     19  C   UNL     1       1.838   4.242  20.601  0.00  0.00    +0.000 C 
ATOM     20  F   UNL     1       2.082   3.886  21.892  0.00  0.00    +0.000 F 
ATOM     21  F   UNL     1       0.654   3.658  20.270  0.00  0.00    +0.000 F 
ATOM     22  F   UNL     1       2.786   3.619  19.852  0.00  0.00    +0.000 F 
ENDBRANCH  15  19
ENDBRANCH   7  11
BRANCH   1  23
ATOM     23  C   UNL     1      -1.019  14.166  19.236  0.00  0.00    +0.000 C 
BRANCH  23  25
ATOM     24  C   UNL     1      -0.025  16.393  18.414  0.00  0.00    +0.000 C 
ATOM     25  C   UNL     1       0.247  15.043  19.061  0.00  0.00    +0.000 C 
ENDBRANCH  23  25
BRANCH  23  26
ATOM     26  C   UNL     1      -1.641  14.396  20.634  0.00  0.00    +0.000 C 
BRANCH  26  27
ATOM     27  O   UNL     1      -0.648  14.873  21.544  0.00  0.00    +0.000 OA
ATOM     28  C   UNL     1      -0.633  14.138  22.760  0.00  0.00    +0.000 C 
ENDBRANCH  26  27
ENDBRANCH  23  26
ENDBRANCH   1  23
TORSDOF 6
ENDMDL
MODEL 3
REMARK VINA RESULT:      -5.9      2.585      3.348
REMARK  Name = 
REMARK  8 active torsions:
REMARK  status: ('A' for Active; 'I' for Inactive)
REMARK    1  A    between atoms: C_1  and  C_2
REMARK    2  A    between atoms: C_2  and  C_3
REMARK    3  A    between atoms: C_3  and  C_4
REMARK    4  A    between atoms: C_3  and  N_7
REMARK    5  A    between atoms: C_4  and  O_5
REMARK    6  A    between atoms: O_5  and  C_6
REMARK    7  A    between atoms: N_13  and  C_14
REMARK    8  A    between atoms: C_18  and  C_19
REMARK                            x       y       z     vdW  Elec       q    Type
REMARK                         _______ _______ _______ _____ _____    ______ ____
ROOT
ATOM      1  N   UNL     1      -0.587  12.457  19.659  0.00  0.00    +0.000 N 
ATOM      2  C   UNL     1      -1.456  11.900  18.737  0.00  0.00    +0.000 A 
ATOM      3  C   UNL     1      -1.270  10.663  18.257  0.00  0.00    +0.000 A 
ATOM      4 CL   UNL     1      -2.452   9.982  17.194  0.00  0.00    +0.000 Cl
ATOM      5  N   UNL     1      -0.220   9.852  18.566  0.00  0.00    +0.000 NA
ATOM      6  C   UNL     1       0.647  10.291  19.439  0.00  0.00    +0.000 A 
ATOM      7  N   UNL     1       1.744   9.554  19.846  0.00  0.00    +0.000 N 
ATOM      8  C   UNL     1       0.523  11.711  20.066  0.00  0.00    +0.000 A 
ATOM      9  O   UNL     1       1.396  12.075  20.845  0.00  0.00    +0.000 OA
ATOM     10  H   UNL     1       2.368  10.017  20.504  0.00  0.00    +0.000 HD
ENDROOT
BRANCH   7  11
ATOM     11  C   UNL     1       1.854   8.143  19.834  0.00  0.00    +0.000 A 
ATOM     12  C   UNL     1       1.258   7.397  20.875  0.00  0.00    +0.000 A 
ATOM     13 CL   UNL     1       0.455   8.190  22.192  0.00  0.00    +0.000 Cl
ATOM     14  C   UNL     1       1.282   5.994  20.894  0.00  0.00    +0.000 A 
ATOM     15  C   UNL     1       1.899   5.282  19.859  0.00  0.00    +0.000 A 
ATOM     16  C   UNL     1       2.494   6.005  18.818  0.00  0.00    +0.000 A 
ATOM     17  C   UNL     1       2.462   7.408  18.794  0.00  0.00    +0.000 A 
ATOM     18 CL   UNL     1       3.083   8.146  17.354  0.00  0.00    +0.000 Cl
BRANCH  15  19
ATOM     19  C   UNL     1       1.893   3.774  19.817  0.00  0.00    +0.000 C 
ATOM     20  F   UNL     1       1.532   3.265  18.607  0.00  0.00    +0.000 F 
ATOM     21  F   UNL     1       3.121   3.252  20.090  0.00  0.00    +0.000 F 
ATOM     22  F   UNL     1       1.042   3.229  20.725  0.00  0.00    +0.000 F 
ENDBRANCH  15  19
ENDBRANCH   7  11
BRANCH   1  23
ATOM     23  C   UNL     1      -0.763  13.841  20.154  0.00  0.00    +0.000 C 
BRANCH  23  25
ATOM     24  C   UNL     1      -2.517  13.718  22.033  0.00  0.00    +0.000 C 
ATOM     25  C   UNL     1      -2.198  14.193  20.623  0.00  0.00    +0.000 C 
ENDBRANCH  23  25
BRANCH  23  26
ATOM     26  C   UNL     1      -0.279  14.864  19.098  0.00  0.00    +0.000 C 
BRANCH  26  27
ATOM     27  O   UNL     1       1.099  15.178  19.312  0.00  0.00    +0.000 OA
ATOM     28  C   UNL     1       1.500  16.346  18.609  0.00  0.00    +0.000 C 
ENDBRANCH  26  27
ENDBRANCH  23  26
ENDBRANCH   1  23
TORSDOF 6
ENDMDL
MODEL 4
REMARK VINA RESULT:      -5.8      2.651      3.704
REMARK  Name = 
REMARK  8 active torsions:
REMARK  status: ('A' for Active; 'I' for Inactive)
REMARK    1  A    between atoms: C_1  and  C_2
REMARK    2  A    between atoms: C_2  and  C_3
REMARK    3  A    between atoms: C_3  and  C_4
REMARK    4  A    between atoms: C_3  and  N_7
REMARK    5  A    between atoms: C_4  and  O_5
REMARK    6  A    between atoms: O_5  and  C_6
REMARK    7  A    between atoms: N_13  and  C_14
REMARK    8  A    between atoms: C_18  and  C_19
REMARK                            x       y       z     vdW  Elec       q    Type
REMARK                         _______ _______ _______ _____ _____    ______ ____
ROOT
ATOM      1  N   UNL     1      -0.339  12.725  18.816  0.00  0.00    +0.000 N 
ATOM      2  C   UNL     1      -1.403  12.074  18.216  0.00  0.00    +0.000 A 
ATOM      3  C   UNL     1      -1.404  10.746  18.043  0.00  0.00    +0.000 A 
ATOM      4 CL   UNL     1      -2.809   9.979  17.389  0.00  0.00    +0.000 Cl
ATOM      5  N   UNL     1      -0.379   9.911  18.375  0.00  0.00    +0.000 NA
ATOM      6  C   UNL     1       0.664  10.437  18.958  0.00  0.00    +0.000 A 
ATOM      7  N   UNL     1       1.758   9.691  19.359  0.00  0.00    +0.000 N 
ATOM      8  C   UNL     1       0.766  11.969  19.217  0.00  0.00    +0.000 A 
ATOM      9  O   UNL     1       1.793  12.400  19.729  0.00  0.00    +0.000 OA
ATOM     10  H   UNL     1       2.526  10.219  19.770  0.00  0.00    +0.000 HD
ENDROOT
BRANCH   7  11
ATOM     11  C   UNL     1       1.755   8.315  19.688  0.00  0.00    +0.000 A 
ATOM     12  C   UNL     1       2.401   7.400  18.827  0.00  0.00    +0.000 A 
ATOM     13 CL   UNL     1       3.134   7.933  17.349  0.00  0.00    +0.000 Cl
ATOM     14  C   UNL     1       2.483   6.031  19.124  0.00  0.00    +0.000 A 
ATOM     15  C   UNL     1       1.928   5.527  20.305  0.00  0.00    +0.000 A 
ATOM     16  C   UNL     1       1.285   6.419  21.171  0.00  0.00    +0.000 A 
ATOM     17  C   UNL     1       1.210   7.791  20.879  0.00  0.00    +0.000 A 
ATOM     18 CL   UNL     1       0.542   8.786  22.131  0.00  0.00    +0.000 Cl
BRANCH  15  19
ATOM     19  C   UNL     1       2.048   4.071  20.683  0.00  0.00    +0.000 C 
ATOM     20  F   UNL     1       2.300   3.872  22.006  0.00  0.00    +0.000 F 
ATOM     21  F   UNL     1       0.908   3.378  20.412  0.00  0.00    +0.000 F 
ATOM     22  F   UNL     1       3.043   3.436  20.010  0.00  0.00    +0.000 F 
ENDBRANCH  15  19
ENDBRANCH   7  11
BRANCH   1  23
ATOM     23  C   UNL     1      -0.315  14.198  18.966  0.00  0.00    +0.000 C 
BRANCH  23  25
ATOM     24  C   UNL     1       1.111  16.340  18.975  0.00  0.00    +0.000 C 
ATOM     25  C   UNL     1       1.020  14.877  18.567  0.00  0.00    +0.000 C 
ENDBRANCH  23  25
BRANCH  23  26
ATOM     26  C   UNL     1      -0.716  14.607  20.404  0.00  0.00    +0.000 C 
BRANCH  26  27
ATOM     27  O   UNL     1      -2.044  15.133  20.415  0.00  0.00    +0.000 OA
ATOM     28  C   UNL     1      -2.174  16.249  21.285  0.00  0.00    +0.000 C 
ENDBRANCH  26  27
ENDBRANCH  23  26
ENDBRANCH   1  23
TORSDOF 6
ENDMDL
MODEL 5
REMARK VINA RESULT:      -5.8      2.779      3.829
REMARK  Name = 
REMARK  8 active torsions:
REMARK  status: ('A' for Active; 'I' for Inactive)
REMARK    1  A    between atoms: C_1  and  C_2
REMARK    2  A    between atoms: C_2  and  C_3
REMARK    3  A    between atoms: C_3  and  C_4
REMARK    4  A    between atoms: C_3  and  N_7
REMARK    5  A    between atoms: C_4  and  O_5
REMARK    6  A    between atoms: O_5  and  C_6
REMARK    7  A    between atoms: N_13  and  C_14
REMARK    8  A    between atoms: C_18  and  C_19
REMARK                            x       y       z     vdW  Elec       q    Type
REMARK                         _______ _______ _______ _____ _____    ______ ____
ROOT
ATOM      1  N   UNL     1      -0.497  13.025  19.550  0.00  0.00    +0.000 N 
ATOM      2  C   UNL     1      -1.579  12.439  18.915  0.00  0.00    +0.000 A 
ATOM      3  C   UNL     1      -1.585  11.136  18.602  0.00  0.00    +0.000 A 
ATOM      4 CL   UNL     1      -3.010  10.439  17.912  0.00  0.00    +0.000 Cl
ATOM      5  N   UNL     1      -0.552  10.274  18.814  0.00  0.00    +0.000 NA
ATOM      6  C   UNL     1       0.508  10.737  19.420  0.00  0.00    +0.000 A 
ATOM      7  N   UNL     1       1.612   9.956  19.707  0.00  0.00    +0.000 N 
ATOM      8  C   UNL     1       0.618  12.234  19.836  0.00  0.00    +0.000 A 
ATOM      9  O   UNL     1       1.660  12.611  20.361  0.00  0.00    +0.000 OA
ATOM     10  H   UNL     1       2.392  10.439  20.149  0.00  0.00    +0.000 HD
ENDROOT
BRANCH   7  11
ATOM     11  C   UNL     1       1.619   8.552  19.889  0.00  0.00    +0.000 A 
ATOM     12  C   UNL     1       2.243   7.736  18.920  0.00  0.00    +0.000 A 
ATOM     13 CL   UNL     1       2.940   8.425  17.489  0.00  0.00    +0.000 Cl
ATOM     14  C   UNL     1       2.333   6.343  19.068  0.00  0.00    +0.000 A 
ATOM     15  C   UNL     1       1.807   5.715  20.202  0.00  0.00    +0.000 A 
ATOM     16  C   UNL     1       1.185   6.509  21.173  0.00  0.00    +0.000 A 
ATOM     17  C   UNL     1       1.102   7.903  21.030  0.00  0.00    +0.000 A 
ATOM     18 CL   UNL     1       0.465   8.758  22.396  0.00  0.00    +0.000 Cl
BRANCH  15  19
ATOM     19  C   UNL     1       1.937   4.228  20.421  0.00  0.00    +0.000 C 
ATOM     20  F   UNL     1       2.700   3.604  19.481  0.00  0.00    +0.000 F 
ATOM     21  F   UNL     1       2.511   3.937  21.621  0.00  0.00    +0.000 F 
ATOM     22  F   UNL     1       0.736   3.592  20.415  0.00  0.00    +0.000 F 
ENDBRANCH  15  19
ENDBRANCH   7  11
BRANCH   1  23
ATOM     23  C   UNL     1      -0.468  14.474  19.854  0.00  0.00    +0.000 C 
BRANCH  23  25
ATOM     24  C   UNL     1      -1.799  16.557  20.570  0.00  0.00    +0.000 C 
ATOM     25  C   UNL     1      -1.766  15.038  20.486  0.00  0.00    +0.000 C 
ENDBRANCH  23  25
BRANCH  23  26
ATOM     26  C   UNL     1      -0.089  15.288  18.594  0.00  0.00    +0.000 C 
BRANCH  26  27
ATOM     27  O   UNL     1       1.316  15.551  18.581  0.00  0.00    +0.000 OA
ATOM     28  C   UNL     1       1.740  16.272  19.730  0.00  0.00    +0.000 C 
ENDBRANCH  26  27
ENDBRANCH  23  26
ENDBRANCH   1  23
TORSDOF 6
ENDMDL
MODEL 6
REMARK VINA RESULT:      -5.8      0.881      1.349
REMARK  Name = 
REMARK  8 active torsions:
REMARK  status: ('A' for Active; 'I' for Inactive)
REMARK    1  A    between atoms: C_1  and  C_2
REMARK    2  A    between atoms: C_2  and  C_3
REMARK    3  A    between atoms: C_3  and  C_4
REMARK    4  A    between atoms: C_3  and  N_7
REMARK    5  A    between atoms: C_4  and  O_5
REMARK    6  A    between atoms: O_5  and  C_6
REMARK    7  A    between atoms: N_13  and  C_14
REMARK    8  A    between atoms: C_18  and  C_19
REMARK                            x       y       z     vdW  Elec       q    Type
REMARK                         _______ _______ _______ _____ _____    ______ ____
ROOT
ATOM      1  N   UNL     1      -2.866  12.704  20.153  0.00  0.00    +0.000 N 
ATOM      2  C   UNL     1      -3.359  12.046  19.040  0.00  0.00    +0.000 A 
ATOM      3  C   UNL     1      -2.683  11.045  18.461  0.00  0.00    +0.000 A 
ATOM      4 CL   UNL     1      -3.403  10.189  17.142  0.00  0.00    +0.000 Cl
ATOM      5  N   UNL     1      -1.455  10.601  18.850  0.00  0.00    +0.000 NA
ATOM      6  C   UNL     1      -0.916  11.156  19.902  0.00  0.00    +0.000 A 
ATOM      7  N   UNL     1       0.316  10.779  20.403  0.00  0.00    +0.000 N 
ATOM      8  C   UNL     1      -1.619  12.323  20.656  0.00  0.00    +0.000 A 
ATOM      9  O   UNL     1      -1.036  12.828  21.609  0.00  0.00    +0.000 OA
ATOM     10  H   UNL     1       0.648  11.311  21.206  0.00  0.00    +0.000 HD
ENDROOT
BRANCH   7  11
ATOM     11  C   UNL     1       0.929   9.513  20.250  0.00  0.00    +0.000 A 
ATOM     12  C   UNL     1       0.717   8.522  21.234  0.00  0.00    +0.000 A 
ATOM     13 CL   UNL     1      -0.227   8.859  22.649  0.00  0.00    +0.000 Cl
ATOM     14  C   UNL     1       1.250   7.229  21.114  0.00  0.00    +0.000 A 
ATOM     15  C   UNL     1       2.010   6.877  19.994  0.00  0.00    +0.000 A 
ATOM     16  C   UNL     1       2.230   7.846  19.008  0.00  0.00    +0.000 A 
ATOM     17  C   UNL     1       1.690   9.137  19.123  0.00  0.00    +0.000 A 
ATOM     18 CL   UNL     1       1.902  10.162  17.741  0.00  0.00    +0.000 Cl
BRANCH  15  19
ATOM     19  C   UNL     1       2.550   5.480  19.805  0.00  0.00    +0.000 C 
ATOM     20  F   UNL     1       2.053   4.580  20.697  0.00  0.00    +0.000 F 
ATOM     21  F   UNL     1       2.258   4.984  18.571  0.00  0.00    +0.000 F 
ATOM     22  F   UNL     1       3.902   5.422  19.924  0.00  0.00    +0.000 F 
ENDBRANCH  15  19
ENDBRANCH   7  11
BRANCH   1  23
ATOM     23  C   UNL     1      -3.589  13.842  20.765  0.00  0.00    +0.000 C 
BRANCH  23  25
ATOM     24  C   UNL     1      -2.811  15.852  22.172  0.00  0.00    +0.000 C 
ATOM     25  C   UNL     1      -2.798  15.175  20.809  0.00  0.00    +0.000 C 
ENDBRANCH  23  25
BRANCH  23  26
ATOM     26  C   UNL     1      -4.092  13.471  22.181  0.00  0.00    +0.000 C 
BRANCH  26  27
ATOM     27  O   UNL     1      -5.516  13.579  22.242  0.00  0.00    +0.000 OA
ATOM     28  C   UNL     1      -6.166  12.575  21.475  0.00  0.00    +0.000 C 
ENDBRANCH  26  27
ENDBRANCH  23  26
ENDBRANCH   1  23
TORSDOF 6
ENDMDL
MODEL 7
REMARK VINA RESULT:      -5.7      1.708      2.669
REMARK  Name = 
REMARK  8 active torsions:
REMARK  status: ('A' for Active; 'I' for Inactive)
REMARK    1  A    between atoms: C_1  and  C_2
REMARK    2  A    between atoms: C_2  and  C_3
REMARK    3  A    between atoms: C_3  and  C_4
REMARK    4  A    between atoms: C_3  and  N_7
REMARK    5  A    between atoms: C_4  and  O_5
REMARK    6  A    between atoms: O_5  and  C_6
REMARK    7  A    between atoms: N_13  and  C_14
REMARK    8  A    between atoms: C_18  and  C_19
REMARK                            x       y       z     vdW  Elec       q    Type
REMARK                         _______ _______ _______ _____ _____    ______ ____
ROOT
ATOM      1  N   UNL     1      -2.955  13.267  21.467  0.00  0.00    +0.000 N 
ATOM      2  C   UNL     1      -3.640  12.901  20.322  0.00  0.00    +0.000 A 
ATOM      3  C   UNL     1      -3.075  12.127  19.385  0.00  0.00    +0.000 A 
ATOM      4 CL   UNL     1      -4.020  11.612  18.031  0.00  0.00    +0.000 Cl
ATOM      5  N   UNL     1      -1.794  11.665  19.417  0.00  0.00    +0.000 NA
ATOM      6  C   UNL     1      -1.074  11.952  20.469  0.00  0.00    +0.000 A 
ATOM      7  N   UNL     1       0.232  11.526  20.625  0.00  0.00    +0.000 N 
ATOM      8  C   UNL     1      -1.634  12.837  21.621  0.00  0.00    +0.000 A 
ATOM      9  O   UNL     1      -0.889  13.103  22.557  0.00  0.00    +0.000 OA
ATOM     10  H   UNL     1       0.702  11.844  21.471  0.00  0.00    +0.000 HD
ENDROOT
BRANCH   7  11
ATOM     11  C   UNL     1       0.815  10.381  20.031  0.00  0.00    +0.000 A 
ATOM     12  C   UNL     1       1.538  10.524  18.826  0.00  0.00    +0.000 A 
ATOM     13 CL   UNL     1       1.662  12.064  18.039  0.00  0.00    +0.000 Cl
ATOM     14  C   UNL     1       2.186   9.440  18.215  0.00  0.00    +0.000 A 
ATOM     15  C   UNL     1       2.143   8.168  18.797  0.00  0.00    +0.000 A 
ATOM     16  C   UNL     1       1.432   8.008  19.992  0.00  0.00    +0.000 A 
ATOM     17  C   UNL     1       0.790   9.095  20.608  0.00  0.00    +0.000 A 
ATOM     18 CL   UNL     1       0.106   8.772  22.168  0.00  0.00    +0.000 Cl
BRANCH  15  19
ATOM     19  C   UNL     1       2.876   6.993  18.198  0.00  0.00    +0.000 C 
ATOM     20  F   UNL     1       3.683   6.347  19.084  0.00  0.00    +0.000 F 
ATOM     21  F   UNL     1       2.021   6.051  17.715  0.00  0.00    +0.000 F 
ATOM     22  F   UNL     1       3.671   7.349  17.155  0.00  0.00    +0.000 F 
ENDBRANCH  15  19
ENDBRANCH   7  11
BRANCH   1  23
ATOM     23  C   UNL     1      -3.560  14.160  22.481  0.00  0.00    +0.000 C 
BRANCH  23  25
ATOM     24  C   UNL     1      -4.037  12.533  24.417  0.00  0.00    +0.000 C 
ATOM     25  C   UNL     1      -4.622  13.495  23.393  0.00  0.00    +0.000 C 
ENDBRANCH  23  25
BRANCH  23  26
ATOM     26  C   UNL     1      -4.146  15.427  21.812  0.00  0.00    +0.000 C 
BRANCH  26  27
ATOM     27  O   UNL     1      -5.225  15.944  22.594  0.00  0.00    +0.000 OA
ATOM     28  C   UNL     1      -6.303  16.401  21.790  0.00  0.00    +0.000 C 
ENDBRANCH  26  27
ENDBRANCH  23  26
ENDBRANCH   1  23
TORSDOF 6
ENDMDL
MODEL 8
REMARK VINA RESULT:      -5.7      2.998      4.063
REMARK  Name = 
REMARK  8 active torsions:
REMARK  status: ('A' for Active; 'I' for Inactive)
REMARK    1  A    between atoms: C_1  and  C_2
REMARK    2  A    between atoms: C_2  and  C_3
REMARK    3  A    between atoms: C_3  and  C_4
REMARK    4  A    between atoms: C_3  and  N_7
REMARK    5  A    between atoms: C_4  and  O_5
REMARK    6  A    between atoms: O_5  and  C_6
REMARK    7  A    between atoms: N_13  and  C_14
REMARK    8  A    between atoms: C_18  and  C_19
REMARK                            x       y       z     vdW  Elec       q    Type
REMARK                         _______ _______ _______ _____ _____    ______ ____
ROOT
ATOM      1  N   UNL     1       0.326  14.678  19.852  0.00  0.00    +0.000 N 
ATOM      2  C   UNL     1       1.595  14.790  20.394  0.00  0.00    +0.000 A 
ATOM      3  C   UNL     1       2.274  13.716  20.817  0.00  0.00    +0.000 A 
ATOM      4 CL   UNL     1       3.897  13.910  21.382  0.00  0.00    +0.000 Cl
ATOM      5  N   UNL     1       1.801  12.439  20.814  0.00  0.00    +0.000 NA
ATOM      6  C   UNL     1       0.614  12.234  20.308  0.00  0.00    +0.000 A 
ATOM      7  N   UNL     1       0.035  10.981  20.232  0.00  0.00    +0.000 N 
ATOM      8  C   UNL     1      -0.258  13.410  19.778  0.00  0.00    +0.000 A 
ATOM      9  O   UNL     1      -1.380  13.152  19.358  0.00  0.00    +0.000 OA
ATOM     10  H   UNL     1      -0.910  10.954  19.850  0.00  0.00    +0.000 HD
ENDROOT
BRANCH   7  11
ATOM     11  C   UNL     1       0.721   9.744  20.177  0.00  0.00    +0.000 A 
ATOM     12  C   UNL     1       0.592   8.837  21.251  0.00  0.00    +0.000 A 
ATOM     13 CL   UNL     1      -0.339   9.247  22.656  0.00  0.00    +0.000 Cl
ATOM     14  C   UNL     1       1.201   7.573  21.235  0.00  0.00    +0.000 A 
ATOM     15  C   UNL     1       1.956   7.165  20.130  0.00  0.00    +0.000 A 
ATOM     16  C   UNL     1       2.094   8.051  19.055  0.00  0.00    +0.000 A 
ATOM     17  C   UNL     1       1.478   9.312  19.067  0.00  0.00    +0.000 A 
ATOM     18 CL   UNL     1       1.595  10.216  17.593  0.00  0.00    +0.000 Cl
BRANCH  15  19
ATOM     19  C   UNL     1       2.576   5.791  20.053  0.00  0.00    +0.000 C 
ATOM     20  F   UNL     1       2.078   5.025  19.044  0.00  0.00    +0.000 F 
ATOM     21  F   UNL     1       3.921   5.849  19.850  0.00  0.00    +0.000 F 
ATOM     22  F   UNL     1       2.399   5.073  21.193  0.00  0.00    +0.000 F 
ENDBRANCH  15  19
ENDBRANCH   7  11
BRANCH   1  23
ATOM     23  C   UNL     1      -0.444  15.868  19.427  0.00  0.00    +0.000 C 
BRANCH  23  25
ATOM     24  C   UNL     1      -0.366  17.668  17.589  0.00  0.00    +0.000 C 
ATOM     25  C   UNL     1       0.384  16.966  18.712  0.00  0.00    +0.000 C 
ENDBRANCH  23  25
BRANCH  23  26
ATOM     26  C   UNL     1      -1.216  16.474  20.624  0.00  0.00    +0.000 C 
BRANCH  26  27
ATOM     27  O   UNL     1      -2.609  16.569  20.316  0.00  0.00    +0.000 OA
ATOM     28  C   UNL     1      -3.430  16.207  21.417  0.00  0.00    +0.000 C 
ENDBRANCH  26  27
ENDBRANCH  23  26
ENDBRANCH   1  23
TORSDOF 6
ENDMDL
MODEL 9
REMARK VINA RESULT:      -5.7      2.231      2.904
REMARK  Name = 
REMARK  8 active torsions:
REMARK  status: ('A' for Active; 'I' for Inactive)
REMARK    1  A    between atoms: C_1  and  C_2
REMARK    2  A    between atoms: C_2  and  C_3
REMARK    3  A    between atoms: C_3  and  C_4
REMARK    4  A    between atoms: C_3  and  N_7
REMARK    5  A    between atoms: C_4  and  O_5
REMARK    6  A    between atoms: O_5  and  C_6
REMARK    7  A    between atoms: N_13  and  C_14
REMARK    8  A    between atoms: C_18  and  C_19
REMARK                            x       y       z     vdW  Elec       q    Type
REMARK                         _______ _______ _______ _____ _____    ______ ____
ROOT
ATOM      1  N   UNL     1      -1.329  12.848  19.685  0.00  0.00    +0.000 N 
ATOM      2  C   UNL     1      -2.203  12.144  18.875  0.00  0.00    +0.000 A 
ATOM      3  C   UNL     1      -1.943  10.889  18.486  0.00  0.00    +0.000 A 
ATOM      4 CL   UNL     1      -3.127  10.025  17.568  0.00  0.00    +0.000 Cl
ATOM      5  N   UNL     1      -0.810  10.195  18.785  0.00  0.00    +0.000 NA
ATOM      6  C   UNL     1       0.069  10.776  19.557  0.00  0.00    +0.000 A 
ATOM      7  N   UNL     1       1.249  10.167  19.945  0.00  0.00    +0.000 N 
ATOM      8  C   UNL     1      -0.136  12.231  20.073  0.00  0.00    +0.000 A 
ATOM      9  O   UNL     1       0.750  12.730  20.756  0.00  0.00    +0.000 OA
ATOM     10  H   UNL     1       1.872  10.735  20.517  0.00  0.00    +0.000 HD
ENDROOT
BRANCH   7  11
ATOM     11  C   UNL     1       1.478   8.774  20.041  0.00  0.00    +0.000 A 
ATOM     12  C   UNL     1       0.989   8.071  21.164  0.00  0.00    +0.000 A 
ATOM     13 CL   UNL     1       0.173   8.903  22.448  0.00  0.00    +0.000 Cl
ATOM     14  C   UNL     1       1.134   6.682  21.293  0.00  0.00    +0.000 A 
ATOM     15  C   UNL     1       1.768   5.939  20.292  0.00  0.00    +0.000 A 
ATOM     16  C   UNL     1       2.259   6.619  19.170  0.00  0.00    +0.000 A 
ATOM     17  C   UNL     1       2.107   8.008  19.037  0.00  0.00    +0.000 A 
ATOM     18 CL   UNL     1       2.607   8.672  17.515  0.00  0.00    +0.000 Cl
BRANCH  15  19
ATOM     19  C   UNL     1       1.890   4.437  20.370  0.00  0.00    +0.000 C 
ATOM     20  F   UNL     1       2.382   3.871  19.234  0.00  0.00    +0.000 F 
ATOM     21  F   UNL     1       2.723   4.045  21.373  0.00  0.00    +0.000 F 
ATOM     22  F   UNL     1       0.699   3.828  20.611  0.00  0.00    +0.000 F 
ENDBRANCH  15  19
ENDBRANCH   7  11
BRANCH   1  23
ATOM     23  C   UNL     1      -1.592  14.251  20.077  0.00  0.00    +0.000 C 
BRANCH  23  25
ATOM     24  C   UNL     1      -0.387  15.999  18.622  0.00  0.00    +0.000 C 
ATOM     25  C   UNL     1      -0.385  15.212  19.924  0.00  0.00    +0.000 C 
ENDBRANCH  23  25
BRANCH  23  26
ATOM     26  C   UNL     1      -2.152  14.319  21.517  0.00  0.00    +0.000 C 
BRANCH  26  27
ATOM     27  O   UNL     1      -1.200  14.933  22.389  0.00  0.00    +0.000 OA
ATOM     28  C   UNL     1      -1.188  14.337  23.678  0.00  0.00    +0.000 C 
ENDBRANCH  26  27
ENDBRANCH  23  26
ENDBRANCH   1  23
TORSDOF 6
ENDMDL
