MODEL 1
REMARK VINA RESULT:      -6.2      0.000      0.000
REMARK  Name = 
REMARK  7 active torsions:
REMARK  status: ('A' for Active; 'I' for Inactive)
REMARK    1  A    between atoms: C_1  and  C_2
REMARK    2  A    between atoms: C_5  and  C_6
REMARK    3  A    between atoms: C_6  and  C_8
REMARK    4  A    between atoms: C_8  and  C_9
REMARK    5  A    between atoms: N_10  and  N_11
REMARK    6  A    between atoms: N_11  and  C_12
REMARK    7  A    between atoms: C_12  and  N_13
REMARK                            x       y       z     vdW  Elec       q    Type
REMARK                         _______ _______ _______ _____ _____    ______ ____
ROOT
ATOM      1  C   UNL     1       7.569   6.770  17.925  0.00  0.00    +0.000 C 
ENDROOT
BRANCH   1   2
ATOM      2  C   UNL     1       6.817   6.048  16.834  0.00  0.00    +0.000 C 
ATOM      3  O   UNL     1       7.325   5.848  15.734  0.00  0.00    +0.000 OA
BRANCH   2   8
ATOM      4  C   UNL     1       1.486   4.007  17.908  0.00  0.00    +0.000 C 
ATOM      5  C   UNL     1       2.862   4.534  17.621  0.00  0.00    +0.000 A 
ATOM      6  C   UNL     1       3.840   3.721  17.040  0.00  0.00    +0.000 A 
ATOM      7  C   UNL     1       5.121   4.228  16.784  0.00  0.00    +0.000 A 
ATOM      8  C   UNL     1       5.438   5.550  17.116  0.00  0.00    +0.000 A 
ATOM      9  C   UNL     1       4.462   6.365  17.696  0.00  0.00    +0.000 A 
ATOM     10  C   UNL     1       3.181   5.859  17.944  0.00  0.00    +0.000 A 
ENDBRANCH   2   8
ENDBRANCH   1   2
BRANCH   1  11
ATOM     11  C   UNL     1       7.804   8.221  17.640  0.00  0.00    +0.000 C 
ATOM     12  N   UNL     1       8.528   8.926  18.451  0.00  0.00    +0.000 NA
BRANCH  12  13
ATOM     13  N   UNL     1       8.682  10.234  18.090  0.00  0.00    +0.000 N 
ATOM     14  H   UNL     1       8.139  10.625  17.326  0.00  0.00    +0.000 HD
BRANCH  13  15
ATOM     15  C   UNL     1       9.565  11.059  18.725  0.00  0.00    +0.000 C 
ATOM     16  S   UNL     1      10.551  12.098  17.888  0.00  0.00    +0.000 S 
BRANCH  15  17
ATOM     17  N   UNL     1       9.585  10.988  20.075  0.00  0.00    +0.000 N 
ATOM     18  H   UNL     1      10.087  10.218  20.499  0.00  0.00    +0.000 HD
ATOM     19  H   UNL     1       9.148  11.695  20.646  0.00  0.00    +0.000 HD
ENDBRANCH  15  17
ENDBRANCH  13  15
ENDBRANCH  12  13
ENDBRANCH   1  11
TORSDOF 6
ENDMDL
MODEL 2
REMARK VINA RESULT:      -6.2      5.477      6.545
REMARK  Name = 
REMARK  7 active torsions:
REMARK  status: ('A' for Active; 'I' for Inactive)
REMARK    1  A    between atoms: C_1  and  C_2
REMARK    2  A    between atoms: C_5  and  C_6
REMARK    3  A    between atoms: C_6  and  C_8
REMARK    4  A    between atoms: C_8  and  C_9
REMARK    5  A    between atoms: N_10  and  N_11
REMARK    6  A    between atoms: N_11  and  C_12
REMARK    7  A    between atoms: C_12  and  N_13
REMARK                            x       y       z     vdW  Elec       q    Type
REMARK                         _______ _______ _______ _____ _____    ______ ____
ROOT
ATOM      1  C   UNL     1       5.473   5.615  15.502  0.00  0.00    +0.000 C 
ENDROOT
BRANCH   1   2
ATOM      2  C   UNL     1       5.287   5.367  16.978  0.00  0.00    +0.000 C 
ATOM      3  O   UNL     1       6.097   5.784  17.802  0.00  0.00    +0.000 OA
BRANCH   2   8
ATOM      4  C   UNL     1       0.647   2.367  18.770  0.00  0.00    +0.000 C 
ATOM      5  C   UNL     1       1.844   3.139  18.297  0.00  0.00    +0.000 A 
ATOM      6  C   UNL     1       3.011   2.485  17.891  0.00  0.00    +0.000 A 
ATOM      7  C   UNL     1       4.122   3.221  17.458  0.00  0.00    +0.000 A 
ATOM      8  C   UNL     1       4.079   4.620  17.438  0.00  0.00    +0.000 A 
ATOM      9  C   UNL     1       2.913   5.276  17.843  0.00  0.00    +0.000 A 
ATOM     10  C   UNL     1       1.803   4.539  18.267  0.00  0.00    +0.000 A 
ENDBRANCH   2   8
ENDBRANCH   1   2
BRANCH   1  11
ATOM     11  C   UNL     1       5.991   4.428  14.749  0.00  0.00    +0.000 C 
ATOM     12  N   UNL     1       5.688   4.279  13.498  0.00  0.00    +0.000 NA
BRANCH  12  13
ATOM     13  N   UNL     1       6.220   3.167  12.910  0.00  0.00    +0.000 N 
ATOM     14  H   UNL     1       7.092   2.773  13.248  0.00  0.00    +0.000 HD
BRANCH  13  15
ATOM     15  C   UNL     1       5.613   2.550  11.853  0.00  0.00    +0.000 C 
ATOM     16  S   UNL     1       4.192   3.112  11.209  0.00  0.00    +0.000 S 
BRANCH  15  17
ATOM     17  N   UNL     1       6.242   1.461  11.356  0.00  0.00    +0.000 N 
ATOM     18  H   UNL     1       6.019   1.179  10.410  0.00  0.00    +0.000 HD
ATOM     19  H   UNL     1       6.938   0.965  11.891  0.00  0.00    +0.000 HD
ENDBRANCH  15  17
ENDBRANCH  13  15
ENDBRANCH  12  13
ENDBRANCH   1  11
TORSDOF 6
ENDMDL
MODEL 3
REMARK VINA RESULT:      -6.2      5.456      6.547
REMARK  Name = 
REMARK  7 active torsions:
REMARK  status: ('A' for Active; 'I' for Inactive)
REMARK    1  A    between atoms: C_1  and  C_2
REMARK    2  A    between atoms: C_5  and  C_6
REMARK    3  A    between atoms: C_6  and  C_8
REMARK    4  A    between atoms: C_8  and  C_9
REMARK    5  A    between atoms: N_10  and  N_11
REMARK    6  A    between atoms: N_11  and  C_12
REMARK    7  A    between atoms: C_12  and  N_13
REMARK                            x       y       z     vdW  Elec       q    Type
REMARK                         _______ _______ _______ _____ _____    ______ ____
ROOT
ATOM      1  C   UNL     1       6.396   5.074  15.863  0.00  0.00    +0.000 C 
ENDROOT
BRANCH   1   2
ATOM      2  C   UNL     1       5.209   5.976  16.097  0.00  0.00    +0.000 C 
ATOM      3  O   UNL     1       5.048   7.000  15.440  0.00  0.00    +0.000 OA
BRANCH   2   8
ATOM      4  C   UNL     1       1.272   4.593  20.138  0.00  0.00    +0.000 C 
ATOM      5  C   UNL     1       2.296   4.953  19.100  0.00  0.00    +0.000 A 
ATOM      6  C   UNL     1       2.607   6.288  18.826  0.00  0.00    +0.000 A 
ATOM      7  C   UNL     1       3.561   6.607  17.850  0.00  0.00    +0.000 A 
ATOM      8  C   UNL     1       4.206   5.593  17.133  0.00  0.00    +0.000 A 
ATOM      9  C   UNL     1       3.898   4.257  17.407  0.00  0.00    +0.000 A 
ATOM     10  C   UNL     1       2.950   3.941  18.387  0.00  0.00    +0.000 A 
ENDBRANCH   2   8
ENDBRANCH   1   2
BRANCH   1  11
ATOM     11  C   UNL     1       6.639   4.754  14.420  0.00  0.00    +0.000 C 
ATOM     12  N   UNL     1       6.301   3.593  13.955  0.00  0.00    +0.000 NA
BRANCH  12  13
ATOM     13  N   UNL     1       6.560   3.413  12.626  0.00  0.00    +0.000 N 
ATOM     14  H   UNL     1       7.376   3.841  12.198  0.00  0.00    +0.000 HD
BRANCH  13  15
ATOM     15  C   UNL     1       5.743   2.667  11.826  0.00  0.00    +0.000 C 
ATOM     16  S   UNL     1       4.256   3.216  11.339  0.00  0.00    +0.000 S 
BRANCH  15  17
ATOM     17  N   UNL     1       6.219   1.461  11.445  0.00  0.00    +0.000 N 
ATOM     18  H   UNL     1       5.548   0.755  11.170  0.00  0.00    +0.000 HD
ATOM     19  H   UNL     1       7.209   1.276  11.399  0.00  0.00    +0.000 HD
ENDBRANCH  15  17
ENDBRANCH  13  15
ENDBRANCH  12  13
ENDBRANCH   1  11
TORSDOF 6
ENDMDL
MODEL 4
REMARK VINA RESULT:      -6.2      3.610      5.092
REMARK  Name = 
REMARK  7 active torsions:
REMARK  status: ('A' for Active; 'I' for Inactive)
REMARK    1  A    between atoms: C_1  and  C_2
REMARK    2  A    between atoms: C_5  and  C_6
REMARK    3  A    between atoms: C_6  and  C_8
REMARK    4  A    between atoms: C_8  and  C_9
REMARK    5  A    between atoms: N_10  and  N_11
REMARK    6  A    between atoms: N_11  and  C_12
REMARK    7  A    between atoms: C_12  and  N_13
REMARK                            x       y       z     vdW  Elec       q    Type
REMARK                         _______ _______ _______ _____ _____    ______ ____
ROOT
ATOM      1  C   UNL     1       3.681   2.911  18.389  0.00  0.00    +0.000 C 
ENDROOT
BRANCH   1   2
ATOM      2  C   UNL     1       2.525   3.806  18.014  0.00  0.00    +0.000 C 
ATOM      3  O   UNL     1       1.808   3.551  17.050  0.00  0.00    +0.000 OA
BRANCH   2   8
ATOM      4  C   UNL     1       1.444   8.552  21.183  0.00  0.00    +0.000 C 
ATOM      5  C   UNL     1       1.733   7.327  20.365  0.00  0.00    +0.000 A 
ATOM      6  C   UNL     1       2.278   7.427  19.082  0.00  0.00    +0.000 A 
ATOM      7  C   UNL     1       2.537   6.274  18.330  0.00  0.00    +0.000 A 
ATOM      8  C   UNL     1       2.242   5.009  18.851  0.00  0.00    +0.000 A 
ATOM      9  C   UNL     1       1.699   4.906  20.135  0.00  0.00    +0.000 A 
ATOM     10  C   UNL     1       1.448   6.059  20.887  0.00  0.00    +0.000 A 
ENDBRANCH   2   8
ENDBRANCH   1   2
BRANCH   1  11
ATOM     11  C   UNL     1       5.016   3.431  17.952  0.00  0.00    +0.000 C 
ATOM     12  N   UNL     1       5.793   4.007  18.813  0.00  0.00    +0.000 NA
BRANCH  12  13
ATOM     13  N   UNL     1       6.988   4.435  18.307  0.00  0.00    +0.000 N 
ATOM     14  H   UNL     1       7.472   3.891  17.600  0.00  0.00    +0.000 HD
BRANCH  13  15
ATOM     15  C   UNL     1       7.578   5.592  18.729  0.00  0.00    +0.000 C 
ATOM     16  S   UNL     1       7.547   6.974  17.814  0.00  0.00    +0.000 S 
BRANCH  15  17
ATOM     17  N   UNL     1       8.179   5.550  19.939  0.00  0.00    +0.000 N 
ATOM     18  H   UNL     1       7.610   5.734  20.755  0.00  0.00    +0.000 HD
ATOM     19  H   UNL     1       9.154   5.307  20.034  0.00  0.00    +0.000 HD
ENDBRANCH  15  17
ENDBRANCH  13  15
ENDBRANCH  12  13
ENDBRANCH   1  11
TORSDOF 6
ENDMDL
MODEL 5
REMARK VINA RESULT:      -6.2      0.186      1.220
REMARK  Name = 
REMARK  7 active torsions:
REMARK  status: ('A' for Active; 'I' for Inactive)
REMARK    1  A    between atoms: C_1  and  C_2
REMARK    2  A    between atoms: C_5  and  C_6
REMARK    3  A    between atoms: C_6  and  C_8
REMARK    4  A    between atoms: C_8  and  C_9
REMARK    5  A    between atoms: N_10  and  N_11
REMARK    6  A    between atoms: N_11  and  C_12
REMARK    7  A    between atoms: C_12  and  N_13
REMARK                            x       y       z     vdW  Elec       q    Type
REMARK                         _______ _______ _______ _____ _____    ______ ____
ROOT
ATOM      1  C   UNL     1       7.595   6.864  17.999  0.00  0.00    +0.000 C 
ENDROOT
BRANCH   1   2
ATOM      2  C   UNL     1       6.890   6.137  16.881  0.00  0.00    +0.000 C 
ATOM      3  O   UNL     1       7.429   5.968  15.791  0.00  0.00    +0.000 OA
BRANCH   2   8
ATOM      4  C   UNL     1       1.525   4.134  17.851  0.00  0.00    +0.000 C 
ATOM      5  C   UNL     1       2.913   4.651  17.610  0.00  0.00    +0.000 A 
ATOM      6  C   UNL     1       3.274   5.950  17.981  0.00  0.00    +0.000 A 
ATOM      7  C   UNL     1       4.573   6.419  17.743  0.00  0.00    +0.000 A 
ATOM      8  C   UNL     1       5.520   5.596  17.123  0.00  0.00    +0.000 A 
ATOM      9  C   UNL     1       5.162   4.297  16.753  0.00  0.00    +0.000 A 
ATOM     10  C   UNL     1       3.866   3.828  16.998  0.00  0.00    +0.000 A 
ENDBRANCH   2   8
ENDBRANCH   1   2
BRANCH   1  11
ATOM     11  C   UNL     1       7.780   8.329  17.747  0.00  0.00    +0.000 C 
ATOM     12  N   UNL     1       8.579   9.015  18.502  0.00  0.00    +0.000 NA
BRANCH  12  13
ATOM     13  N   UNL     1       8.676  10.338  18.177  0.00  0.00    +0.000 N 
ATOM     14  H   UNL     1       8.004  10.765  17.547  0.00  0.00    +0.000 HD
BRANCH  13  15
ATOM     15  C   UNL     1       9.671  11.131  18.672  0.00  0.00    +0.000 C 
ATOM     16  S   UNL     1      10.814  11.820  17.687  0.00  0.00    +0.000 S 
BRANCH  15  17
ATOM     17  N   UNL     1       9.667  11.331  20.009  0.00  0.00    +0.000 N 
ATOM     18  H   UNL     1      10.165  12.136  20.368  0.00  0.00    +0.000 HD
ATOM     19  H   UNL     1       9.156  10.723  20.631  0.00  0.00    +0.000 HD
ENDBRANCH  15  17
ENDBRANCH  13  15
ENDBRANCH  12  13
ENDBRANCH   1  11
TORSDOF 6
ENDMDL
MODEL 6
REMARK VINA RESULT:      -5.9      1.184      1.192
REMARK  Name = 
REMARK  7 active torsions:
REMARK  status: ('A' for Active; 'I' for Inactive)
REMARK    1  A    between atoms: C_1  and  C_2
REMARK    2  A    between atoms: C_5  and  C_6
REMARK    3  A    between atoms: C_6  and  C_8
REMARK    4  A    between atoms: C_8  and  C_9
REMARK    5  A    between atoms: N_10  and  N_11
REMARK    6  A    between atoms: N_11  and  C_12
REMARK    7  A    between atoms: C_12  and  N_13
REMARK                            x       y       z     vdW  Elec       q    Type
REMARK                         _______ _______ _______ _____ _____    ______ ____
ROOT
ATOM      1  C   UNL     1       7.253   7.051  16.907  0.00  0.00    +0.000 C 
ENDROOT
BRANCH   1   2
ATOM      2  C   UNL     1       6.901   5.597  17.098  0.00  0.00    +0.000 C 
ATOM      3  O   UNL     1       7.766   4.725  17.086  0.00  0.00    +0.000 OA
BRANCH   2   8
ATOM      4  C   UNL     1       1.375   4.036  17.971  0.00  0.00    +0.000 C 
ATOM      5  C   UNL     1       2.802   4.440  17.736  0.00  0.00    +0.000 A 
ATOM      6  C   UNL     1       3.719   3.551  17.169  0.00  0.00    +0.000 A 
ATOM      7  C   UNL     1       5.049   3.941  16.961  0.00  0.00    +0.000 A 
ATOM      8  C   UNL     1       5.475   5.223  17.328  0.00  0.00    +0.000 A 
ATOM      9  C   UNL     1       4.559   6.114  17.894  0.00  0.00    +0.000 A 
ATOM     10  C   UNL     1       3.230   5.724  18.093  0.00  0.00    +0.000 A 
ENDBRANCH   2   8
ENDBRANCH   1   2
BRANCH   1  11
ATOM     11  C   UNL     1       7.964   7.662  18.075  0.00  0.00    +0.000 C 
ATOM     12  N   UNL     1       8.360   8.894  18.013  0.00  0.00    +0.000 NA
BRANCH  12  13
ATOM     13  N   UNL     1       8.989   9.349  19.137  0.00  0.00    +0.000 N 
ATOM     14  H   UNL     1       9.235   8.707  19.885  0.00  0.00    +0.000 HD
BRANCH  13  15
ATOM     15  C   UNL     1       9.304  10.667  19.304  0.00  0.00    +0.000 C 
ATOM     16  S   UNL     1       9.393  11.362  20.807  0.00  0.00    +0.000 S 
BRANCH  15  17
ATOM     17  N   UNL     1       9.549  11.371  18.176  0.00  0.00    +0.000 N 
ATOM     18  H   UNL     1      10.480  11.746  18.047  0.00  0.00    +0.000 HD
ATOM     19  H   UNL     1       8.842  11.490  17.466  0.00  0.00    +0.000 HD
ENDBRANCH  15  17
ENDBRANCH  13  15
ENDBRANCH  12  13
ENDBRANCH   1  11
TORSDOF 6
ENDMDL
MODEL 7
REMARK VINA RESULT:      -5.9      4.048      4.957
REMARK  Name = 
REMARK  7 active torsions:
REMARK  status: ('A' for Active; 'I' for Inactive)
REMARK    1  A    between atoms: C_1  and  C_2
REMARK    2  A    between atoms: C_5  and  C_6
REMARK    3  A    between atoms: C_6  and  C_8
REMARK    4  A    between atoms: C_8  and  C_9
REMARK    5  A    between atoms: N_10  and  N_11
REMARK    6  A    between atoms: N_11  and  C_12
REMARK    7  A    between atoms: C_12  and  N_13
REMARK                            x       y       z     vdW  Elec       q    Type
REMARK                         _______ _______ _______ _____ _____    ______ ____
ROOT
ATOM      1  C   UNL     1       7.526   6.106  18.186  0.00  0.00    +0.000 C 
ENDROOT
BRANCH   1   2
ATOM      2  C   UNL     1       6.741   5.458  19.300  0.00  0.00    +0.000 C 
ATOM      3  O   UNL     1       7.235   5.286  20.411  0.00  0.00    +0.000 OA
BRANCH   2   8
ATOM      4  C   UNL     1       1.274   3.748  18.337  0.00  0.00    +0.000 C 
ATOM      5  C   UNL     1       2.690   4.186  18.577  0.00  0.00    +0.000 A 
ATOM      6  C   UNL     1       3.687   3.261  18.901  0.00  0.00    +0.000 A 
ATOM      7  C   UNL     1       5.002   3.687  19.128  0.00  0.00    +0.000 A 
ATOM      8  C   UNL     1       5.330   5.045  19.043  0.00  0.00    +0.000 A 
ATOM      9  C   UNL     1       4.335   5.972  18.717  0.00  0.00    +0.000 A 
ATOM     10  C   UNL     1       3.024   5.542  18.484  0.00  0.00    +0.000 A 
ENDBRANCH   2   8
ENDBRANCH   1   2
BRANCH   1  11
ATOM     11  C   UNL     1       7.490   5.344  16.897  0.00  0.00    +0.000 C 
ATOM     12  N   UNL     1       7.407   5.985  15.775  0.00  0.00    +0.000 NA
BRANCH  12  13
ATOM     13  N   UNL     1       7.389   5.191  14.663  0.00  0.00    +0.000 N 
ATOM     14  H   UNL     1       8.157   5.216  14.000  0.00  0.00    +0.000 HD
BRANCH  13  15
ATOM     15  C   UNL     1       6.350   4.347  14.397  0.00  0.00    +0.000 C 
ATOM     16  S   UNL     1       4.965   4.349  15.309  0.00  0.00    +0.000 S 
BRANCH  15  17
ATOM     17  N   UNL     1       6.509   3.517  13.342  0.00  0.00    +0.000 N 
ATOM     18  H   UNL     1       5.821   3.557  12.601  0.00  0.00    +0.000 HD
ATOM     19  H   UNL     1       7.305   2.901  13.272  0.00  0.00    +0.000 HD
ENDBRANCH  15  17
ENDBRANCH  13  15
ENDBRANCH  12  13
ENDBRANCH   1  11
TORSDOF 6
ENDMDL
MODEL 8
REMARK VINA RESULT:      -5.9      4.954      5.864
REMARK  Name = 
REMARK  7 active torsions:
REMARK  status: ('A' for Active; 'I' for Inactive)
REMARK    1  A    between atoms: C_1  and  C_2
REMARK    2  A    between atoms: C_5  and  C_6
REMARK    3  A    between atoms: C_6  and  C_8
REMARK    4  A    between atoms: C_8  and  C_9
REMARK    5  A    between atoms: N_10  and  N_11
REMARK    6  A    between atoms: N_11  and  C_12
REMARK    7  A    between atoms: C_12  and  N_13
REMARK                            x       y       z     vdW  Elec       q    Type
REMARK                         _______ _______ _______ _____ _____    ______ ____
ROOT
ATOM      1  C   UNL     1       6.500   5.465  17.244  0.00  0.00    +0.000 C 
ENDROOT
BRANCH   1   2
ATOM      2  C   UNL     1       5.976   5.000  18.581  0.00  0.00    +0.000 C 
ATOM      3  O   UNL     1       6.618   5.174  19.613  0.00  0.00    +0.000 OA
BRANCH   2   8
ATOM      4  C   UNL     1       0.735   2.502  18.745  0.00  0.00    +0.000 C 
ATOM      5  C   UNL     1       2.086   3.154  18.709  0.00  0.00    +0.000 A 
ATOM      6  C   UNL     1       2.271   4.399  18.100  0.00  0.00    +0.000 A 
ATOM      7  C   UNL     1       3.540   4.991  18.070  0.00  0.00    +0.000 A 
ATOM      8  C   UNL     1       4.639   4.339  18.641  0.00  0.00    +0.000 A 
ATOM      9  C   UNL     1       4.456   3.095  19.252  0.00  0.00    +0.000 A 
ATOM     10  C   UNL     1       3.186   2.509  19.287  0.00  0.00    +0.000 A 
ENDBRANCH   2   8
ENDBRANCH   1   2
BRANCH   1  11
ATOM     11  C   UNL     1       6.595   4.377  16.219  0.00  0.00    +0.000 C 
ATOM     12  N   UNL     1       6.179   4.595  15.012  0.00  0.00    +0.000 NA
BRANCH  12  13
ATOM     13  N   UNL     1       6.321   3.537  14.159  0.00  0.00    +0.000 N 
ATOM     14  H   UNL     1       6.493   2.604  14.520  0.00  0.00    +0.000 HD
BRANCH  13  15
ATOM     15  C   UNL     1       6.244   3.687  12.804  0.00  0.00    +0.000 C 
ATOM     16  S   UNL     1       4.943   3.140  11.935  0.00  0.00    +0.000 S 
BRANCH  15  17
ATOM     17  N   UNL     1       7.285   4.315  12.213  0.00  0.00    +0.000 N 
ATOM     18  H   UNL     1       8.144   3.793  12.091  0.00  0.00    +0.000 HD
ATOM     19  H   UNL     1       7.203   5.260  11.869  0.00  0.00    +0.000 HD
ENDBRANCH  15  17
ENDBRANCH  13  15
ENDBRANCH  12  13
ENDBRANCH   1  11
TORSDOF 6
ENDMDL
MODEL 9
REMARK VINA RESULT:      -5.9      1.284      1.652
REMARK  Name = 
REMARK  7 active torsions:
REMARK  status: ('A' for Active; 'I' for Inactive)
REMARK    1  A    between atoms: C_1  and  C_2
REMARK    2  A    between atoms: C_5  and  C_6
REMARK    3  A    between atoms: C_6  and  C_8
REMARK    4  A    between atoms: C_8  and  C_9
REMARK    5  A    between atoms: N_10  and  N_11
REMARK    6  A    between atoms: N_11  and  C_12
REMARK    7  A    between atoms: C_12  and  N_13
REMARK                            x       y       z     vdW  Elec       q    Type
REMARK                         _______ _______ _______ _____ _____    ______ ____
ROOT
ATOM      1  C   UNL     1       7.953   7.276  18.301  0.00  0.00    +0.000 C 
ENDROOT
BRANCH   1   2
ATOM      2  C   UNL     1       7.097   6.534  17.304  0.00  0.00    +0.000 C 
ATOM      3  O   UNL     1       7.477   6.351  16.151  0.00  0.00    +0.000 OA
BRANCH   2   8
ATOM      4  C   UNL     1       1.907   4.512  18.949  0.00  0.00    +0.000 C 
ATOM      5  C   UNL     1       3.247   5.042  18.530  0.00  0.00    +0.000 A 
ATOM      6  C   UNL     1       3.355   6.191  17.742  0.00  0.00    +0.000 A 
ATOM      7  C   UNL     1       4.613   6.670  17.355  0.00  0.00    +0.000 A 
ATOM      8  C   UNL     1       5.777   5.996  17.744  0.00  0.00    +0.000 A 
ATOM      9  C   UNL     1       5.672   4.848  18.534  0.00  0.00    +0.000 A 
ATOM     10  C   UNL     1       4.414   4.376  18.926  0.00  0.00    +0.000 A 
ENDBRANCH   2   8
ENDBRANCH   1   2
BRANCH   1  11
ATOM     11  C   UNL     1       8.225   8.700  17.925  0.00  0.00    +0.000 C 
ATOM     12  N   UNL     1       8.875   9.466  18.743  0.00  0.00    +0.000 NA
BRANCH  12  13
ATOM     13  N   UNL     1       9.073  10.741  18.294  0.00  0.00    +0.000 N 
ATOM     14  H   UNL     1       8.344  11.225  17.778  0.00  0.00    +0.000 HD
BRANCH  13  15
ATOM     15  C   UNL     1      10.244  11.409  18.512  0.00  0.00    +0.000 C 
ATOM     16  S   UNL     1      10.688  11.928  20.023  0.00  0.00    +0.000 S 
BRANCH  15  17
ATOM     17  N   UNL     1      11.025  11.614  17.428  0.00  0.00    +0.000 N 
ATOM     18  H   UNL     1      11.644  12.415  17.438  0.00  0.00    +0.000 HD
ATOM     19  H   UNL     1      11.024  10.973  16.649  0.00  0.00    +0.000 HD
ENDBRANCH  15  17
ENDBRANCH  13  15
ENDBRANCH  12  13
ENDBRANCH   1  11
TORSDOF 6
ENDMDL
