MODEL 1
REMARK VINA RESULT:      -7.3      0.000      0.000
REMARK  Name = 
REMARK  4 active torsions:
REMARK  status: ('A' for Active; 'I' for Inactive)
REMARK    1  A    between atoms: C_1  and  O_2
REMARK    2  A    between atoms: O_2  and  C_3
REMARK    3  A    between atoms: C_6  and  O_7
REMARK    4  A    between atoms: O_7  and  C_8
REMARK                            x       y       z     vdW  Elec       q    Type
REMARK                         _______ _______ _______ _____ _____    ______ ____
ROOT
ATOM      1  C   UNL     1       3.568   5.530  19.168  0.00  0.00    +0.000 A 
ATOM      2  N   UNL     1       3.030   6.646  19.688  0.00  0.00    +0.000 NA
ATOM      3  C   UNL     1       1.886   6.449  20.345  0.00  0.00    +0.000 A 
ATOM      4  N   UNL     1       1.345   5.262  20.617  0.00  0.00    +0.000 NA
ATOM      5  C   UNL     1       1.797   4.225  19.904  0.00  0.00    +0.000 A 
ATOM      6  C   UNL     1       1.185   2.986  20.049  0.00  0.00    +0.000 A 
ATOM      7  C   UNL     1       1.333   1.980  19.093  0.00  0.00    +0.000 A 
ATOM      8  C   UNL     1       2.124   2.217  17.978  0.00  0.00    +0.000 A 
ATOM      9  C   UNL     1       2.917   3.370  17.935  0.00  0.00    +0.000 A 
ATOM     10  C   UNL     1       2.819   4.354  18.969  0.00  0.00    +0.000 A 
ENDROOT
BRANCH   1  11
ATOM     11  O   UNL     1       4.946   5.604  19.051  0.00  0.00    +0.000 OA
BRANCH  11  15
ATOM     12  C   UNL     1       6.411   5.079  15.147  0.00  0.00    +0.000 A 
ATOM     13  C   UNL     1       6.939   4.401  16.239  0.00  0.00    +0.000 A 
ATOM     14  C   UNL     1       6.451   4.614  17.524  0.00  0.00    +0.000 A 
ATOM     15  C   UNL     1       5.466   5.566  17.765  0.00  0.00    +0.000 A 
ATOM     16  C   UNL     1       4.939   6.267  16.678  0.00  0.00    +0.000 A 
ATOM     17  C   UNL     1       5.403   6.023  15.362  0.00  0.00    +0.000 A 
BRANCH  12  19
ATOM     18  C   UNL     1       6.322   3.783  13.132  0.00  0.00    +0.000 C 
ATOM     19  O   UNL     1       6.989   4.726  13.959  0.00  0.00    +0.000 OA
ENDBRANCH  12  19
ENDBRANCH  11  15
ENDBRANCH   1  11
TORSDOF 3
ENDMDL
MODEL 2
REMARK VINA RESULT:      -7.2      2.419      3.727
REMARK  Name = 
REMARK  4 active torsions:
REMARK  status: ('A' for Active; 'I' for Inactive)
REMARK    1  A    between atoms: C_1  and  O_2
REMARK    2  A    between atoms: O_2  and  C_3
REMARK    3  A    between atoms: C_6  and  O_7
REMARK    4  A    between atoms: O_7  and  C_8
REMARK                            x       y       z     vdW  Elec       q    Type
REMARK                         _______ _______ _______ _____ _____    ______ ____
ROOT
ATOM      1  C   UNL     1       3.993   3.649  17.897  0.00  0.00    +0.000 A 
ATOM      2  N   UNL     1       4.237   2.343  17.692  0.00  0.00    +0.000 NA
ATOM      3  C   UNL     1       3.317   1.526  18.206  0.00  0.00    +0.000 A 
ATOM      4  N   UNL     1       2.167   1.908  18.760  0.00  0.00    +0.000 NA
ATOM      5  C   UNL     1       2.080   3.191  19.125  0.00  0.00    +0.000 A 
ATOM      6  C   UNL     1       0.958   3.622  19.823  0.00  0.00    +0.000 A 
ATOM      7  C   UNL     1       0.962   4.810  20.554  0.00  0.00    +0.000 A 
ATOM      8  C   UNL     1       2.110   5.589  20.573  0.00  0.00    +0.000 A 
ATOM      9  C   UNL     1       3.161   5.280  19.700  0.00  0.00    +0.000 A 
ATOM     10  C   UNL     1       3.103   4.103  18.889  0.00  0.00    +0.000 A 
ENDROOT
BRANCH   1  11
ATOM     11  O   UNL     1       4.540   4.456  16.912  0.00  0.00    +0.000 OA
BRANCH  11  15
ATOM     12  C   UNL     1       7.655   6.977  18.177  0.00  0.00    +0.000 A 
ATOM     13  C   UNL     1       6.654   7.404  17.314  0.00  0.00    +0.000 A 
ATOM     14  C   UNL     1       5.649   6.540  16.891  0.00  0.00    +0.000 A 
ATOM     15  C   UNL     1       5.656   5.201  17.265  0.00  0.00    +0.000 A 
ATOM     16  C   UNL     1       6.668   4.753  18.118  0.00  0.00    +0.000 A 
ATOM     17  C   UNL     1       7.669   5.639  18.586  0.00  0.00    +0.000 A 
BRANCH  12  19
ATOM     18  C   UNL     1       8.291   9.284  18.050  0.00  0.00    +0.000 C 
ATOM     19  O   UNL     1       8.542   7.964  18.510  0.00  0.00    +0.000 OA
ENDBRANCH  12  19
ENDBRANCH  11  15
ENDBRANCH   1  11
TORSDOF 3
ENDMDL
MODEL 3
REMARK VINA RESULT:      -7.2      2.572      3.378
REMARK  Name = 
REMARK  4 active torsions:
REMARK  status: ('A' for Active; 'I' for Inactive)
REMARK    1  A    between atoms: C_1  and  O_2
REMARK    2  A    between atoms: O_2  and  C_3
REMARK    3  A    between atoms: C_6  and  O_7
REMARK    4  A    between atoms: O_7  and  C_8
REMARK                            x       y       z     vdW  Elec       q    Type
REMARK                         _______ _______ _______ _____ _____    ______ ____
ROOT
ATOM      1  C   UNL     1       4.458   3.367  18.722  0.00  0.00    +0.000 A 
ATOM      2  N   UNL     1       4.331   3.278  17.387  0.00  0.00    +0.000 NA
ATOM      3  C   UNL     1       3.084   3.444  16.943  0.00  0.00    +0.000 A 
ATOM      4  N   UNL     1       2.040   3.806  17.687  0.00  0.00    +0.000 NA
ATOM      5  C   UNL     1       2.177   3.670  19.009  0.00  0.00    +0.000 A 
ATOM      6  C   UNL     1       1.082   3.909  19.832  0.00  0.00    +0.000 A 
ATOM      7  C   UNL     1       1.032   3.431  21.141  0.00  0.00    +0.000 A 
ATOM      8  C   UNL     1       2.109   2.713  21.642  0.00  0.00    +0.000 A 
ATOM      9  C   UNL     1       3.298   2.661  20.904  0.00  0.00    +0.000 A 
ATOM     10  C   UNL     1       3.362   3.234  19.595  0.00  0.00    +0.000 A 
ENDROOT
BRANCH   1  11
ATOM     11  O   UNL     1       5.715   3.800  19.111  0.00  0.00    +0.000 OA
BRANCH  11  15
ATOM     12  C   UNL     1       7.209   7.426  17.601  0.00  0.00    +0.000 A 
ATOM     13  C   UNL     1       7.937   6.625  18.472  0.00  0.00    +0.000 A 
ATOM     14  C   UNL     1       7.407   5.442  18.976  0.00  0.00    +0.000 A 
ATOM     15  C   UNL     1       6.103   5.061  18.680  0.00  0.00    +0.000 A 
ATOM     16  C   UNL     1       5.353   5.867  17.820  0.00  0.00    +0.000 A 
ATOM     17  C   UNL     1       5.904   7.050  17.270  0.00  0.00    +0.000 A 
BRANCH  12  19
ATOM     18  C   UNL     1       8.389   9.435  18.163  0.00  0.00    +0.000 C 
ATOM     19  O   UNL     1       7.894   8.534  17.183  0.00  0.00    +0.000 OA
ENDBRANCH  12  19
ENDBRANCH  11  15
ENDBRANCH   1  11
TORSDOF 3
ENDMDL
MODEL 4
REMARK VINA RESULT:      -7.1      2.854      6.347
REMARK  Name = 
REMARK  4 active torsions:
REMARK  status: ('A' for Active; 'I' for Inactive)
REMARK    1  A    between atoms: C_1  and  O_2
REMARK    2  A    between atoms: O_2  and  C_3
REMARK    3  A    between atoms: C_6  and  O_7
REMARK    4  A    between atoms: O_7  and  C_8
REMARK                            x       y       z     vdW  Elec       q    Type
REMARK                         _______ _______ _______ _____ _____    ______ ____
ROOT
ATOM      1  C   UNL     1       4.047   5.209  17.743  0.00  0.00    +0.000 A 
ATOM      2  N   UNL     1       3.736   3.945  18.076  0.00  0.00    +0.000 NA
ATOM      3  C   UNL     1       4.639   3.346  18.855  0.00  0.00    +0.000 A 
ATOM      4  N   UNL     1       5.701   3.935  19.402  0.00  0.00    +0.000 NA
ATOM      5  C   UNL     1       6.071   5.105  18.871  0.00  0.00    +0.000 A 
ATOM      6  C   UNL     1       7.244   5.707  19.311  0.00  0.00    +0.000 A 
ATOM      7  C   UNL     1       7.883   6.696  18.563  0.00  0.00    +0.000 A 
ATOM      8  C   UNL     1       7.325   7.102  17.359  0.00  0.00    +0.000 A 
ATOM      9  C   UNL     1       6.038   6.666  17.021  0.00  0.00    +0.000 A 
ATOM     10  C   UNL     1       5.357   5.716  17.845  0.00  0.00    +0.000 A 
ENDROOT
BRANCH   1  11
ATOM     11  O   UNL     1       2.929   5.988  17.495  0.00  0.00    +0.000 OA
BRANCH  11  15
ATOM     12  C   UNL     1       1.341   8.623  20.358  0.00  0.00    +0.000 A 
ATOM     13  C   UNL     1       1.634   9.021  19.059  0.00  0.00    +0.000 A 
ATOM     14  C   UNL     1       2.184   8.134  18.140  0.00  0.00    +0.000 A 
ATOM     15  C   UNL     1       2.522   6.838  18.514  0.00  0.00    +0.000 A 
ATOM     16  C   UNL     1       2.249   6.430  19.822  0.00  0.00    +0.000 A 
ATOM     17  C   UNL     1       1.651   7.317  20.750  0.00  0.00    +0.000 A 
BRANCH  12  19
ATOM     18  C   UNL     1       0.702   9.432  22.522  0.00  0.00    +0.000 C 
ATOM     19  O   UNL     1       0.781   9.615  21.115  0.00  0.00    +0.000 OA
ENDBRANCH  12  19
ENDBRANCH  11  15
ENDBRANCH   1  11
TORSDOF 3
ENDMDL
MODEL 5
REMARK VINA RESULT:      -7.1      1.216      1.595
REMARK  Name = 
REMARK  4 active torsions:
REMARK  status: ('A' for Active; 'I' for Inactive)
REMARK    1  A    between atoms: C_1  and  O_2
REMARK    2  A    between atoms: O_2  and  C_3
REMARK    3  A    between atoms: C_6  and  O_7
REMARK    4  A    between atoms: O_7  and  C_8
REMARK                            x       y       z     vdW  Elec       q    Type
REMARK                         _______ _______ _______ _____ _____    ______ ____
ROOT
ATOM      1  C   UNL     1       4.058   5.084  18.389  0.00  0.00    +0.000 A 
ATOM      2  N   UNL     1       3.922   6.384  18.077  0.00  0.00    +0.000 NA
ATOM      3  C   UNL     1       2.887   6.984  18.668  0.00  0.00    +0.000 A 
ATOM      4  N   UNL     1       2.106   6.439  19.599  0.00  0.00    +0.000 NA
ATOM      5  C   UNL     1       2.149   5.107  19.707  0.00  0.00    +0.000 A 
ATOM      6  C   UNL     1       1.267   4.469  20.570  0.00  0.00    +0.000 A 
ATOM      7  C   UNL     1       0.990   3.106  20.457  0.00  0.00    +0.000 A 
ATOM      8  C   UNL     1       1.625   2.365  19.470  0.00  0.00    +0.000 A 
ATOM      9  C   UNL     1       2.675   2.947  18.748  0.00  0.00    +0.000 A 
ATOM     10  C   UNL     1       3.006   4.326  18.938  0.00  0.00    +0.000 A 
ENDROOT
BRANCH   1  11
ATOM     11  O   UNL     1       5.370   4.648  18.306  0.00  0.00    +0.000 OA
BRANCH  11  15
ATOM     12  C   UNL     1       6.599   4.338  14.299  0.00  0.00    +0.000 A 
ATOM     13  C   UNL     1       5.510   3.637  14.801  0.00  0.00    +0.000 A 
ATOM     14  C   UNL     1       5.141   3.739  16.138  0.00  0.00    +0.000 A 
ATOM     15  C   UNL     1       5.896   4.492  17.031  0.00  0.00    +0.000 A 
ATOM     16  C   UNL     1       7.005   5.187  16.543  0.00  0.00    +0.000 A 
ATOM     17  C   UNL     1       7.359   5.121  15.174  0.00  0.00    +0.000 A 
BRANCH  12  19
ATOM     18  C   UNL     1       5.880   3.325  12.249  0.00  0.00    +0.000 C 
ATOM     19  O   UNL     1       6.799   4.142  12.960  0.00  0.00    +0.000 OA
ENDBRANCH  12  19
ENDBRANCH  11  15
ENDBRANCH   1  11
TORSDOF 3
ENDMDL
MODEL 6
REMARK VINA RESULT:      -7.0      2.007      2.982
REMARK  Name = 
REMARK  4 active torsions:
REMARK  status: ('A' for Active; 'I' for Inactive)
REMARK    1  A    between atoms: C_1  and  O_2
REMARK    2  A    between atoms: O_2  and  C_3
REMARK    3  A    between atoms: C_6  and  O_7
REMARK    4  A    between atoms: O_7  and  C_8
REMARK                            x       y       z     vdW  Elec       q    Type
REMARK                         _______ _______ _______ _____ _____    ______ ____
ROOT
ATOM      1  C   UNL     1       2.884   5.423  18.018  0.00  0.00    +0.000 A 
ATOM      2  N   UNL     1       2.704   6.743  18.190  0.00  0.00    +0.000 NA
ATOM      3  C   UNL     1       2.176   7.076  19.370  0.00  0.00    +0.000 A 
ATOM      4  N   UNL     1       1.954   6.238  20.381  0.00  0.00    +0.000 NA
ATOM      5  C   UNL     1       1.947   4.935  20.083  0.00  0.00    +0.000 A 
ATOM      6  C   UNL     1       1.596   4.017  21.066  0.00  0.00    +0.000 A 
ATOM      7  C   UNL     1       1.199   2.718  20.746  0.00  0.00    +0.000 A 
ATOM      8  C   UNL     1       1.170   2.327  19.415  0.00  0.00    +0.000 A 
ATOM      9  C   UNL     1       1.732   3.164  18.444  0.00  0.00    +0.000 A 
ATOM     10  C   UNL     1       2.217   4.462  18.802  0.00  0.00    +0.000 A 
ENDROOT
BRANCH   1  11
ATOM     11  O   UNL     1       3.924   5.133  17.151  0.00  0.00    +0.000 OA
BRANCH  11  15
ATOM     12  C   UNL     1       7.543   6.930  18.307  0.00  0.00    +0.000 A 
ATOM     13  C   UNL     1       6.803   7.376  17.219  0.00  0.00    +0.000 A 
ATOM     14  C   UNL     1       5.622   6.745  16.843  0.00  0.00    +0.000 A 
ATOM     15  C   UNL     1       5.181   5.604  17.504  0.00  0.00    +0.000 A 
ATOM     16  C   UNL     1       5.925   5.134  18.589  0.00  0.00    +0.000 A 
ATOM     17  C   UNL     1       7.106   5.798  19.002  0.00  0.00    +0.000 A 
BRANCH  12  19
ATOM     18  C   UNL     1       8.575   9.092  18.381  0.00  0.00    +0.000 C 
ATOM     19  O   UNL     1       8.658   7.684  18.550  0.00  0.00    +0.000 OA
ENDBRANCH  12  19
ENDBRANCH  11  15
ENDBRANCH   1  11
TORSDOF 3
ENDMDL
MODEL 7
REMARK VINA RESULT:      -7.0      2.322      6.196
REMARK  Name = 
REMARK  4 active torsions:
REMARK  status: ('A' for Active; 'I' for Inactive)
REMARK    1  A    between atoms: C_1  and  O_2
REMARK    2  A    between atoms: O_2  and  C_3
REMARK    3  A    between atoms: C_6  and  O_7
REMARK    4  A    between atoms: O_7  and  C_8
REMARK                            x       y       z     vdW  Elec       q    Type
REMARK                         _______ _______ _______ _____ _____    ______ ____
ROOT
ATOM      1  C   UNL     1       5.218   5.121  16.716  0.00  0.00    +0.000 A 
ATOM      2  N   UNL     1       5.990   4.938  17.801  0.00  0.00    +0.000 NA
ATOM      3  C   UNL     1       7.269   4.679  17.527  0.00  0.00    +0.000 A 
ATOM      4  N   UNL     1       7.824   4.722  16.317  0.00  0.00    +0.000 NA
ATOM      5  C   UNL     1       6.986   4.694  15.276  0.00  0.00    +0.000 A 
ATOM      6  C   UNL     1       7.505   4.608  13.990  0.00  0.00    +0.000 A 
ATOM      7  C   UNL     1       6.722   4.196  12.911  0.00  0.00    +0.000 A 
ATOM      8  C   UNL     1       5.388   3.880  13.123  0.00  0.00    +0.000 A 
ATOM      9  C   UNL     1       4.804   4.177  14.361  0.00  0.00    +0.000 A 
ATOM     10  C   UNL     1       5.603   4.684  15.434  0.00  0.00    +0.000 A 
ENDROOT
BRANCH   1  11
ATOM     11  O   UNL     1       4.134   5.947  16.963  0.00  0.00    +0.000 OA
BRANCH  11  15
ATOM     12  C   UNL     1       1.625   4.296  19.903  0.00  0.00    +0.000 A 
ATOM     13  C   UNL     1       1.790   3.716  18.651  0.00  0.00    +0.000 A 
ATOM     14  C   UNL     1       2.607   4.299  17.688  0.00  0.00    +0.000 A 
ATOM     15  C   UNL     1       3.229   5.519  17.925  0.00  0.00    +0.000 A 
ATOM     16  C   UNL     1       3.058   6.123  19.173  0.00  0.00    +0.000 A 
ATOM     17  C   UNL     1       2.261   5.512  20.172  0.00  0.00    +0.000 A 
BRANCH  12  19
ATOM     18  C   UNL     1       1.406   2.645  21.627  0.00  0.00    +0.000 C 
ATOM     19  O   UNL     1       0.811   3.574  20.731  0.00  0.00    +0.000 OA
ENDBRANCH  12  19
ENDBRANCH  11  15
ENDBRANCH   1  11
TORSDOF 3
ENDMDL
MODEL 8
REMARK VINA RESULT:      -7.0      0.229      1.122
REMARK  Name = 
REMARK  4 active torsions:
REMARK  status: ('A' for Active; 'I' for Inactive)
REMARK    1  A    between atoms: C_1  and  O_2
REMARK    2  A    between atoms: O_2  and  C_3
REMARK    3  A    between atoms: C_6  and  O_7
REMARK    4  A    between atoms: O_7  and  C_8
REMARK                            x       y       z     vdW  Elec       q    Type
REMARK                         _______ _______ _______ _____ _____    ______ ____
ROOT
ATOM      1  C   UNL     1       3.407   5.615  19.196  0.00  0.00    +0.000 A 
ATOM      2  N   UNL     1       2.773   6.655  19.765  0.00  0.00    +0.000 NA
ATOM      3  C   UNL     1       1.668   6.324  20.434  0.00  0.00    +0.000 A 
ATOM      4  N   UNL     1       1.252   5.081  20.673  0.00  0.00    +0.000 NA
ATOM      5  C   UNL     1       1.788   4.118  19.916  0.00  0.00    +0.000 A 
ATOM      6  C   UNL     1       1.305   2.820  20.028  0.00  0.00    +0.000 A 
ATOM      7  C   UNL     1       1.531   1.867  19.035  0.00  0.00    +0.000 A 
ATOM      8  C   UNL     1       2.271   2.218  17.915  0.00  0.00    +0.000 A 
ATOM      9  C   UNL     1       2.946   3.445  17.898  0.00  0.00    +0.000 A 
ATOM     10  C   UNL     1       2.774   4.378  18.969  0.00  0.00    +0.000 A 
ENDROOT
BRANCH   1  11
ATOM     11  O   UNL     1       4.769   5.829  19.058  0.00  0.00    +0.000 OA
BRANCH  11  15
ATOM     12  C   UNL     1       6.607   5.101  15.349  0.00  0.00    +0.000 A 
ATOM     13  C   UNL     1       5.498   5.928  15.482  0.00  0.00    +0.000 A 
ATOM     14  C   UNL     1       4.894   6.130  16.719  0.00  0.00    +0.000 A 
ATOM     15  C   UNL     1       5.340   5.454  17.850  0.00  0.00    +0.000 A 
ATOM     16  C   UNL     1       6.443   4.606  17.726  0.00  0.00    +0.000 A 
ATOM     17  C   UNL     1       7.087   4.429  16.477  0.00  0.00    +0.000 A 
BRANCH  12  19
ATOM     18  C   UNL     1       6.530   4.082  13.181  0.00  0.00    +0.000 C 
ATOM     19  O   UNL     1       7.087   5.040  14.069  0.00  0.00    +0.000 OA
ENDBRANCH  12  19
ENDBRANCH  11  15
ENDBRANCH   1  11
TORSDOF 3
ENDMDL
MODEL 9
REMARK VINA RESULT:      -6.9      2.478      6.545
REMARK  Name = 
REMARK  4 active torsions:
REMARK  status: ('A' for Active; 'I' for Inactive)
REMARK    1  A    between atoms: C_1  and  O_2
REMARK    2  A    between atoms: O_2  and  C_3
REMARK    3  A    between atoms: C_6  and  O_7
REMARK    4  A    between atoms: O_7  and  C_8
REMARK                            x       y       z     vdW  Elec       q    Type
REMARK                         _______ _______ _______ _____ _____    ______ ____
ROOT
ATOM      1  C   UNL     1       5.235   4.499  15.991  0.00  0.00    +0.000 A 
ATOM      2  N   UNL     1       6.018   4.703  17.065  0.00  0.00    +0.000 NA
ATOM      3  C   UNL     1       7.274   5.042  16.771  0.00  0.00    +0.000 A 
ATOM      4  N   UNL     1       7.737   5.309  15.551  0.00  0.00    +0.000 NA
ATOM      5  C   UNL     1       6.990   4.887  14.526  0.00  0.00    +0.000 A 
ATOM      6  C   UNL     1       7.479   5.020  13.232  0.00  0.00    +0.000 A 
ATOM      7  C   UNL     1       6.955   4.280  12.172  0.00  0.00    +0.000 A 
ATOM      8  C   UNL     1       5.907   3.402  12.411  0.00  0.00    +0.000 A 
ATOM      9  C   UNL     1       5.265   3.427  13.656  0.00  0.00    +0.000 A 
ATOM     10  C   UNL     1       5.762   4.259  14.708  0.00  0.00    +0.000 A 
ENDROOT
BRANCH   1  11
ATOM     11  O   UNL     1       3.897   4.754  16.248  0.00  0.00    +0.000 OA
BRANCH  11  15
ATOM     12  C   UNL     1       1.806   2.894  19.383  0.00  0.00    +0.000 A 
ATOM     13  C   UNL     1       1.902   4.275  19.267  0.00  0.00    +0.000 A 
ATOM     14  C   UNL     1       2.623   4.863  18.233  0.00  0.00    +0.000 A 
ATOM     15  C   UNL     1       3.329   4.085  17.323  0.00  0.00    +0.000 A 
ATOM     16  C   UNL     1       3.257   2.695  17.439  0.00  0.00    +0.000 A 
ATOM     17  C   UNL     1       2.489   2.090  18.464  0.00  0.00    +0.000 A 
BRANCH  12  19
ATOM     18  C   UNL     1       1.471   2.807  21.754  0.00  0.00    +0.000 C 
ATOM     19  O   UNL     1       1.036   2.491  20.439  0.00  0.00    +0.000 OA
ENDBRANCH  12  19
ENDBRANCH  11  15
ENDBRANCH   1  11
TORSDOF 3
ENDMDL
