MODEL 1
REMARK VINA RESULT:      -6.4      0.000      0.000
REMARK  Name = 
REMARK  9 active torsions:
REMARK  status: ('A' for Active; 'I' for Inactive)
REMARK    1  A    between atoms: C_1  and  C_2
REMARK    2  A    between atoms: C_2  and  O_3
REMARK    3  A    between atoms: O_3  and  C_4
REMARK    4  A    between atoms: C_4  and  C_5
REMARK    5  A    between atoms: C_5  and  C_6
REMARK    6  A    between atoms: C_11  and  C_12
REMARK    7  A    between atoms: C_12  and  C_13
REMARK    8  A    between atoms: C_12  and  C_14
REMARK    9  A    between atoms: C_12  and  O_15
REMARK                            x       y       z     vdW  Elec       q    Type
REMARK                         _______ _______ _______ _____ _____    ______ ____
ROOT
ATOM      1  C   UNL     1       5.645   4.481  17.966  0.00  0.00    +0.000 C 
ATOM      2  O   UNL     1       6.432   4.456  18.913  0.00  0.00    +0.000 OA
ATOM      3  N   UNL     1       4.417   3.859  18.045  0.00  0.00    +0.000 N 
ATOM      4  C   UNL     1       3.385   3.753  17.035  0.00  0.00    +0.000 C 
ATOM      5  C   UNL     1       2.106   3.797  17.860  0.00  0.00    +0.000 C 
ATOM      6  C   UNL     1       2.466   3.068  19.172  0.00  0.00    +0.000 C 
ATOM      7  C   UNL     1       3.994   3.238  19.285  0.00  0.00    +0.000 C 
ENDROOT
BRANCH   6   8
ATOM      8  C   UNL     1       1.627   3.503  20.420  0.00  0.00    +0.000 C 
ATOM      9  C   UNL     1       2.125   2.789  21.678  0.00  0.00    +0.000 C 
ATOM     10  C   UNL     1       1.601   5.015  20.676  0.00  0.00    +0.000 C 
BRANCH   8  11
ATOM     11  O   UNL     1       0.271   3.099  20.223  0.00  0.00    +0.000 OA
ATOM     12  H   UNL     1      -0.065   3.525  19.402  0.00  0.00    +0.000 HD
ENDBRANCH   8  11
ENDBRANCH   6   8
BRANCH   1  13
ATOM     13  C   UNL     1       5.960   5.232  16.691  0.00  0.00    +0.000 C 
BRANCH  13  14
ATOM     14  C   UNL     1       7.153   4.589  15.994  0.00  0.00    +0.000 C 
BRANCH  14  15
ATOM     15  O   UNL     1       7.041   4.748  14.577  0.00  0.00    +0.000 OA
BRANCH  15  17
ATOM     16  C   UNL     1       6.220   3.553  12.658  0.00  0.00    +0.000 C 
ATOM     17  C   UNL     1       5.930   3.998  14.077  0.00  0.00    +0.000 C 
ENDBRANCH  15  17
ENDBRANCH  14  15
ENDBRANCH  13  14
ENDBRANCH   1  13
TORSDOF 6
ENDMDL
MODEL 2
REMARK VINA RESULT:      -6.4      1.832      2.771
REMARK  Name = 
REMARK  9 active torsions:
REMARK  status: ('A' for Active; 'I' for Inactive)
REMARK    1  A    between atoms: C_1  and  C_2
REMARK    2  A    between atoms: C_2  and  O_3
REMARK    3  A    between atoms: O_3  and  C_4
REMARK    4  A    between atoms: C_4  and  C_5
REMARK    5  A    between atoms: C_5  and  C_6
REMARK    6  A    between atoms: C_11  and  C_12
REMARK    7  A    between atoms: C_12  and  C_13
REMARK    8  A    between atoms: C_12  and  C_14
REMARK    9  A    between atoms: C_12  and  O_15
REMARK                            x       y       z     vdW  Elec       q    Type
REMARK                         _______ _______ _______ _____ _____    ______ ____
ROOT
ATOM      1  C   UNL     1       5.875   4.633  18.309  0.00  0.00    +0.000 C 
ATOM      2  O   UNL     1       6.521   4.780  19.347  0.00  0.00    +0.000 OA
ATOM      3  N   UNL     1       4.712   3.892  18.294  0.00  0.00    +0.000 N 
ATOM      4  C   UNL     1       3.845   3.583  17.176  0.00  0.00    +0.000 C 
ATOM      5  C   UNL     1       2.466   3.564  17.819  0.00  0.00    +0.000 C 
ATOM      6  C   UNL     1       2.708   3.001  19.236  0.00  0.00    +0.000 C 
ATOM      7  C   UNL     1       4.182   3.344  19.527  0.00  0.00    +0.000 C 
ENDROOT
BRANCH   6   8
ATOM      8  C   UNL     1       1.666   3.454  20.312  0.00  0.00    +0.000 C 
ATOM      9  C   UNL     1       1.960   2.790  21.658  0.00  0.00    +0.000 C 
ATOM     10  C   UNL     1       1.572   4.972  20.510  0.00  0.00    +0.000 C 
BRANCH   8  11
ATOM     11  O   UNL     1       0.368   3.015  19.907  0.00  0.00    +0.000 OA
ATOM     12  H   UNL     1      -0.147   3.798  19.608  0.00  0.00    +0.000 HD
ENDBRANCH   8  11
ENDBRANCH   6   8
BRANCH   1  13
ATOM     13  C   UNL     1       6.292   5.294  17.014  0.00  0.00    +0.000 C 
BRANCH  13  14
ATOM     14  C   UNL     1       6.130   6.804  17.129  0.00  0.00    +0.000 C 
BRANCH  14  15
ATOM     15  O   UNL     1       7.371   7.457  16.842  0.00  0.00    +0.000 OA
BRANCH  15  17
ATOM     16  C   UNL     1       8.327   9.283  18.079  0.00  0.00    +0.000 C 
ATOM     17  C   UNL     1       8.049   7.794  18.055  0.00  0.00    +0.000 C 
ENDBRANCH  15  17
ENDBRANCH  14  15
ENDBRANCH  13  14
ENDBRANCH   1  13
TORSDOF 6
ENDMDL
MODEL 3
REMARK VINA RESULT:      -6.3      1.395      2.229
REMARK  Name = 
REMARK  9 active torsions:
REMARK  status: ('A' for Active; 'I' for Inactive)
REMARK    1  A    between atoms: C_1  and  C_2
REMARK    2  A    between atoms: C_2  and  O_3
REMARK    3  A    between atoms: O_3  and  C_4
REMARK    4  A    between atoms: C_4  and  C_5
REMARK    5  A    between atoms: C_5  and  C_6
REMARK    6  A    between atoms: C_11  and  C_12
REMARK    7  A    between atoms: C_12  and  C_13
REMARK    8  A    between atoms: C_12  and  C_14
REMARK    9  A    between atoms: C_12  and  O_15
REMARK                            x       y       z     vdW  Elec       q    Type
REMARK                         _______ _______ _______ _____ _____    ______ ____
ROOT
ATOM      1  C   UNL     1       5.515   4.197  17.885  0.00  0.00    +0.000 C 
ATOM      2  O   UNL     1       6.325   4.238  18.811  0.00  0.00    +0.000 OA
ATOM      3  N   UNL     1       4.283   3.597  18.044  0.00  0.00    +0.000 N 
ATOM      4  C   UNL     1       3.224   3.424  17.071  0.00  0.00    +0.000 C 
ATOM      5  C   UNL     1       1.968   3.547  17.922  0.00  0.00    +0.000 C 
ATOM      6  C   UNL     1       2.355   2.919  19.278  0.00  0.00    +0.000 C 
ATOM      7  C   UNL     1       3.887   3.080  19.339  0.00  0.00    +0.000 C 
ENDROOT
BRANCH   6   8
ATOM      8  C   UNL     1       1.552   3.461  20.508  0.00  0.00    +0.000 C 
ATOM      9  C   UNL     1       1.778   2.570  21.731  0.00  0.00    +0.000 C 
ATOM     10  C   UNL     1       1.861   4.916  20.882  0.00  0.00    +0.000 C 
BRANCH   8  11
ATOM     11  O   UNL     1       0.158   3.405  20.205  0.00  0.00    +0.000 OA
ATOM     12  H   UNL     1      -0.047   4.107  19.548  0.00  0.00    +0.000 HD
ENDBRANCH   8  11
ENDBRANCH   6   8
BRANCH   1  13
ATOM     13  C   UNL     1       5.804   4.841  16.547  0.00  0.00    +0.000 C 
BRANCH  13  14
ATOM     14  C   UNL     1       7.302   5.075  16.399  0.00  0.00    +0.000 C 
BRANCH  14  15
ATOM     15  O   UNL     1       7.566   6.463  16.175  0.00  0.00    +0.000 OA
BRANCH  15  17
ATOM     16  C   UNL     1       8.088   7.327  18.357  0.00  0.00    +0.000 C 
ATOM     17  C   UNL     1       7.052   7.248  17.255  0.00  0.00    +0.000 C 
ENDBRANCH  15  17
ENDBRANCH  14  15
ENDBRANCH  13  14
ENDBRANCH   1  13
TORSDOF 6
ENDMDL
MODEL 4
REMARK VINA RESULT:      -6.2      2.112      6.010
REMARK  Name = 
REMARK  9 active torsions:
REMARK  status: ('A' for Active; 'I' for Inactive)
REMARK    1  A    between atoms: C_1  and  C_2
REMARK    2  A    between atoms: C_2  and  O_3
REMARK    3  A    between atoms: O_3  and  C_4
REMARK    4  A    between atoms: C_4  and  C_5
REMARK    5  A    between atoms: C_5  and  C_6
REMARK    6  A    between atoms: C_11  and  C_12
REMARK    7  A    between atoms: C_12  and  C_13
REMARK    8  A    between atoms: C_12  and  C_14
REMARK    9  A    between atoms: C_12  and  O_15
REMARK                            x       y       z     vdW  Elec       q    Type
REMARK                         _______ _______ _______ _____ _____    ______ ____
ROOT
ATOM      1  C   UNL     1       4.147   2.871  19.087  0.00  0.00    +0.000 C 
ATOM      2  O   UNL     1       4.734   2.492  20.100  0.00  0.00    +0.000 OA
ATOM      3  N   UNL     1       4.378   4.124  18.558  0.00  0.00    +0.000 N 
ATOM      4  C   UNL     1       3.766   4.751  17.406  0.00  0.00    +0.000 C 
ATOM      5  C   UNL     1       4.905   5.585  16.836  0.00  0.00    +0.000 C 
ATOM      6  C   UNL     1       5.700   6.053  18.074  0.00  0.00    +0.000 C 
ATOM      7  C   UNL     1       5.388   4.985  19.141  0.00  0.00    +0.000 C 
ENDROOT
BRANCH   6   8
ATOM      8  C   UNL     1       7.214   6.349  17.812  0.00  0.00    +0.000 C 
ATOM      9  C   UNL     1       7.418   7.821  17.450  0.00  0.00    +0.000 C 
ATOM     10  C   UNL     1       8.146   5.983  18.973  0.00  0.00    +0.000 C 
BRANCH   8  11
ATOM     11  O   UNL     1       7.642   5.582  16.686  0.00  0.00    +0.000 OA
ATOM     12  H   UNL     1       8.215   6.149  16.122  0.00  0.00    +0.000 HD
ENDBRANCH   8  11
ENDBRANCH   6   8
BRANCH   1  13
ATOM     13  C   UNL     1       3.185   1.972  18.342  0.00  0.00    +0.000 C 
BRANCH  13  14
ATOM     14  C   UNL     1       1.848   1.931  19.070  0.00  0.00    +0.000 C 
BRANCH  14  15
ATOM     15  O   UNL     1       1.211   3.211  19.004  0.00  0.00    +0.000 OA
BRANCH  15  17
ATOM     16  C   UNL     1       1.392   2.768  21.361  0.00  0.00    +0.000 C 
ATOM     17  C   UNL     1       0.693   3.576  20.287  0.00  0.00    +0.000 C 
ENDBRANCH  15  17
ENDBRANCH  14  15
ENDBRANCH  13  14
ENDBRANCH   1  13
TORSDOF 6
ENDMDL
MODEL 5
REMARK VINA RESULT:      -6.1      0.952      1.247
REMARK  Name = 
REMARK  9 active torsions:
REMARK  status: ('A' for Active; 'I' for Inactive)
REMARK    1  A    between atoms: C_1  and  C_2
REMARK    2  A    between atoms: C_2  and  O_3
REMARK    3  A    between atoms: O_3  and  C_4
REMARK    4  A    between atoms: C_4  and  C_5
REMARK    5  A    between atoms: C_5  and  C_6
REMARK    6  A    between atoms: C_11  and  C_12
REMARK    7  A    between atoms: C_12  and  C_13
REMARK    8  A    between atoms: C_12  and  C_14
REMARK    9  A    between atoms: C_12  and  O_15
REMARK                            x       y       z     vdW  Elec       q    Type
REMARK                         _______ _______ _______ _____ _____    ______ ____
ROOT
ATOM      1  C   UNL     1       5.947   4.605  17.731  0.00  0.00    +0.000 C 
ATOM      2  O   UNL     1       6.809   4.681  18.606  0.00  0.00    +0.000 OA
ATOM      3  N   UNL     1       4.762   3.936  17.956  0.00  0.00    +0.000 N 
ATOM      4  C   UNL     1       3.657   3.714  17.048  0.00  0.00    +0.000 C 
ATOM      5  C   UNL     1       2.450   3.759  17.975  0.00  0.00    +0.000 C 
ATOM      6  C   UNL     1       2.954   3.139  19.296  0.00  0.00    +0.000 C 
ATOM      7  C   UNL     1       4.475   3.385  19.266  0.00  0.00    +0.000 C 
ENDROOT
BRANCH   6   8
ATOM      8  C   UNL     1       2.200   3.622  20.579  0.00  0.00    +0.000 C 
ATOM      9  C   UNL     1       0.739   3.943  20.255  0.00  0.00    +0.000 C 
ATOM     10  C   UNL     1       2.249   2.640  21.757  0.00  0.00    +0.000 C 
BRANCH   8  11
ATOM     11  O   UNL     1       2.800   4.835  21.035  0.00  0.00    +0.000 OA
ATOM     12  H   UNL     1       2.971   5.411  20.255  0.00  0.00    +0.000 HD
ENDBRANCH   8  11
ENDBRANCH   6   8
BRANCH   1  13
ATOM     13  C   UNL     1       6.117   5.278  16.387  0.00  0.00    +0.000 C 
BRANCH  13  14
ATOM     14  C   UNL     1       7.221   4.585  15.598  0.00  0.00    +0.000 C 
BRANCH  14  15
ATOM     15  O   UNL     1       6.991   4.734  14.193  0.00  0.00    +0.000 OA
BRANCH  15  17
ATOM     16  C   UNL     1       6.185   3.387  12.372  0.00  0.00    +0.000 C 
ATOM     17  C   UNL     1       5.912   3.894  13.773  0.00  0.00    +0.000 C 
ENDBRANCH  15  17
ENDBRANCH  14  15
ENDBRANCH  13  14
ENDBRANCH   1  13
TORSDOF 6
ENDMDL
MODEL 6
REMARK VINA RESULT:      -6.1      1.955      6.053
REMARK  Name = 
REMARK  9 active torsions:
REMARK  status: ('A' for Active; 'I' for Inactive)
REMARK    1  A    between atoms: C_1  and  C_2
REMARK    2  A    between atoms: C_2  and  O_3
REMARK    3  A    between atoms: O_3  and  C_4
REMARK    4  A    between atoms: C_4  and  C_5
REMARK    5  A    between atoms: C_5  and  C_6
REMARK    6  A    between atoms: C_11  and  C_12
REMARK    7  A    between atoms: C_12  and  C_13
REMARK    8  A    between atoms: C_12  and  C_14
REMARK    9  A    between atoms: C_12  and  O_15
REMARK                            x       y       z     vdW  Elec       q    Type
REMARK                         _______ _______ _______ _____ _____    ______ ____
ROOT
ATOM      1  C   UNL     1       3.398   2.718  18.484  0.00  0.00    +0.000 C 
ATOM      2  O   UNL     1       4.022   1.778  18.977  0.00  0.00    +0.000 OA
ATOM      3  N   UNL     1       3.919   3.995  18.485  0.00  0.00    +0.000 N 
ATOM      4  C   UNL     1       3.326   5.219  17.988  0.00  0.00    +0.000 C 
ATOM      5  C   UNL     1       4.533   5.987  17.468  0.00  0.00    +0.000 C 
ATOM      6  C   UNL     1       5.677   5.610  18.433  0.00  0.00    +0.000 C 
ATOM      7  C   UNL     1       5.256   4.235  18.990  0.00  0.00    +0.000 C 
ENDROOT
BRANCH   6   8
ATOM      8  C   UNL     1       7.114   5.697  17.818  0.00  0.00    +0.000 C 
ATOM      9  C   UNL     1       7.073   5.408  16.316  0.00  0.00    +0.000 C 
ATOM     10  C   UNL     1       7.828   7.033  18.053  0.00  0.00    +0.000 C 
BRANCH   8  11
ATOM     11  O   UNL     1       7.929   4.688  18.413  0.00  0.00    +0.000 OA
ATOM     12  H   UNL     1       8.123   4.002  17.734  0.00  0.00    +0.000 HD
ENDBRANCH   8  11
ENDBRANCH   6   8
BRANCH   1  13
ATOM     13  C   UNL     1       2.058   2.517  17.811  0.00  0.00    +0.000 C 
BRANCH  13  14
ATOM     14  C   UNL     1       0.996   2.205  18.857  0.00  0.00    +0.000 C 
BRANCH  14  15
ATOM     15  O   UNL     1       0.867   3.298  19.771  0.00  0.00    +0.000 OA
BRANCH  15  17
ATOM     16  C   UNL     1       2.255   3.629  21.706  0.00  0.00    +0.000 C 
ATOM     17  C   UNL     1       1.096   2.856  21.112  0.00  0.00    +0.000 C 
ENDBRANCH  15  17
ENDBRANCH  14  15
ENDBRANCH  13  14
ENDBRANCH   1  13
TORSDOF 6
ENDMDL
MODEL 7
REMARK VINA RESULT:      -6.0      2.136      3.292
REMARK  Name = 
REMARK  9 active torsions:
REMARK  status: ('A' for Active; 'I' for Inactive)
REMARK    1  A    between atoms: C_1  and  C_2
REMARK    2  A    between atoms: C_2  and  O_3
REMARK    3  A    between atoms: O_3  and  C_4
REMARK    4  A    between atoms: C_4  and  C_5
REMARK    5  A    between atoms: C_5  and  C_6
REMARK    6  A    between atoms: C_11  and  C_12
REMARK    7  A    between atoms: C_12  and  C_13
REMARK    8  A    between atoms: C_12  and  C_14
REMARK    9  A    between atoms: C_12  and  O_15
REMARK                            x       y       z     vdW  Elec       q    Type
REMARK                         _______ _______ _______ _____ _____    ______ ____
ROOT
ATOM      1  C   UNL     1       5.319   4.865  16.802  0.00  0.00    +0.000 C 
ATOM      2  O   UNL     1       5.757   3.835  16.292  0.00  0.00    +0.000 OA
ATOM      3  N   UNL     1       4.004   4.955  17.208  0.00  0.00    +0.000 N 
ATOM      4  C   UNL     1       3.308   6.082  17.792  0.00  0.00    +0.000 C 
ATOM      5  C   UNL     1       2.335   5.412  18.753  0.00  0.00    +0.000 C 
ATOM      6  C   UNL     1       1.941   4.096  18.049  0.00  0.00    +0.000 C 
ATOM      7  C   UNL     1       3.135   3.798  17.120  0.00  0.00    +0.000 C 
ENDROOT
BRANCH   6   8
ATOM      8  C   UNL     1       1.505   2.940  19.010  0.00  0.00    +0.000 C 
ATOM      9  C   UNL     1       2.622   1.903  19.143  0.00  0.00    +0.000 C 
ATOM     10  C   UNL     1       1.078   3.400  20.409  0.00  0.00    +0.000 C 
BRANCH   8  11
ATOM     11  O   UNL     1       0.381   2.269  18.439  0.00  0.00    +0.000 OA
ATOM     12  H   UNL     1       0.251   2.602  17.523  0.00  0.00    +0.000 HD
ENDBRANCH   8  11
ENDBRANCH   6   8
BRANCH   1  13
ATOM     13  C   UNL     1       6.205   6.065  17.057  0.00  0.00    +0.000 C 
BRANCH  13  14
ATOM     14  C   UNL     1       6.970   5.875  18.360  0.00  0.00    +0.000 C 
BRANCH  14  15
ATOM     15  O   UNL     1       7.997   6.865  18.479  0.00  0.00    +0.000 OA
BRANCH  15  17
ATOM     16  C   UNL     1       8.420   9.211  18.162  0.00  0.00    +0.000 C 
ATOM     17  C   UNL     1       7.713   7.981  17.630  0.00  0.00    +0.000 C 
ENDBRANCH  15  17
ENDBRANCH  14  15
ENDBRANCH  13  14
ENDBRANCH   1  13
TORSDOF 6
ENDMDL
MODEL 8
REMARK VINA RESULT:      -6.0      1.808      2.347
REMARK  Name = 
REMARK  9 active torsions:
REMARK  status: ('A' for Active; 'I' for Inactive)
REMARK    1  A    between atoms: C_1  and  C_2
REMARK    2  A    between atoms: C_2  and  O_3
REMARK    3  A    between atoms: O_3  and  C_4
REMARK    4  A    between atoms: C_4  and  C_5
REMARK    5  A    between atoms: C_5  and  C_6
REMARK    6  A    between atoms: C_11  and  C_12
REMARK    7  A    between atoms: C_12  and  C_13
REMARK    8  A    between atoms: C_12  and  C_14
REMARK    9  A    between atoms: C_12  and  O_15
REMARK                            x       y       z     vdW  Elec       q    Type
REMARK                         _______ _______ _______ _____ _____    ______ ____
ROOT
ATOM      1  C   UNL     1       5.455   6.265  16.960  0.00  0.00    +0.000 C 
ATOM      2  O   UNL     1       4.852   6.864  16.071  0.00  0.00    +0.000 OA
ATOM      3  N   UNL     1       4.774   5.629  17.978  0.00  0.00    +0.000 N 
ATOM      4  C   UNL     1       5.306   4.910  19.116  0.00  0.00    +0.000 C 
ATOM      5  C   UNL     1       4.280   3.804  19.320  0.00  0.00    +0.000 C 
ATOM      6  C   UNL     1       2.932   4.451  18.935  0.00  0.00    +0.000 C 
ATOM      7  C   UNL     1       3.325   5.583  17.966  0.00  0.00    +0.000 C 
ENDROOT
BRANCH   6   8
ATOM      8  C   UNL     1       1.843   3.449  18.426  0.00  0.00    +0.000 C 
ATOM      9  C   UNL     1       2.498   2.218  17.797  0.00  0.00    +0.000 C 
ATOM     10  C   UNL     1       0.842   2.995  19.496  0.00  0.00    +0.000 C 
BRANCH   8  11
ATOM     11  O   UNL     1       1.081   4.085  17.398  0.00  0.00    +0.000 OA
ATOM     12  H   UNL     1       1.693   4.349  16.674  0.00  0.00    +0.000 HD
ENDBRANCH   8  11
ENDBRANCH   6   8
BRANCH   1  13
ATOM     13  C   UNL     1       6.963   6.151  16.960  0.00  0.00    +0.000 C 
BRANCH  13  14
ATOM     14  C   UNL     1       7.384   4.863  16.263  0.00  0.00    +0.000 C 
BRANCH  14  15
ATOM     15  O   UNL     1       7.313   5.023  14.844  0.00  0.00    +0.000 OA
BRANCH  15  17
ATOM     16  C   UNL     1       6.644   3.950  12.798  0.00  0.00    +0.000 C 
ATOM     17  C   UNL     1       6.380   4.094  14.283  0.00  0.00    +0.000 C 
ENDBRANCH  15  17
ENDBRANCH  14  15
ENDBRANCH  13  14
ENDBRANCH   1  13
TORSDOF 6
ENDMDL
MODEL 9
REMARK VINA RESULT:      -6.0      0.954      1.091
REMARK  Name = 
REMARK  9 active torsions:
REMARK  status: ('A' for Active; 'I' for Inactive)
REMARK    1  A    between atoms: C_1  and  C_2
REMARK    2  A    between atoms: C_2  and  O_3
REMARK    3  A    between atoms: O_3  and  C_4
REMARK    4  A    between atoms: C_4  and  C_5
REMARK    5  A    between atoms: C_5  and  C_6
REMARK    6  A    between atoms: C_11  and  C_12
REMARK    7  A    between atoms: C_12  and  C_13
REMARK    8  A    between atoms: C_12  and  C_14
REMARK    9  A    between atoms: C_12  and  O_15
REMARK                            x       y       z     vdW  Elec       q    Type
REMARK                         _______ _______ _______ _____ _____    ______ ____
ROOT
ATOM      1  C   UNL     1       5.809   4.486  18.620  0.00  0.00    +0.000 C 
ATOM      2  O   UNL     1       6.286   4.913  19.672  0.00  0.00    +0.000 OA
ATOM      3  N   UNL     1       4.726   3.634  18.624  0.00  0.00    +0.000 N 
ATOM      4  C   UNL     1       4.056   3.009  17.503  0.00  0.00    +0.000 C 
ATOM      5  C   UNL     1       2.605   2.969  17.962  0.00  0.00    +0.000 C 
ATOM      6  C   UNL     1       2.687   2.737  19.486  0.00  0.00    +0.000 C 
ATOM      7  C   UNL     1       4.072   3.294  19.873  0.00  0.00    +0.000 C 
ENDROOT
BRANCH   6   8
ATOM      8  C   UNL     1       1.468   3.283  20.302  0.00  0.00    +0.000 C 
ATOM      9  C   UNL     1       1.427   2.649  21.694  0.00  0.00    +0.000 C 
ATOM     10  C   UNL     1       1.427   4.809  20.444  0.00  0.00    +0.000 C 
BRANCH   8  11
ATOM     11  O   UNL     1       0.264   2.901  19.636  0.00  0.00    +0.000 OA
ATOM     12  H   UNL     1       0.169   1.924  19.698  0.00  0.00    +0.000 HD
ENDBRANCH   8  11
ENDBRANCH   6   8
BRANCH   1  13
ATOM     13  C   UNL     1       6.351   4.911  17.273  0.00  0.00    +0.000 C 
BRANCH  13  14
ATOM     14  C   UNL     1       5.445   5.973  16.663  0.00  0.00    +0.000 C 
BRANCH  14  15
ATOM     15  O   UNL     1       5.298   5.749  15.258  0.00  0.00    +0.000 OA
BRANCH  15  17
ATOM     16  C   UNL     1       5.852   3.974  13.734  0.00  0.00    +0.000 C 
ATOM     17  C   UNL     1       6.378   4.951  14.765  0.00  0.00    +0.000 C 
ENDBRANCH  15  17
ENDBRANCH  14  15
ENDBRANCH  13  14
ENDBRANCH   1  13
TORSDOF 6
ENDMDL
