MODEL 1
REMARK VINA RESULT:      -8.6      0.000      0.000
REMARK  Name = 
REMARK  7 active torsions:
REMARK  status: ('A' for Active; 'I' for Inactive)
REMARK    1  A    between atoms: N_1  and  C_2
REMARK    2  A    between atoms: C_3  and  S_4
REMARK    3  A    between atoms: S_4  and  O_7
REMARK    4  A    between atoms: C_9  and  N_10
REMARK    5  A    between atoms: N_10  and  C_11
REMARK    6  A    between atoms: C_11  and  C_12
REMARK    7  A    between atoms: C_12  and  C_13
REMARK                            x       y       z     vdW  Elec       q    Type
REMARK                         _______ _______ _______ _____ _____    ______ ____
ROOT
ATOM      1  C   UNL     1       2.600   4.972  20.147  0.00  0.00    +0.000 A 
ATOM      2  C   UNL     1       3.349   4.040  19.422  0.00  0.00    +0.000 A 
ATOM      3  C   UNL     1       3.958   4.382  18.205  0.00  0.00    +0.000 A 
ATOM      4  C   UNL     1       3.813   5.650  17.631  0.00  0.00    +0.000 A 
ATOM      5  C   UNL     1       3.043   6.607  18.344  0.00  0.00    +0.000 A 
ATOM      6  C   UNL     1       2.440   6.267  19.576  0.00  0.00    +0.000 A 
ATOM      7  C   UNL     1       1.675   7.305  20.327  0.00  0.00    +0.000 C 
ATOM      8  O   UNL     1       1.226   7.078  21.448  0.00  0.00    +0.000 OA
ATOM      9  C   UNL     1       1.479   8.643  19.755  0.00  0.00    +0.000 A 
ATOM     10  C   UNL     1       0.728   9.596  20.462  0.00  0.00    +0.000 A 
ATOM     11  C   UNL     1       0.547  10.877  19.940  0.00  0.00    +0.000 A 
ATOM     12  C   UNL     1       1.115  11.209  18.711  0.00  0.00    +0.000 A 
ATOM     13  C   UNL     1       1.858  10.260  18.008  0.00  0.00    +0.000 A 
ATOM     14  C   UNL     1       2.041   8.970  18.530  0.00  0.00    +0.000 A 
ATOM     15  C   UNL     1       2.822   7.969  17.777  0.00  0.00    +0.000 C 
ATOM     16  O   UNL     1       3.251   8.272  16.668  0.00  0.00    +0.000 OA
ENDROOT
BRANCH   1  17
ATOM     17  N   UNL     1       1.852   4.591  21.279  0.00  0.00    +0.000 N 
ATOM     18  H   UNL     1       0.915   4.998  21.328  0.00  0.00    +0.000 HD
ATOM     19  H   UNL     1       1.807   3.567  21.393  0.00  0.00    +0.000 HD
ENDBRANCH   1  17
BRANCH   2  20
ATOM     20  S   UNL     1       3.636   2.371  19.957  0.00  0.00    +0.000 S 
ATOM     21  O   UNL     1       3.494   2.365  21.397  0.00  0.00    +0.000 OA
ATOM     22  O   UNL     1       2.848   1.515  19.099  0.00  0.00    +0.000 OA
BRANCH  20  23
ATOM     23  O   UNL     1       5.192   2.042  19.678  0.00  0.00    +0.000 OA
ATOM     24  H   UNL     1       5.520   1.507  20.434  0.00  0.00    +0.000 HD
ENDBRANCH  20  23
ENDBRANCH   2  20
BRANCH   4  25
ATOM     25  N   UNL     1       4.532   5.980  16.465  0.00  0.00    +0.000 N 
ATOM     26  H   UNL     1       4.028   6.692  15.914  0.00  0.00    +0.000 HD
BRANCH  25  27
ATOM     27  C   UNL     1       5.095   4.903  15.638  0.00  0.00    +0.000 C 
BRANCH  27  28
ATOM     28  C   UNL     1       6.623   5.010  15.543  0.00  0.00    +0.000 C 
BRANCH  28  29
ATOM     29  C   UNL     1       7.208   5.661  16.778  0.00  0.00    +0.000 A 
ATOM     30  C   UNL     1       7.519   4.893  17.908  0.00  0.00    +0.000 A 
ATOM     31  C   UNL     1       8.023   5.498  19.063  0.00  0.00    +0.000 A 
ATOM     32  C   UNL     1       8.216   6.877  19.101  0.00  0.00    +0.000 A 
ATOM     33  C   UNL     1       7.909   7.652  17.983  0.00  0.00    +0.000 A 
ATOM     34  C   UNL     1       7.407   7.048  16.828  0.00  0.00    +0.000 A 
ENDBRANCH  28  29
ENDBRANCH  27  28
ENDBRANCH  25  27
ENDBRANCH   4  25
TORSDOF 7
ENDMDL
MODEL 2
REMARK VINA RESULT:      -8.5      1.232      2.469
REMARK  Name = 
REMARK  7 active torsions:
REMARK  status: ('A' for Active; 'I' for Inactive)
REMARK    1  A    between atoms: N_1  and  C_2
REMARK    2  A    between atoms: C_3  and  S_4
REMARK    3  A    between atoms: S_4  and  O_7
REMARK    4  A    between atoms: C_9  and  N_10
REMARK    5  A    between atoms: N_10  and  C_11
REMARK    6  A    between atoms: C_11  and  C_12
REMARK    7  A    between atoms: C_12  and  C_13
REMARK                            x       y       z     vdW  Elec       q    Type
REMARK                         _______ _______ _______ _____ _____    ______ ____
ROOT
ATOM      1  C   UNL     1       2.617   5.000  20.115  0.00  0.00    +0.000 A 
ATOM      2  C   UNL     1       3.403   4.083  19.410  0.00  0.00    +0.000 A 
ATOM      3  C   UNL     1       4.046   4.441  18.215  0.00  0.00    +0.000 A 
ATOM      4  C   UNL     1       3.901   5.709  17.644  0.00  0.00    +0.000 A 
ATOM      5  C   UNL     1       3.095   6.651  18.336  0.00  0.00    +0.000 A 
ATOM      6  C   UNL     1       2.457   6.296  19.545  0.00  0.00    +0.000 A 
ATOM      7  C   UNL     1       1.654   7.319  20.276  0.00  0.00    +0.000 C 
ATOM      8  O   UNL     1       1.172   7.079  21.381  0.00  0.00    +0.000 OA
ATOM      9  C   UNL     1       1.457   8.658  19.706  0.00  0.00    +0.000 A 
ATOM     10  C   UNL     1       0.670   9.596  20.393  0.00  0.00    +0.000 A 
ATOM     11  C   UNL     1       0.488  10.877  19.872  0.00  0.00    +0.000 A 
ATOM     12  C   UNL     1       1.090  11.224  18.664  0.00  0.00    +0.000 A 
ATOM     13  C   UNL     1       1.870  10.289  17.980  0.00  0.00    +0.000 A 
ATOM     14  C   UNL     1       2.054   8.999  18.501  0.00  0.00    +0.000 A 
ATOM     15  C   UNL     1       2.873   8.013  17.769  0.00  0.00    +0.000 C 
ATOM     16  O   UNL     1       3.334   8.329  16.675  0.00  0.00    +0.000 OA
ENDROOT
BRANCH   1  17
ATOM     17  N   UNL     1       1.838   4.603  21.220  0.00  0.00    +0.000 N 
ATOM     18  H   UNL     1       2.336   4.036  21.912  0.00  0.00    +0.000 HD
ATOM     19  H   UNL     1       1.370   5.400  21.677  0.00  0.00    +0.000 HD
ENDBRANCH   1  17
BRANCH   2  20
ATOM     20  S   UNL     1       3.696   2.416  19.945  0.00  0.00    +0.000 S 
ATOM     21  O   UNL     1       3.527   2.403  21.382  0.00  0.00    +0.000 OA
ATOM     22  O   UNL     1       2.933   1.554  19.070  0.00  0.00    +0.000 OA
BRANCH  20  23
ATOM     23  O   UNL     1       5.260   2.103  19.695  0.00  0.00    +0.000 OA
ATOM     24  H   UNL     1       5.518   1.379  20.307  0.00  0.00    +0.000 HD
ENDBRANCH  20  23
ENDBRANCH   2  20
BRANCH   4  25
ATOM     25  N   UNL     1       4.653   6.056  16.503  0.00  0.00    +0.000 N 
ATOM     26  H   UNL     1       4.344   5.513  15.682  0.00  0.00    +0.000 HD
BRANCH  25  27
ATOM     27  C   UNL     1       6.116   6.157  16.609  0.00  0.00    +0.000 C 
BRANCH  27  28
ATOM     28  C   UNL     1       6.798   4.837  16.226  0.00  0.00    +0.000 C 
BRANCH  28  29
ATOM     29  C   UNL     1       6.823   4.644  14.725  0.00  0.00    +0.000 A 
ATOM     30  C   UNL     1       5.983   3.703  14.114  0.00  0.00    +0.000 A 
ATOM     31  C   UNL     1       6.034   3.496  12.733  0.00  0.00    +0.000 A 
ATOM     32  C   UNL     1       6.926   4.224  11.949  0.00  0.00    +0.000 A 
ATOM     33  C   UNL     1       7.768   5.162  12.546  0.00  0.00    +0.000 A 
ATOM     34  C   UNL     1       7.718   5.371  13.926  0.00  0.00    +0.000 A 
ENDBRANCH  28  29
ENDBRANCH  27  28
ENDBRANCH  25  27
ENDBRANCH   4  25
TORSDOF 7
ENDMDL
MODEL 3
REMARK VINA RESULT:      -8.0      1.297      2.724
REMARK  Name = 
REMARK  7 active torsions:
REMARK  status: ('A' for Active; 'I' for Inactive)
REMARK    1  A    between atoms: N_1  and  C_2
REMARK    2  A    between atoms: C_3  and  S_4
REMARK    3  A    between atoms: S_4  and  O_7
REMARK    4  A    between atoms: C_9  and  N_10
REMARK    5  A    between atoms: N_10  and  C_11
REMARK    6  A    between atoms: C_11  and  C_12
REMARK    7  A    between atoms: C_12  and  C_13
REMARK                            x       y       z     vdW  Elec       q    Type
REMARK                         _______ _______ _______ _____ _____    ______ ____
ROOT
ATOM      1  C   UNL     1       2.580   5.095  20.184  0.00  0.00    +0.000 A 
ATOM      2  C   UNL     1       3.366   4.180  19.477  0.00  0.00    +0.000 A 
ATOM      3  C   UNL     1       4.002   4.538  18.279  0.00  0.00    +0.000 A 
ATOM      4  C   UNL     1       3.851   5.805  17.706  0.00  0.00    +0.000 A 
ATOM      5  C   UNL     1       3.045   6.745  18.401  0.00  0.00    +0.000 A 
ATOM      6  C   UNL     1       2.413   6.390  19.613  0.00  0.00    +0.000 A 
ATOM      7  C   UNL     1       1.609   7.411  20.346  0.00  0.00    +0.000 C 
ATOM      8  O   UNL     1       1.133   7.172  21.453  0.00  0.00    +0.000 OA
ATOM      9  C   UNL     1       1.406   8.748  19.774  0.00  0.00    +0.000 A 
ATOM     10  C   UNL     1       0.618   9.685  20.463  0.00  0.00    +0.000 A 
ATOM     11  C   UNL     1       0.430  10.965  19.941  0.00  0.00    +0.000 A 
ATOM     12  C   UNL     1       1.026  11.311  18.730  0.00  0.00    +0.000 A 
ATOM     13  C   UNL     1       1.805  10.378  18.044  0.00  0.00    +0.000 A 
ATOM     14  C   UNL     1       1.997   9.090  18.567  0.00  0.00    +0.000 A 
ATOM     15  C   UNL     1       2.816   8.105  17.833  0.00  0.00    +0.000 C 
ATOM     16  O   UNL     1       3.270   8.421  16.736  0.00  0.00    +0.000 OA
ENDROOT
BRANCH   1  17
ATOM     17  N   UNL     1       1.808   4.697  21.294  0.00  0.00    +0.000 N 
ATOM     18  H   UNL     1       2.311   4.137  21.986  0.00  0.00    +0.000 HD
ATOM     19  H   UNL     1       1.335   5.493  21.749  0.00  0.00    +0.000 HD
ENDBRANCH   1  17
BRANCH   2  20
ATOM     20  S   UNL     1       3.667   2.514  20.014  0.00  0.00    +0.000 S 
ATOM     21  O   UNL     1       2.744   1.669  19.288  0.00  0.00    +0.000 OA
ATOM     22  O   UNL     1       5.098   2.311  19.968  0.00  0.00    +0.000 OA
BRANCH  20  23
ATOM     23  O   UNL     1       3.210   2.421  21.559  0.00  0.00    +0.000 OA
ATOM     24  H   UNL     1       4.024   2.334  22.103  0.00  0.00    +0.000 HD
ENDBRANCH  20  23
ENDBRANCH   2  20
BRANCH   4  25
ATOM     25  N   UNL     1       4.597   6.152  16.562  0.00  0.00    +0.000 N 
ATOM     26  H   UNL     1       4.110   5.851  15.704  0.00  0.00    +0.000 HD
BRANCH  25  27
ATOM     27  C   UNL     1       6.041   5.877  16.533  0.00  0.00    +0.000 C 
BRANCH  27  28
ATOM     28  C   UNL     1       6.328   4.446  16.059  0.00  0.00    +0.000 C 
BRANCH  28  29
ATOM     29  C   UNL     1       6.641   4.407  14.579  0.00  0.00    +0.000 A 
ATOM     30  C   UNL     1       7.573   5.296  14.025  0.00  0.00    +0.000 A 
ATOM     31  C   UNL     1       7.834   5.288  12.651  0.00  0.00    +0.000 A 
ATOM     32  C   UNL     1       7.164   4.394  11.819  0.00  0.00    +0.000 A 
ATOM     33  C   UNL     1       6.234   3.506  12.358  0.00  0.00    +0.000 A 
ATOM     34  C   UNL     1       5.973   3.513  13.731  0.00  0.00    +0.000 A 
ENDBRANCH  28  29
ENDBRANCH  27  28
ENDBRANCH  25  27
ENDBRANCH   4  25
TORSDOF 7
ENDMDL
MODEL 4
REMARK VINA RESULT:      -7.4      1.835      3.236
REMARK  Name = 
REMARK  7 active torsions:
REMARK  status: ('A' for Active; 'I' for Inactive)
REMARK    1  A    between atoms: N_1  and  C_2
REMARK    2  A    between atoms: C_3  and  S_4
REMARK    3  A    between atoms: S_4  and  O_7
REMARK    4  A    between atoms: C_9  and  N_10
REMARK    5  A    between atoms: N_10  and  C_11
REMARK    6  A    between atoms: C_11  and  C_12
REMARK    7  A    between atoms: C_12  and  C_13
REMARK                            x       y       z     vdW  Elec       q    Type
REMARK                         _______ _______ _______ _____ _____    ______ ____
ROOT
ATOM      1  C   UNL     1       2.729   4.639  19.940  0.00  0.00    +0.000 A 
ATOM      2  C   UNL     1       3.496   3.707  19.233  0.00  0.00    +0.000 A 
ATOM      3  C   UNL     1       4.164   4.060  18.051  0.00  0.00    +0.000 A 
ATOM      4  C   UNL     1       4.064   5.339  17.494  0.00  0.00    +0.000 A 
ATOM      5  C   UNL     1       3.278   6.296  18.188  0.00  0.00    +0.000 A 
ATOM      6  C   UNL     1       2.615   5.945  19.385  0.00  0.00    +0.000 A 
ATOM      7  C   UNL     1       1.832   6.983  20.118  0.00  0.00    +0.000 C 
ATOM      8  O   UNL     1       1.330   6.745  21.214  0.00  0.00    +0.000 OA
ATOM      9  C   UNL     1       1.683   8.333  19.562  0.00  0.00    +0.000 A 
ATOM     10  C   UNL     1       0.915   9.287  20.251  0.00  0.00    +0.000 A 
ATOM     11  C   UNL     1       0.778  10.579  19.744  0.00  0.00    +0.000 A 
ATOM     12  C   UNL     1       1.405  10.922  18.548  0.00  0.00    +0.000 A 
ATOM     13  C   UNL     1       2.165   9.973  17.862  0.00  0.00    +0.000 A 
ATOM     14  C   UNL     1       2.305   8.672  18.369  0.00  0.00    +0.000 A 
ATOM     15  C   UNL     1       3.103   7.671  17.635  0.00  0.00    +0.000 C 
ATOM     16  O   UNL     1       3.587   7.986  16.551  0.00  0.00    +0.000 OA
ENDROOT
BRANCH   1  17
ATOM     17  N   UNL     1       1.925   4.251  21.031  0.00  0.00    +0.000 N 
ATOM     18  H   UNL     1       2.401   4.255  21.936  0.00  0.00    +0.000 HD
ATOM     19  H   UNL     1       1.048   4.792  21.083  0.00  0.00    +0.000 HD
ENDBRANCH   1  17
BRANCH   2  20
ATOM     20  S   UNL     1       3.733   2.025  19.751  0.00  0.00    +0.000 S 
ATOM     21  O   UNL     1       4.938   2.002  20.553  0.00  0.00    +0.000 OA
ATOM     22  O   UNL     1       2.461   1.558  20.257  0.00  0.00    +0.000 OA
BRANCH  20  23
ATOM     23  O   UNL     1       4.079   1.164  18.431  0.00  0.00    +0.000 OA
ATOM     24  H   UNL     1       4.526   0.340  18.725  0.00  0.00    +0.000 HD
ENDBRANCH  20  23
ENDBRANCH   2  20
BRANCH   4  25
ATOM     25  N   UNL     1       4.840   5.677  16.366  0.00  0.00    +0.000 N 
ATOM     26  H   UNL     1       4.277   6.201  15.679  0.00  0.00    +0.000 HD
BRANCH  25  27
ATOM     27  C   UNL     1       5.697   4.653  15.749  0.00  0.00    +0.000 C 
BRANCH  27  28
ATOM     28  C   UNL     1       6.332   5.164  14.449  0.00  0.00    +0.000 C 
BRANCH  28  29
ATOM     29  C   UNL     1       6.155   4.171  13.321  0.00  0.00    +0.000 A 
ATOM     30  C   UNL     1       7.268   3.677  12.626  0.00  0.00    +0.000 A 
ATOM     31  C   UNL     1       7.103   2.790  11.558  0.00  0.00    +0.000 A 
ATOM     32  C   UNL     1       5.826   2.391  11.172  0.00  0.00    +0.000 A 
ATOM     33  C   UNL     1       4.711   2.877  11.855  0.00  0.00    +0.000 A 
ATOM     34  C   UNL     1       4.874   3.763  12.923  0.00  0.00    +0.000 A 
ENDBRANCH  28  29
ENDBRANCH  27  28
ENDBRANCH  25  27
ENDBRANCH   4  25
TORSDOF 7
ENDMDL
MODEL 5
REMARK VINA RESULT:      -7.3      5.551      8.688
REMARK  Name = 
REMARK  7 active torsions:
REMARK  status: ('A' for Active; 'I' for Inactive)
REMARK    1  A    between atoms: N_1  and  C_2
REMARK    2  A    between atoms: C_3  and  S_4
REMARK    3  A    between atoms: S_4  and  O_7
REMARK    4  A    between atoms: C_9  and  N_10
REMARK    5  A    between atoms: N_10  and  C_11
REMARK    6  A    between atoms: C_11  and  C_12
REMARK    7  A    between atoms: C_12  and  C_13
REMARK                            x       y       z     vdW  Elec       q    Type
REMARK                         _______ _______ _______ _____ _____    ______ ____
ROOT
ATOM      1  C   UNL     1      -3.307  12.053  19.257  0.00  0.00    +0.000 A 
ATOM      2  C   UNL     1      -2.302  11.177  18.836  0.00  0.00    +0.000 A 
ATOM      3  C   UNL     1      -1.202  10.881  19.656  0.00  0.00    +0.000 A 
ATOM      4  C   UNL     1      -1.029  11.475  20.910  0.00  0.00    +0.000 A 
ATOM      5  C   UNL     1      -2.031  12.380  21.350  0.00  0.00    +0.000 A 
ATOM      6  C   UNL     1      -3.144  12.670  20.530  0.00  0.00    +0.000 A 
ATOM      7  C   UNL     1      -4.206  13.588  21.036  0.00  0.00    +0.000 C 
ATOM      8  O   UNL     1      -5.238  13.781  20.397  0.00  0.00    +0.000 OA
ATOM      9  C   UNL     1      -4.058  14.251  22.338  0.00  0.00    +0.000 A 
ATOM     10  C   UNL     1      -5.052  15.139  22.781  0.00  0.00    +0.000 A 
ATOM     11  C   UNL     1      -4.933  15.763  24.023  0.00  0.00    +0.000 A 
ATOM     12  C   UNL     1      -3.822  15.505  24.823  0.00  0.00    +0.000 A 
ATOM     13  C   UNL     1      -2.833  14.626  24.380  0.00  0.00    +0.000 A 
ATOM     14  C   UNL     1      -2.949  13.996  23.131  0.00  0.00    +0.000 A 
ATOM     15  C   UNL     1      -1.895  13.074  22.664  0.00  0.00    +0.000 C 
ATOM     16  O   UNL     1      -0.897  12.920  23.363  0.00  0.00    +0.000 OA
ENDROOT
BRANCH   1  17
ATOM     17  N   UNL     1      -4.322  12.482  18.378  0.00  0.00    +0.000 N 
ATOM     18  H   UNL     1      -3.987  12.956  17.536  0.00  0.00    +0.000 HD
ATOM     19  H   UNL     1      -4.972  11.720  18.128  0.00  0.00    +0.000 HD
ENDBRANCH   1  17
BRANCH   2  20
ATOM     20  S   UNL     1      -2.314  10.335  17.273  0.00  0.00    +0.000 S 
ATOM     21  O   UNL     1      -1.051   9.636  17.166  0.00  0.00    +0.000 OA
ATOM     22  O   UNL     1      -3.585   9.652  17.173  0.00  0.00    +0.000 OA
BRANCH  20  23
ATOM     23  O   UNL     1      -2.277  11.467  16.122  0.00  0.00    +0.000 OA
ATOM     24  H   UNL     1      -2.782  11.122  15.353  0.00  0.00    +0.000 HD
ENDBRANCH  20  23
ENDBRANCH   2  20
BRANCH   4  25
ATOM     25  N   UNL     1       0.032  11.064  21.743  0.00  0.00    +0.000 N 
ATOM     26  H   UNL     1       0.329  11.833  22.363  0.00  0.00    +0.000 HD
BRANCH  25  27
ATOM     27  C   UNL     1       1.162  10.328  21.157  0.00  0.00    +0.000 C 
BRANCH  27  28
ATOM     28  C   UNL     1       1.110   8.839  21.523  0.00  0.00    +0.000 C 
BRANCH  28  29
ATOM     29  C   UNL     1       1.638   7.975  20.398  0.00  0.00    +0.000 A 
ATOM     30  C   UNL     1       1.895   8.529  19.136  0.00  0.00    +0.000 A 
ATOM     31  C   UNL     1       2.345   7.725  18.085  0.00  0.00    +0.000 A 
ATOM     32  C   UNL     1       2.540   6.360  18.284  0.00  0.00    +0.000 A 
ATOM     33  C   UNL     1       2.287   5.798  19.535  0.00  0.00    +0.000 A 
ATOM     34  C   UNL     1       1.837   6.600  20.586  0.00  0.00    +0.000 A 
ENDBRANCH  28  29
ENDBRANCH  27  28
ENDBRANCH  25  27
ENDBRANCH   4  25
TORSDOF 7
ENDMDL
MODEL 6
REMARK VINA RESULT:      -7.3      2.403      4.768
REMARK  Name = 
REMARK  7 active torsions:
REMARK  status: ('A' for Active; 'I' for Inactive)
REMARK    1  A    between atoms: N_1  and  C_2
REMARK    2  A    between atoms: C_3  and  S_4
REMARK    3  A    between atoms: S_4  and  O_7
REMARK    4  A    between atoms: C_9  and  N_10
REMARK    5  A    between atoms: N_10  and  C_11
REMARK    6  A    between atoms: C_11  and  C_12
REMARK    7  A    between atoms: C_12  and  C_13
REMARK                            x       y       z     vdW  Elec       q    Type
REMARK                         _______ _______ _______ _____ _____    ______ ____
ROOT
ATOM      1  C   UNL     1       3.820   6.908  17.969  0.00  0.00    +0.000 A 
ATOM      2  C   UNL     1       4.351   5.749  18.542  0.00  0.00    +0.000 A 
ATOM      3  C   UNL     1       3.855   5.241  19.753  0.00  0.00    +0.000 A 
ATOM      4  C   UNL     1       2.842   5.886  20.470  0.00  0.00    +0.000 A 
ATOM      5  C   UNL     1       2.299   7.073  19.913  0.00  0.00    +0.000 A 
ATOM      6  C   UNL     1       2.789   7.578  18.688  0.00  0.00    +0.000 A 
ATOM      7  C   UNL     1       2.169   8.802  18.101  0.00  0.00    +0.000 C 
ATOM      8  O   UNL     1       2.496   9.211  16.989  0.00  0.00    +0.000 OA
ATOM      9  C   UNL     1       1.117   9.524  18.827  0.00  0.00    +0.000 A 
ATOM     10  C   UNL     1       0.569  10.693  18.274  0.00  0.00    +0.000 A 
ATOM     11  C   UNL     1      -0.444  11.381  18.944  0.00  0.00    +0.000 A 
ATOM     12  C   UNL     1      -0.910  10.904  20.167  0.00  0.00    +0.000 A 
ATOM     13  C   UNL     1      -0.362   9.744  20.718  0.00  0.00    +0.000 A 
ATOM     14  C   UNL     1       0.657   9.050  20.047  0.00  0.00    +0.000 A 
ATOM     15  C   UNL     1       1.237   7.829  20.638  0.00  0.00    +0.000 C 
ATOM     16  O   UNL     1       0.851   7.474  21.749  0.00  0.00    +0.000 OA
ENDROOT
BRANCH   1  17
ATOM     17  N   UNL     1       4.419   7.513  16.846  0.00  0.00    +0.000 N 
ATOM     18  H   UNL     1       4.511   6.903  16.030  0.00  0.00    +0.000 HD
ATOM     19  H   UNL     1       3.959   8.398  16.584  0.00  0.00    +0.000 HD
ENDBRANCH   1  17
BRANCH   2  20
ATOM     20  S   UNL     1       5.656   4.792  17.811  0.00  0.00    +0.000 S 
ATOM     21  O   UNL     1       5.169   4.336  16.526  0.00  0.00    +0.000 OA
ATOM     22  O   UNL     1       6.870   5.567  17.945  0.00  0.00    +0.000 OA
BRANCH  20  23
ATOM     23  O   UNL     1       5.827   3.458  18.703  0.00  0.00    +0.000 OA
ATOM     24  H   UNL     1       6.431   3.676  19.447  0.00  0.00    +0.000 HD
ENDBRANCH  20  23
ENDBRANCH   2  20
BRANCH   4  25
ATOM     25  N   UNL     1       2.303   5.280  21.624  0.00  0.00    +0.000 N 
ATOM     26  H   UNL     1       2.659   5.737  22.477  0.00  0.00    +0.000 HD
BRANCH  25  27
ATOM     27  C   UNL     1       2.280   3.813  21.722  0.00  0.00    +0.000 C 
BRANCH  27  28
ATOM     28  C   UNL     1       1.183   3.210  20.835  0.00  0.00    +0.000 C 
BRANCH  28  29
ATOM     29  C   UNL     1       1.710   2.873  19.457  0.00  0.00    +0.000 A 
ATOM     30  C   UNL     1       2.637   1.836  19.284  0.00  0.00    +0.000 A 
ATOM     31  C   UNL     1       3.156   1.549  18.018  0.00  0.00    +0.000 A 
ATOM     32  C   UNL     1       2.755   2.298  16.913  0.00  0.00    +0.000 A 
ATOM     33  C   UNL     1       1.834   3.333  17.074  0.00  0.00    +0.000 A 
ATOM     34  C   UNL     1       1.315   3.620  18.339  0.00  0.00    +0.000 A 
ENDBRANCH  28  29
ENDBRANCH  27  28
ENDBRANCH  25  27
ENDBRANCH   4  25
TORSDOF 7
ENDMDL
MODEL 7
REMARK VINA RESULT:      -7.1      1.734      3.236
REMARK  Name = 
REMARK  7 active torsions:
REMARK  status: ('A' for Active; 'I' for Inactive)
REMARK    1  A    between atoms: N_1  and  C_2
REMARK    2  A    between atoms: C_3  and  S_4
REMARK    3  A    between atoms: S_4  and  O_7
REMARK    4  A    between atoms: C_9  and  N_10
REMARK    5  A    between atoms: N_10  and  C_11
REMARK    6  A    between atoms: C_11  and  C_12
REMARK    7  A    between atoms: C_12  and  C_13
REMARK                            x       y       z     vdW  Elec       q    Type
REMARK                         _______ _______ _______ _____ _____    ______ ____
ROOT
ATOM      1  C   UNL     1       2.706   4.858  20.176  0.00  0.00    +0.000 A 
ATOM      2  C   UNL     1       3.534   3.933  19.535  0.00  0.00    +0.000 A 
ATOM      3  C   UNL     1       4.241   4.270  18.371  0.00  0.00    +0.000 A 
ATOM      4  C   UNL     1       4.124   5.527  17.768  0.00  0.00    +0.000 A 
ATOM      5  C   UNL     1       3.276   6.477  18.395  0.00  0.00    +0.000 A 
ATOM      6  C   UNL     1       2.572   6.142  19.573  0.00  0.00    +0.000 A 
ATOM      7  C   UNL     1       1.724   7.175  20.238  0.00  0.00    +0.000 C 
ATOM      8  O   UNL     1       1.182   6.954  21.319  0.00  0.00    +0.000 OA
ATOM      9  C   UNL     1       1.554   8.501  19.631  0.00  0.00    +0.000 A 
ATOM     10  C   UNL     1       0.725   9.448  20.255  0.00  0.00    +0.000 A 
ATOM     11  C   UNL     1       0.567  10.718  19.699  0.00  0.00    +0.000 A 
ATOM     12  C   UNL     1       1.235  11.044  18.521  0.00  0.00    +0.000 A 
ATOM     13  C   UNL     1       2.056  10.101  17.900  0.00  0.00    +0.000 A 
ATOM     14  C   UNL     1       2.217   8.823  18.456  0.00  0.00    +0.000 A 
ATOM     15  C   UNL     1       3.080   7.827  17.790  0.00  0.00    +0.000 C 
ATOM     16  O   UNL     1       3.600   8.124  16.718  0.00  0.00    +0.000 OA
ENDROOT
BRANCH   1  17
ATOM     17  N   UNL     1       1.868   4.478  21.244  0.00  0.00    +0.000 N 
ATOM     18  H   UNL     1       2.303   4.529  22.168  0.00  0.00    +0.000 HD
ATOM     19  H   UNL     1       0.971   4.988  21.239  0.00  0.00    +0.000 HD
ENDBRANCH   1  17
BRANCH   2  20
ATOM     20  S   UNL     1       3.804   2.277  20.118  0.00  0.00    +0.000 S 
ATOM     21  O   UNL     1       2.879   1.426  19.400  0.00  0.00    +0.000 OA
ATOM     22  O   UNL     1       5.233   2.053  20.099  0.00  0.00    +0.000 OA
BRANCH  20  23
ATOM     23  O   UNL     1       3.324   2.230  21.658  0.00  0.00    +0.000 OA
ATOM     24  H   UNL     1       2.341   2.230  21.660  0.00  0.00    +0.000 HD
ENDBRANCH  20  23
ENDBRANCH   2  20
BRANCH   4  25
ATOM     25  N   UNL     1       4.937   5.856  16.664  0.00  0.00    +0.000 N 
ATOM     26  H   UNL     1       4.901   6.869  16.474  0.00  0.00    +0.000 HD
BRANCH  25  27
ATOM     27  C   UNL     1       4.862   5.037  15.446  0.00  0.00    +0.000 C 
BRANCH  27  28
ATOM     28  C   UNL     1       6.197   5.036  14.689  0.00  0.00    +0.000 C 
BRANCH  28  29
ATOM     29  C   UNL     1       6.126   4.174  13.447  0.00  0.00    +0.000 A 
ATOM     30  C   UNL     1       4.896   3.680  12.992  0.00  0.00    +0.000 A 
ATOM     31  C   UNL     1       4.833   2.851  11.868  0.00  0.00    +0.000 A 
ATOM     32  C   UNL     1       6.000   2.505  11.190  0.00  0.00    +0.000 A 
ATOM     33  C   UNL     1       7.230   2.989  11.634  0.00  0.00    +0.000 A 
ATOM     34  C   UNL     1       7.294   3.818  12.757  0.00  0.00    +0.000 A 
ENDBRANCH  28  29
ENDBRANCH  27  28
ENDBRANCH  25  27
ENDBRANCH   4  25
TORSDOF 7
ENDMDL
MODEL 8
REMARK VINA RESULT:      -7.0      7.460     10.333
REMARK  Name = 
REMARK  7 active torsions:
REMARK  status: ('A' for Active; 'I' for Inactive)
REMARK    1  A    between atoms: N_1  and  C_2
REMARK    2  A    between atoms: C_3  and  S_4
REMARK    3  A    between atoms: S_4  and  O_7
REMARK    4  A    between atoms: C_9  and  N_10
REMARK    5  A    between atoms: N_10  and  C_11
REMARK    6  A    between atoms: C_11  and  C_12
REMARK    7  A    between atoms: C_12  and  C_13
REMARK                            x       y       z     vdW  Elec       q    Type
REMARK                         _______ _______ _______ _____ _____    ______ ____
ROOT
ATOM      1  C   UNL     1       7.852  12.506  22.538  0.00  0.00    +0.000 A 
ATOM      2  C   UNL     1       6.974  13.379  23.188  0.00  0.00    +0.000 A 
ATOM      3  C   UNL     1       6.665  14.638  22.649  0.00  0.00    +0.000 A 
ATOM      4  C   UNL     1       7.248  15.103  21.466  0.00  0.00    +0.000 A 
ATOM      5  C   UNL     1       8.153  14.238  20.798  0.00  0.00    +0.000 A 
ATOM      6  C   UNL     1       8.456  12.966  21.333  0.00  0.00    +0.000 A 
ATOM      7  C   UNL     1       9.375  12.058  20.586  0.00  0.00    +0.000 C 
ATOM      8  O   UNL     1       9.579  10.907  20.965  0.00  0.00    +0.000 OA
ATOM      9  C   UNL     1      10.026  12.510  19.350  0.00  0.00    +0.000 A 
ATOM     10  C   UNL     1      10.915  11.653  18.680  0.00  0.00    +0.000 A 
ATOM     11  C   UNL     1      11.527  12.063  17.496  0.00  0.00    +0.000 A 
ATOM     12  C   UNL     1      11.256  13.328  16.979  0.00  0.00    +0.000 A 
ATOM     13  C   UNL     1      10.376  14.180  17.648  0.00  0.00    +0.000 A 
ATOM     14  C   UNL     1       9.758  13.772  18.840  0.00  0.00    +0.000 A 
ATOM     15  C   UNL     1       8.835  14.681  19.546  0.00  0.00    +0.000 C 
ATOM     16  O   UNL     1       8.670  15.813  19.100  0.00  0.00    +0.000 OA
ENDROOT
BRANCH   1  17
ATOM     17  N   UNL     1       8.293  11.317  23.152  0.00  0.00    +0.000 N 
ATOM     18  H   UNL     1       8.955  11.453  23.920  0.00  0.00    +0.000 HD
ATOM     19  H   UNL     1       7.510  10.717  23.454  0.00  0.00    +0.000 HD
ENDBRANCH   1  17
BRANCH   2  20
ATOM     20  S   UNL     1       6.147  12.997  24.712  0.00  0.00    +0.000 S 
ATOM     21  O   UNL     1       7.174  12.873  25.724  0.00  0.00    +0.000 OA
ATOM     22  O   UNL     1       5.048  13.928  24.838  0.00  0.00    +0.000 OA
BRANCH  20  23
ATOM     23  O   UNL     1       5.518  11.518  24.555  0.00  0.00    +0.000 OA
ATOM     24  H   UNL     1       5.344  11.174  25.459  0.00  0.00    +0.000 HD
ENDBRANCH  20  23
ENDBRANCH   2  20
BRANCH   4  25
ATOM     25  N   UNL     1       6.824  16.326  20.907  0.00  0.00    +0.000 N 
ATOM     26  H   UNL     1       7.180  17.122  21.458  0.00  0.00    +0.000 HD
BRANCH  25  27
ATOM     27  C   UNL     1       5.418  16.485  20.507  0.00  0.00    +0.000 C 
BRANCH  27  28
ATOM     28  C   UNL     1       5.134  15.788  19.170  0.00  0.00    +0.000 C 
BRANCH  28  29
ATOM     29  C   UNL     1       4.037  14.755  19.308  0.00  0.00    +0.000 A 
ATOM     30  C   UNL     1       3.478  14.154  18.172  0.00  0.00    +0.000 A 
ATOM     31  C   UNL     1       2.437  13.229  18.295  0.00  0.00    +0.000 A 
ATOM     32  C   UNL     1       1.942  12.899  19.555  0.00  0.00    +0.000 A 
ATOM     33  C   UNL     1       2.489  13.492  20.693  0.00  0.00    +0.000 A 
ATOM     34  C   UNL     1       3.530  14.416  20.571  0.00  0.00    +0.000 A 
ENDBRANCH  28  29
ENDBRANCH  27  28
ENDBRANCH  25  27
ENDBRANCH   4  25
TORSDOF 7
ENDMDL
MODEL 9
REMARK VINA RESULT:      -6.9      5.765      8.695
REMARK  Name = 
REMARK  7 active torsions:
REMARK  status: ('A' for Active; 'I' for Inactive)
REMARK    1  A    between atoms: N_1  and  C_2
REMARK    2  A    between atoms: C_3  and  S_4
REMARK    3  A    between atoms: S_4  and  O_7
REMARK    4  A    between atoms: C_9  and  N_10
REMARK    5  A    between atoms: N_10  and  C_11
REMARK    6  A    between atoms: C_11  and  C_12
REMARK    7  A    between atoms: C_12  and  C_13
REMARK                            x       y       z     vdW  Elec       q    Type
REMARK                         _______ _______ _______ _____ _____    ______ ____
ROOT
ATOM      1  C   UNL     1      -3.776  12.446  19.443  0.00  0.00    +0.000 A 
ATOM      2  C   UNL     1      -2.962  11.653  18.628  0.00  0.00    +0.000 A 
ATOM      3  C   UNL     1      -1.650  11.328  19.004  0.00  0.00    +0.000 A 
ATOM      4  C   UNL     1      -1.073  11.812  20.182  0.00  0.00    +0.000 A 
ATOM      5  C   UNL     1      -1.878  12.631  21.017  0.00  0.00    +0.000 A 
ATOM      6  C   UNL     1      -3.203  12.949  20.646  0.00  0.00    +0.000 A 
ATOM      7  C   UNL     1      -4.042  13.774  21.564  0.00  0.00    +0.000 C 
ATOM      8  O   UNL     1      -5.230  13.982  21.325  0.00  0.00    +0.000 OA
ATOM      9  C   UNL     1      -3.473  14.320  22.802  0.00  0.00    +0.000 A 
ATOM     10  C   UNL     1      -4.270  15.122  23.637  0.00  0.00    +0.000 A 
ATOM     11  C   UNL     1      -3.748  15.634  24.825  0.00  0.00    +0.000 A 
ATOM     12  C   UNL     1      -2.432  15.349  25.182  0.00  0.00    +0.000 A 
ATOM     13  C   UNL     1      -1.640  14.555  24.350  0.00  0.00    +0.000 A 
ATOM     14  C   UNL     1      -2.162  14.038  23.154  0.00  0.00    +0.000 A 
ATOM     15  C   UNL     1      -1.317  13.206  22.275  0.00  0.00    +0.000 C 
ATOM     16  O   UNL     1      -0.142  13.030  22.585  0.00  0.00    +0.000 OA
ENDROOT
BRANCH   1  17
ATOM     17  N   UNL     1      -5.030  12.912  18.998  0.00  0.00    +0.000 N 
ATOM     18  H   UNL     1      -5.549  12.251  18.414  0.00  0.00    +0.000 HD
ATOM     19  H   UNL     1      -5.621  13.249  19.773  0.00  0.00    +0.000 HD
ENDBRANCH   1  17
BRANCH   2  20
ATOM     20  S   UNL     1      -3.489  10.959  17.081  0.00  0.00    +0.000 S 
ATOM     21  O   UNL     1      -3.251   9.534  17.161  0.00  0.00    +0.000 OA
ATOM     22  O   UNL     1      -4.797  11.508  16.798  0.00  0.00    +0.000 OA
BRANCH  20  23
ATOM     23  O   UNL     1      -2.477  11.500  15.946  0.00  0.00    +0.000 OA
ATOM     24  H   UNL     1      -1.580  11.540  16.345  0.00  0.00    +0.000 HD
ENDBRANCH  20  23
ENDBRANCH   2  20
BRANCH   4  25
ATOM     25  N   UNL     1       0.208  11.369  20.571  0.00  0.00    +0.000 N 
ATOM     26  H   UNL     1       0.794  12.164  20.868  0.00  0.00    +0.000 HD
BRANCH  25  27
ATOM     27  C   UNL     1       0.927  10.411  19.719  0.00  0.00    +0.000 C 
BRANCH  27  28
ATOM     28  C   UNL     1       0.966   9.015  20.356  0.00  0.00    +0.000 C 
BRANCH  28  29
ATOM     29  C   UNL     1       1.839   8.069  19.560  0.00  0.00    +0.000 A 
ATOM     30  C   UNL     1       2.235   6.839  20.103  0.00  0.00    +0.000 A 
ATOM     31  C   UNL     1       3.074   5.982  19.386  0.00  0.00    +0.000 A 
ATOM     32  C   UNL     1       3.528   6.347  18.120  0.00  0.00    +0.000 A 
ATOM     33  C   UNL     1       3.142   7.569  17.570  0.00  0.00    +0.000 A 
ATOM     34  C   UNL     1       2.303   8.426  18.286  0.00  0.00    +0.000 A 
ENDBRANCH  28  29
ENDBRANCH  27  28
ENDBRANCH  25  27
ENDBRANCH   4  25
TORSDOF 7
ENDMDL
