MODEL 1
REMARK VINA RESULT:      -6.4      0.000      0.000
REMARK  Name = 
REMARK  8 active torsions:
REMARK  status: ('A' for Active; 'I' for Inactive)
REMARK    1  A    between atoms: C_1  and  C_2
REMARK    2  A    between atoms: C_2  and  O_3
REMARK    3  A    between atoms: O_3  and  C_4
REMARK    4  A    between atoms: C_4  and  C_5
REMARK    5  A    between atoms: C_5  and  N_6
REMARK    6  A    between atoms: C_8  and  C_9
REMARK    7  A    between atoms: C_9  and  C_10
REMARK    8  A    between atoms: N_22  and  C_23
REMARK                            x       y       z     vdW  Elec       q    Type
REMARK                         _______ _______ _______ _____ _____    ______ ____
ROOT
ATOM      1  N   UNL     1      -4.808  11.665  18.482  0.00  0.00    +0.000 N 
ATOM      2  N   UNL     1      -4.709  10.763  17.482  0.00  0.00    +0.000 NA
ATOM      3  C   UNL     1      -3.392  10.627  17.291  0.00  0.00    +0.000 A 
ATOM      4  C   UNL     1      -2.656  11.398  18.222  0.00  0.00    +0.000 A 
ATOM      5  N   UNL     1      -1.328  11.522  18.400  0.00  0.00    +0.000 NA
ATOM      6  C   UNL     1      -0.956  12.306  19.415  0.00  0.00    +0.000 A 
ATOM      7  N   UNL     1       0.384  12.511  19.627  0.00  0.00    +0.000 N 
ATOM      8  C   UNL     1       1.403  11.784  18.878  0.00  0.00    +0.000 C 
ATOM      9  C   UNL     1       2.370  12.778  18.197  0.00  0.00    +0.000 C 
ATOM     10  N   UNL     1       2.963  13.749  19.139  0.00  0.00    +0.000 NA
ATOM     11  C   UNL     1       1.880  14.461  19.850  0.00  0.00    +0.000 C 
ATOM     12  C   UNL     1       0.871  13.524  20.562  0.00  0.00    +0.000 C 
ATOM     13  N   UNL     1      -1.827  12.915  20.239  0.00  0.00    +0.000 NA
ATOM     14  C   UNL     1      -3.169  12.820  20.073  0.00  0.00    +0.000 A 
ATOM     15  N   UNL     1      -4.018  13.514  20.937  0.00  0.00    +0.000 N 
ATOM     16  C   UNL     1      -3.599  12.042  19.007  0.00  0.00    +0.000 A 
ATOM     17  H   UNL     1       3.517  14.424  18.614  0.00  0.00    +0.000 HD
ATOM     18  H   UNL     1      -4.927  13.750  20.582  0.00  0.00    +0.000 HD
ENDROOT
BRANCH  15  19
ATOM     19  C   UNL     1      -3.892  13.713  22.324  0.00  0.00    +0.000 A 
ATOM     20  C   UNL     1      -3.721  15.017  22.811  0.00  0.00    +0.000 A 
ATOM     21  C   UNL     1      -3.569  15.258  24.180  0.00  0.00    +0.000 A 
ATOM     22  C   UNL     1      -3.590  14.201  25.081  0.00  0.00    +0.000 A 
ATOM     23  C   UNL     1      -3.747  12.899  24.615  0.00  0.00    +0.000 A 
ATOM     24  C   UNL     1      -3.878  12.657  23.244  0.00  0.00    +0.000 A 
ENDBRANCH  15  19
BRANCH   3  25
ATOM     25  C   UNL     1      -2.889   9.702  16.238  0.00  0.00    +0.000 C 
ATOM     26  C   UNL     1      -2.965  10.292  14.838  0.00  0.00    +0.000 C 
ENDBRANCH   3  25
BRANCH   1  27
ATOM     27  C   UNL     1      -6.144  12.073  18.883  0.00  0.00    +0.000 C 
BRANCH  27  28
ATOM     28  C   UNL     1      -6.763  11.098  19.881  0.00  0.00    +0.000 C 
BRANCH  28  29
ATOM     29  O   UNL     1      -6.512  11.543  21.211  0.00  0.00    +0.000 OA
BRANCH  29  31
ATOM     30  C   UNL     1      -7.544  12.344  23.201  0.00  0.00    +0.000 C 
ATOM     31  C   UNL     1      -7.490  12.456  21.689  0.00  0.00    +0.000 C 
ENDBRANCH  29  31
ENDBRANCH  28  29
ENDBRANCH  27  28
ENDBRANCH   1  27
TORSDOF 6
ENDMDL
MODEL 2
REMARK VINA RESULT:      -6.1      2.229      6.211
REMARK  Name = 
REMARK  8 active torsions:
REMARK  status: ('A' for Active; 'I' for Inactive)
REMARK    1  A    between atoms: C_1  and  C_2
REMARK    2  A    between atoms: C_2  and  O_3
REMARK    3  A    between atoms: O_3  and  C_4
REMARK    4  A    between atoms: C_4  and  C_5
REMARK    5  A    between atoms: C_5  and  N_6
REMARK    6  A    between atoms: C_8  and  C_9
REMARK    7  A    between atoms: C_9  and  C_10
REMARK    8  A    between atoms: N_22  and  C_23
REMARK                            x       y       z     vdW  Elec       q    Type
REMARK                         _______ _______ _______ _____ _____    ______ ____
ROOT
ATOM      1  N   UNL     1      -3.552  11.430  17.162  0.00  0.00    +0.000 N 
ATOM      2  N   UNL     1      -4.820  11.458  16.700  0.00  0.00    +0.000 NA
ATOM      3  C   UNL     1      -5.545  11.850  17.753  0.00  0.00    +0.000 A 
ATOM      4  C   UNL     1      -4.720  12.135  18.867  0.00  0.00    +0.000 A 
ATOM      5  N   UNL     1      -5.033  12.585  20.096  0.00  0.00    +0.000 NA
ATOM      6  C   UNL     1      -3.997  12.799  20.910  0.00  0.00    +0.000 A 
ATOM      7  N   UNL     1      -4.247  13.217  22.193  0.00  0.00    +0.000 N 
ATOM      8  C   UNL     1      -5.589  13.573  22.639  0.00  0.00    +0.000 C 
ATOM      9  C   UNL     1      -5.968  12.748  23.890  0.00  0.00    +0.000 C 
ATOM     10  N   UNL     1      -4.975  12.856  24.980  0.00  0.00    +0.000 NA
ATOM     11  C   UNL     1      -3.645  12.465  24.466  0.00  0.00    +0.000 C 
ATOM     12  C   UNL     1      -3.198  13.256  23.210  0.00  0.00    +0.000 C 
ATOM     13  N   UNL     1      -2.716  12.620  20.542  0.00  0.00    +0.000 NA
ATOM     14  C   UNL     1      -2.373  12.155  19.316  0.00  0.00    +0.000 A 
ATOM     15  N   UNL     1      -1.026  11.947  19.013  0.00  0.00    +0.000 N 
ATOM     16  C   UNL     1      -3.423  11.884  18.450  0.00  0.00    +0.000 A 
ATOM     17  H   UNL     1      -5.241  12.224  25.733  0.00  0.00    +0.000 HD
ATOM     18  H   UNL     1      -0.823  11.267  18.303  0.00  0.00    +0.000 HD
ENDROOT
BRANCH  15  19
ATOM     19  C   UNL     1       0.087  12.732  19.367  0.00  0.00    +0.000 A 
ATOM     20  C   UNL     1       0.959  12.265  20.361  0.00  0.00    +0.000 A 
ATOM     21  C   UNL     1       2.064  13.023  20.761  0.00  0.00    +0.000 A 
ATOM     22  C   UNL     1       2.316  14.254  20.169  0.00  0.00    +0.000 A 
ATOM     23  C   UNL     1       1.456  14.739  19.189  0.00  0.00    +0.000 A 
ATOM     24  C   UNL     1       0.338  13.990  18.805  0.00  0.00    +0.000 A 
ENDBRANCH  15  19
BRANCH   3  25
ATOM     25  C   UNL     1      -7.022  11.988  17.624  0.00  0.00    +0.000 C 
ATOM     26  C   UNL     1      -7.484  13.436  17.554  0.00  0.00    +0.000 C 
ENDBRANCH   3  25
BRANCH   1  27
ATOM     27  C   UNL     1      -2.518  10.974  16.248  0.00  0.00    +0.000 C 
BRANCH  27  28
ATOM     28  C   UNL     1      -2.943   9.724  15.483  0.00  0.00    +0.000 C 
BRANCH  28  29
ATOM     29  O   UNL     1      -2.927   9.984  14.082  0.00  0.00    +0.000 OA
BRANCH  29  31
ATOM     30  C   UNL     1      -4.056   9.795  11.995  0.00  0.00    +0.000 C 
ATOM     31  C   UNL     1      -4.221   9.956  13.494  0.00  0.00    +0.000 C 
ENDBRANCH  29  31
ENDBRANCH  28  29
ENDBRANCH  27  28
ENDBRANCH   1  27
TORSDOF 6
ENDMDL
MODEL 3
REMARK VINA RESULT:      -5.9      2.601      5.676
REMARK  Name = 
REMARK  8 active torsions:
REMARK  status: ('A' for Active; 'I' for Inactive)
REMARK    1  A    between atoms: C_1  and  C_2
REMARK    2  A    between atoms: C_2  and  O_3
REMARK    3  A    between atoms: O_3  and  C_4
REMARK    4  A    between atoms: C_4  and  C_5
REMARK    5  A    between atoms: C_5  and  N_6
REMARK    6  A    between atoms: C_8  and  C_9
REMARK    7  A    between atoms: C_9  and  C_10
REMARK    8  A    between atoms: N_22  and  C_23
REMARK                            x       y       z     vdW  Elec       q    Type
REMARK                         _______ _______ _______ _____ _____    ______ ____
ROOT
ATOM      1  N   UNL     1      -0.414  10.639  19.025  0.00  0.00    +0.000 N 
ATOM      2  N   UNL     1      -0.668  10.040  17.842  0.00  0.00    +0.000 NA
ATOM      3  C   UNL     1      -1.958  10.308  17.609  0.00  0.00    +0.000 A 
ATOM      4  C   UNL     1      -2.501  11.137  18.618  0.00  0.00    +0.000 A 
ATOM      5  N   UNL     1      -3.733  11.663  18.750  0.00  0.00    +0.000 NA
ATOM      6  C   UNL     1      -3.909  12.455  19.810  0.00  0.00    +0.000 A 
ATOM      7  N   UNL     1      -5.152  12.990  20.030  0.00  0.00    +0.000 N 
ATOM      8  C   UNL     1      -6.236  12.842  19.064  0.00  0.00    +0.000 C 
ATOM      9  C   UNL     1      -7.473  12.218  19.748  0.00  0.00    +0.000 C 
ATOM     10  N   UNL     1      -7.903  12.955  20.955  0.00  0.00    +0.000 NA
ATOM     11  C   UNL     1      -6.768  13.052  21.896  0.00  0.00    +0.000 C 
ATOM     12  C   UNL     1      -5.489  13.674  21.277  0.00  0.00    +0.000 C 
ATOM     13  N   UNL     1      -2.930  12.750  20.684  0.00  0.00    +0.000 NA
ATOM     14  C   UNL     1      -1.685  12.223  20.584  0.00  0.00    +0.000 A 
ATOM     15  N   UNL     1      -0.728  12.535  21.551  0.00  0.00    +0.000 N 
ATOM     16  C   UNL     1      -1.470  11.365  19.514  0.00  0.00    +0.000 A 
ATOM     17  H   UNL     1      -8.663  12.443  21.401  0.00  0.00    +0.000 HD
ATOM     18  H   UNL     1       0.010  11.868  21.687  0.00  0.00    +0.000 HD
ENDROOT
BRANCH  15  19
ATOM     19  C   UNL     1      -0.490  13.766  22.189  0.00  0.00    +0.000 A 
ATOM     20  C   UNL     1      -1.162  14.052  23.387  0.00  0.00    +0.000 A 
ATOM     21  C   UNL     1      -0.974  15.272  24.043  0.00  0.00    +0.000 A 
ATOM     22  C   UNL     1      -0.109  16.221  23.515  0.00  0.00    +0.000 A 
ATOM     23  C   UNL     1       0.558  15.961  22.322  0.00  0.00    +0.000 A 
ATOM     24  C   UNL     1       0.353  14.748  21.655  0.00  0.00    +0.000 A 
ENDBRANCH  15  19
BRANCH   3  25
ATOM     25  C   UNL     1      -2.608   9.789  16.373  0.00  0.00    +0.000 C 
ATOM     26  C   UNL     1      -2.871  10.872  15.336  0.00  0.00    +0.000 C 
ENDBRANCH   3  25
BRANCH   1  27
ATOM     27  C   UNL     1       0.916  10.473  19.586  0.00  0.00    +0.000 C 
BRANCH  27  28
ATOM     28  C   UNL     1       1.183   9.030  20.005  0.00  0.00    +0.000 C 
BRANCH  28  29
ATOM     29  O   UNL     1       0.390   8.702  21.143  0.00  0.00    +0.000 OA
BRANCH  29  31
ATOM     30  C   UNL     1      -0.196   9.566  23.281  0.00  0.00    +0.000 C 
ATOM     31  C   UNL     1       0.944   9.171  22.364  0.00  0.00    +0.000 C 
ENDBRANCH  29  31
ENDBRANCH  28  29
ENDBRANCH  27  28
ENDBRANCH   1  27
TORSDOF 6
ENDMDL
MODEL 4
REMARK VINA RESULT:      -5.9      1.270      1.827
REMARK  Name = 
REMARK  8 active torsions:
REMARK  status: ('A' for Active; 'I' for Inactive)
REMARK    1  A    between atoms: C_1  and  C_2
REMARK    2  A    between atoms: C_2  and  O_3
REMARK    3  A    between atoms: O_3  and  C_4
REMARK    4  A    between atoms: C_4  and  C_5
REMARK    5  A    between atoms: C_5  and  N_6
REMARK    6  A    between atoms: C_8  and  C_9
REMARK    7  A    between atoms: C_9  and  C_10
REMARK    8  A    between atoms: N_22  and  C_23
REMARK                            x       y       z     vdW  Elec       q    Type
REMARK                         _______ _______ _______ _____ _____    ______ ____
ROOT
ATOM      1  N   UNL     1      -4.988  11.818  17.678  0.00  0.00    +0.000 N 
ATOM      2  N   UNL     1      -4.687  11.165  16.535  0.00  0.00    +0.000 NA
ATOM      3  C   UNL     1      -3.360  11.007  16.587  0.00  0.00    +0.000 A 
ATOM      4  C   UNL     1      -2.830  11.504  17.802  0.00  0.00    +0.000 A 
ATOM      5  N   UNL     1      -1.568  11.512  18.269  0.00  0.00    +0.000 NA
ATOM      6  C   UNL     1      -1.412  12.021  19.493  0.00  0.00    +0.000 A 
ATOM      7  N   UNL     1      -0.145  12.100  20.013  0.00  0.00    +0.000 N 
ATOM      8  C   UNL     1       1.004  11.511  19.334  0.00  0.00    +0.000 C 
ATOM      9  C   UNL     1       2.097  12.583  19.116  0.00  0.00    +0.000 C 
ATOM     10  N   UNL     1       2.485  13.278  20.361  0.00  0.00    +0.000 NA
ATOM     11  C   UNL     1       1.281  13.865  20.986  0.00  0.00    +0.000 C 
ATOM     12  C   UNL     1       0.142  12.844  21.238  0.00  0.00    +0.000 C 
ATOM     13  N   UNL     1      -2.433  12.470  20.244  0.00  0.00    +0.000 NA
ATOM     14  C   UNL     1      -3.711  12.487  19.794  0.00  0.00    +0.000 A 
ATOM     15  N   UNL     1      -4.718  13.009  20.608  0.00  0.00    +0.000 N 
ATOM     16  C   UNL     1      -3.913  12.000  18.510  0.00  0.00    +0.000 A 
ATOM     17  H   UNL     1       3.139  14.025  20.132  0.00  0.00    +0.000 HD
ATOM     18  H   UNL     1      -5.533  13.368  20.143  0.00  0.00    +0.000 HD
ENDROOT
BRANCH  15  19
ATOM     19  C   UNL     1      -4.883  12.877  21.999  0.00  0.00    +0.000 A 
ATOM     20  C   UNL     1      -3.758  12.623  22.796  0.00  0.00    +0.000 A 
ATOM     21  C   UNL     1      -3.879  12.461  24.180  0.00  0.00    +0.000 A 
ATOM     22  C   UNL     1      -5.125  12.556  24.786  0.00  0.00    +0.000 A 
ATOM     23  C   UNL     1      -6.254  12.796  24.010  0.00  0.00    +0.000 A 
ATOM     24  C   UNL     1      -6.135  12.936  22.624  0.00  0.00    +0.000 A 
ENDBRANCH  15  19
BRANCH   3  25
ATOM     25  C   UNL     1      -2.652  10.323  15.469  0.00  0.00    +0.000 C 
ATOM     26  C   UNL     1      -3.543  10.076  14.261  0.00  0.00    +0.000 C 
ENDBRANCH   3  25
BRANCH   1  27
ATOM     27  C   UNL     1      -6.376  12.193  17.887  0.00  0.00    +0.000 C 
BRANCH  27  28
ATOM     28  C   UNL     1      -6.964  11.536  19.133  0.00  0.00    +0.000 C 
BRANCH  28  29
ATOM     29  O   UNL     1      -6.797  10.123  19.059  0.00  0.00    +0.000 OA
BRANCH  29  31
ATOM     30  C   UNL     1      -7.035   7.963  20.031  0.00  0.00    +0.000 C 
ATOM     31  C   UNL     1      -7.397   9.432  20.146  0.00  0.00    +0.000 C 
ENDBRANCH  29  31
ENDBRANCH  28  29
ENDBRANCH  27  28
ENDBRANCH   1  27
TORSDOF 6
ENDMDL
MODEL 5
REMARK VINA RESULT:      -5.8      1.720      2.137
REMARK  Name = 
REMARK  8 active torsions:
REMARK  status: ('A' for Active; 'I' for Inactive)
REMARK    1  A    between atoms: C_1  and  C_2
REMARK    2  A    between atoms: C_2  and  O_3
REMARK    3  A    between atoms: O_3  and  C_4
REMARK    4  A    between atoms: C_4  and  C_5
REMARK    5  A    between atoms: C_5  and  N_6
REMARK    6  A    between atoms: C_8  and  C_9
REMARK    7  A    between atoms: C_9  and  C_10
REMARK    8  A    between atoms: N_22  and  C_23
REMARK                            x       y       z     vdW  Elec       q    Type
REMARK                         _______ _______ _______ _____ _____    ______ ____
ROOT
ATOM      1  N   UNL     1      -5.075  11.958  17.578  0.00  0.00    +0.000 N 
ATOM      2  N   UNL     1      -4.579  11.119  16.643  0.00  0.00    +0.000 NA
ATOM      3  C   UNL     1      -3.310  10.923  17.018  0.00  0.00    +0.000 A 
ATOM      4  C   UNL     1      -3.025  11.588  18.234  0.00  0.00    +0.000 A 
ATOM      5  N   UNL     1      -1.898  11.625  18.968  0.00  0.00    +0.000 NA
ATOM      6  C   UNL     1      -1.976  12.318  20.106  0.00  0.00    +0.000 A 
ATOM      7  N   UNL     1      -0.852  12.432  20.883  0.00  0.00    +0.000 N 
ATOM      8  C   UNL     1       0.373  11.700  20.579  0.00  0.00    +0.000 C 
ATOM      9  C   UNL     1       1.560  12.682  20.458  0.00  0.00    +0.000 C 
ATOM     10  N   UNL     1       1.717  13.553  21.641  0.00  0.00    +0.000 NA
ATOM     11  C   UNL     1       0.450  14.277  21.882  0.00  0.00    +0.000 C 
ATOM     12  C   UNL     1      -0.787  13.353  22.017  0.00  0.00    +0.000 C 
ATOM     13  N   UNL     1      -3.102  12.919  20.531  0.00  0.00    +0.000 NA
ATOM     14  C   UNL     1      -4.246  12.911  19.805  0.00  0.00    +0.000 A 
ATOM     15  N   UNL     1      -5.367  13.594  20.282  0.00  0.00    +0.000 N 
ATOM     16  C   UNL     1      -4.197  12.231  18.596  0.00  0.00    +0.000 A 
ATOM     17  H   UNL     1       2.457  14.229  21.458  0.00  0.00    +0.000 HD
ATOM     18  H   UNL     1      -6.032  13.903  19.596  0.00  0.00    +0.000 HD
ENDROOT
BRANCH  15  19
ATOM     19  C   UNL     1      -5.841  13.693  21.602  0.00  0.00    +0.000 A 
ATOM     20  C   UNL     1      -5.511  14.827  22.360  0.00  0.00    +0.000 A 
ATOM     21  C   UNL     1      -5.941  14.956  23.684  0.00  0.00    +0.000 A 
ATOM     22  C   UNL     1      -6.711  13.959  24.268  0.00  0.00    +0.000 A 
ATOM     23  C   UNL     1      -7.039  12.822  23.535  0.00  0.00    +0.000 A 
ATOM     24  C   UNL     1      -6.590  12.683  22.218  0.00  0.00    +0.000 A 
ENDBRANCH  15  19
BRANCH   3  25
ATOM     25  C   UNL     1      -2.427  10.042  16.204  0.00  0.00    +0.000 C 
ATOM     26  C   UNL     1      -2.809  10.007  14.732  0.00  0.00    +0.000 C 
ENDBRANCH   3  25
BRANCH   1  27
ATOM     27  C   UNL     1      -6.444  12.413  17.407  0.00  0.00    +0.000 C 
BRANCH  27  28
ATOM     28  C   UNL     1      -7.405  11.699  18.354  0.00  0.00    +0.000 C 
BRANCH  28  29
ATOM     29  O   UNL     1      -6.856  10.443  18.744  0.00  0.00    +0.000 OA
BRANCH  29  31
ATOM     30  C   UNL     1      -7.293   8.541  20.107  0.00  0.00    +0.000 C 
ATOM     31  C   UNL     1      -7.227  10.055  20.060  0.00  0.00    +0.000 C 
ENDBRANCH  29  31
ENDBRANCH  28  29
ENDBRANCH  27  28
ENDBRANCH   1  27
TORSDOF 6
ENDMDL
MODEL 6
REMARK VINA RESULT:      -5.8      2.609      5.654
REMARK  Name = 
REMARK  8 active torsions:
REMARK  status: ('A' for Active; 'I' for Inactive)
REMARK    1  A    between atoms: C_1  and  C_2
REMARK    2  A    between atoms: C_2  and  O_3
REMARK    3  A    between atoms: O_3  and  C_4
REMARK    4  A    between atoms: C_4  and  C_5
REMARK    5  A    between atoms: C_5  and  N_6
REMARK    6  A    between atoms: C_8  and  C_9
REMARK    7  A    between atoms: C_9  and  C_10
REMARK    8  A    between atoms: N_22  and  C_23
REMARK                            x       y       z     vdW  Elec       q    Type
REMARK                         _______ _______ _______ _____ _____    ______ ____
ROOT
ATOM      1  N   UNL     1      -0.495  10.783  18.906  0.00  0.00    +0.000 N 
ATOM      2  N   UNL     1      -0.802  10.125  17.768  0.00  0.00    +0.000 NA
ATOM      3  C   UNL     1      -2.109  10.352  17.600  0.00  0.00    +0.000 A 
ATOM      4  C   UNL     1      -2.614  11.214  18.602  0.00  0.00    +0.000 A 
ATOM      5  N   UNL     1      -3.849  11.717  18.783  0.00  0.00    +0.000 NA
ATOM      6  C   UNL     1      -3.983  12.551  19.817  0.00  0.00    +0.000 A 
ATOM      7  N   UNL     1      -5.225  13.068  20.086  0.00  0.00    +0.000 N 
ATOM      8  C   UNL     1      -6.358  12.851  19.193  0.00  0.00    +0.000 C 
ATOM      9  C   UNL     1      -7.538  12.231  19.976  0.00  0.00    +0.000 C 
ATOM     10  N   UNL     1      -7.916  13.011  21.172  0.00  0.00    +0.000 NA
ATOM     11  C   UNL     1      -6.730  13.178  22.039  0.00  0.00    +0.000 C 
ATOM     12  C   UNL     1      -5.506  13.800  21.320  0.00  0.00    +0.000 C 
ATOM     13  N   UNL     1      -2.963  12.909  20.617  0.00  0.00    +0.000 NA
ATOM     14  C   UNL     1      -1.713  12.406  20.467  0.00  0.00    +0.000 A 
ATOM     15  N   UNL     1      -0.709  12.784  21.361  0.00  0.00    +0.000 N 
ATOM     16  C   UNL     1      -1.538  11.506  19.425  0.00  0.00    +0.000 A 
ATOM     17  H   UNL     1      -8.634  12.503  21.685  0.00  0.00    +0.000 HD
ATOM     18  H   UNL     1       0.052  12.140  21.482  0.00  0.00    +0.000 HD
ENDROOT
BRANCH  15  19
ATOM     19  C   UNL     1      -0.466  14.047  21.929  0.00  0.00    +0.000 A 
ATOM     20  C   UNL     1       0.292  14.982  21.210  0.00  0.00    +0.000 A 
ATOM     21  C   UNL     1       0.577  16.242  21.747  0.00  0.00    +0.000 A 
ATOM     22  C   UNL     1       0.104  16.586  23.006  0.00  0.00    +0.000 A 
ATOM     23  C   UNL     1      -0.640  15.667  23.740  0.00  0.00    +0.000 A 
ATOM     24  C   UNL     1      -0.907  14.400  23.211  0.00  0.00    +0.000 A 
ENDBRANCH  15  19
BRANCH   3  25
ATOM     25  C   UNL     1      -2.817   9.763  16.429  0.00  0.00    +0.000 C 
ATOM     26  C   UNL     1      -2.873  10.700  15.231  0.00  0.00    +0.000 C 
ENDBRANCH   3  25
BRANCH   1  27
ATOM     27  C   UNL     1       0.870  10.673  19.394  0.00  0.00    +0.000 C 
BRANCH  27  28
ATOM     28  C   UNL     1       0.987   9.671  20.540  0.00  0.00    +0.000 C 
BRANCH  28  29
ATOM     29  O   UNL     1       0.994  10.361  21.787  0.00  0.00    +0.000 OA
BRANCH  29  31
ATOM     30  C   UNL     1      -0.570   8.603  22.149  0.00  0.00    +0.000 C 
ATOM     31  C   UNL     1       0.271   9.682  22.805  0.00  0.00    +0.000 C 
ENDBRANCH  29  31
ENDBRANCH  28  29
ENDBRANCH  27  28
ENDBRANCH   1  27
TORSDOF 6
ENDMDL
MODEL 7
REMARK VINA RESULT:      -5.7      2.854      7.167
REMARK  Name = 
REMARK  8 active torsions:
REMARK  status: ('A' for Active; 'I' for Inactive)
REMARK    1  A    between atoms: C_1  and  C_2
REMARK    2  A    between atoms: C_2  and  O_3
REMARK    3  A    between atoms: O_3  and  C_4
REMARK    4  A    between atoms: C_4  and  C_5
REMARK    5  A    between atoms: C_5  and  N_6
REMARK    6  A    between atoms: C_8  and  C_9
REMARK    7  A    between atoms: C_9  and  C_10
REMARK    8  A    between atoms: N_22  and  C_23
REMARK                            x       y       z     vdW  Elec       q    Type
REMARK                         _______ _______ _______ _____ _____    ______ ____
ROOT
ATOM      1  N   UNL     1      -3.212  14.678  23.801  0.00  0.00    +0.000 N 
ATOM      2  N   UNL     1      -4.256  15.349  24.333  0.00  0.00    +0.000 NA
ATOM      3  C   UNL     1      -5.274  15.079  23.509  0.00  0.00    +0.000 A 
ATOM      4  C   UNL     1      -4.885  14.178  22.490  0.00  0.00    +0.000 A 
ATOM      5  N   UNL     1      -5.597  13.627  21.489  0.00  0.00    +0.000 NA
ATOM      6  C   UNL     1      -4.931  12.766  20.717  0.00  0.00    +0.000 A 
ATOM      7  N   UNL     1      -5.584  12.200  19.652  0.00  0.00    +0.000 N 
ATOM      8  C   UNL     1      -7.013  12.395  19.433  0.00  0.00    +0.000 C 
ATOM      9  C   UNL     1      -7.260  12.956  18.014  0.00  0.00    +0.000 C 
ATOM     10  N   UNL     1      -6.644  12.136  16.950  0.00  0.00    +0.000 NA
ATOM     11  C   UNL     1      -5.198  11.993  17.222  0.00  0.00    +0.000 C 
ATOM     12  C   UNL     1      -4.875  11.431  18.630  0.00  0.00    +0.000 C 
ATOM     13  N   UNL     1      -3.645  12.428  20.922  0.00  0.00    +0.000 NA
ATOM     14  C   UNL     1      -2.901  12.978  21.912  0.00  0.00    +0.000 A 
ATOM     15  N   UNL     1      -1.558  12.617  22.043  0.00  0.00    +0.000 N 
ATOM     16  C   UNL     1      -3.546  13.906  22.717  0.00  0.00    +0.000 A 
ATOM     17  H   UNL     1      -6.769  12.607  16.055  0.00  0.00    +0.000 HD
ATOM     18  H   UNL     1      -0.953  13.284  22.486  0.00  0.00    +0.000 HD
ENDROOT
BRANCH  15  19
ATOM     19  C   UNL     1      -0.968  11.350  21.880  0.00  0.00    +0.000 A 
ATOM     20  C   UNL     1      -0.551  10.954  20.601  0.00  0.00    +0.000 A 
ATOM     21  C   UNL     1       0.020   9.694  20.390  0.00  0.00    +0.000 A 
ATOM     22  C   UNL     1       0.187   8.817  21.454  0.00  0.00    +0.000 A 
ATOM     23  C   UNL     1      -0.231   9.189  22.728  0.00  0.00    +0.000 A 
ATOM     24  C   UNL     1      -0.821  10.440  22.934  0.00  0.00    +0.000 A 
ENDBRANCH  15  19
BRANCH   3  25
ATOM     25  C   UNL     1      -6.616  15.667  23.775  0.00  0.00    +0.000 C 
ATOM     26  C   UNL     1      -7.676  14.622  24.086  0.00  0.00    +0.000 C 
ENDBRANCH   3  25
BRANCH   1  27
ATOM     27  C   UNL     1      -1.921  14.826  24.452  0.00  0.00    +0.000 C 
BRANCH  27  28
ATOM     28  C   UNL     1      -0.968  15.697  23.638  0.00  0.00    +0.000 C 
BRANCH  28  29
ATOM     29  O   UNL     1       0.049  14.886  23.054  0.00  0.00    +0.000 OA
BRANCH  29  31
ATOM     30  C   UNL     1       1.553  16.722  22.875  0.00  0.00    +0.000 C 
ATOM     31  C   UNL     1       0.865  15.594  22.131  0.00  0.00    +0.000 C 
ENDBRANCH  29  31
ENDBRANCH  28  29
ENDBRANCH  27  28
ENDBRANCH   1  27
TORSDOF 6
ENDMDL
MODEL 8
REMARK VINA RESULT:      -5.7      1.263      2.044
REMARK  Name = 
REMARK  8 active torsions:
REMARK  status: ('A' for Active; 'I' for Inactive)
REMARK    1  A    between atoms: C_1  and  C_2
REMARK    2  A    between atoms: C_2  and  O_3
REMARK    3  A    between atoms: O_3  and  C_4
REMARK    4  A    between atoms: C_4  and  C_5
REMARK    5  A    between atoms: C_5  and  N_6
REMARK    6  A    between atoms: C_8  and  C_9
REMARK    7  A    between atoms: C_9  and  C_10
REMARK    8  A    between atoms: N_22  and  C_23
REMARK                            x       y       z     vdW  Elec       q    Type
REMARK                         _______ _______ _______ _____ _____    ______ ____
ROOT
ATOM      1  N   UNL     1      -4.642  11.830  18.569  0.00  0.00    +0.000 N 
ATOM      2  N   UNL     1      -4.570  10.936  17.560  0.00  0.00    +0.000 NA
ATOM      3  C   UNL     1      -3.258  10.785  17.348  0.00  0.00    +0.000 A 
ATOM      4  C   UNL     1      -2.498  11.538  18.274  0.00  0.00    +0.000 A 
ATOM      5  N   UNL     1      -1.166  11.643  18.435  0.00  0.00    +0.000 NA
ATOM      6  C   UNL     1      -0.768  12.412  19.450  0.00  0.00    +0.000 A 
ATOM      7  N   UNL     1       0.577  12.598  19.644  0.00  0.00    +0.000 N 
ATOM      8  C   UNL     1       1.575  11.865  18.873  0.00  0.00    +0.000 C 
ATOM      9  C   UNL     1       2.544  12.853  18.187  0.00  0.00    +0.000 C 
ATOM     10  N   UNL     1       3.165  13.807  19.129  0.00  0.00    +0.000 NA
ATOM     11  C   UNL     1       2.102  14.527  19.862  0.00  0.00    +0.000 C 
ATOM     12  C   UNL     1       1.091  13.597  20.580  0.00  0.00    +0.000 C 
ATOM     13  N   UNL     1      -1.619  13.025  20.293  0.00  0.00    +0.000 NA
ATOM     14  C   UNL     1      -2.964  12.949  20.146  0.00  0.00    +0.000 A 
ATOM     15  N   UNL     1      -3.792  13.647  21.028  0.00  0.00    +0.000 N 
ATOM     16  C   UNL     1      -3.420  12.187  19.079  0.00  0.00    +0.000 A 
ATOM     17  H   UNL     1       3.719  14.480  18.602  0.00  0.00    +0.000 HD
ATOM     18  H   UNL     1      -4.703  13.897  20.690  0.00  0.00    +0.000 HD
ENDROOT
BRANCH  15  19
ATOM     19  C   UNL     1      -3.643  13.831  22.415  0.00  0.00    +0.000 A 
ATOM     20  C   UNL     1      -4.010  12.792  23.282  0.00  0.00    +0.000 A 
ATOM     21  C   UNL     1      -3.901  12.940  24.669  0.00  0.00    +0.000 A 
ATOM     22  C   UNL     1      -3.418  14.126  25.207  0.00  0.00    +0.000 A 
ATOM     23  C   UNL     1      -3.059  15.172  24.363  0.00  0.00    +0.000 A 
ATOM     24  C   UNL     1      -3.189  15.031  22.977  0.00  0.00    +0.000 A 
ENDBRANCH  15  19
BRANCH   3  25
ATOM     25  C   UNL     1      -2.783   9.863  16.279  0.00  0.00    +0.000 C 
ATOM     26  C   UNL     1      -3.180  10.313  14.881  0.00  0.00    +0.000 C 
ENDBRANCH   3  25
BRANCH   1  27
ATOM     27  C   UNL     1      -5.967  12.252  18.994  0.00  0.00    +0.000 C 
BRANCH  27  28
ATOM     28  C   UNL     1      -7.008  12.052  17.896  0.00  0.00    +0.000 C 
BRANCH  28  29
ATOM     29  O   UNL     1      -7.698  13.276  17.655  0.00  0.00    +0.000 OA
BRANCH  29  31
ATOM     30  C   UNL     1      -7.079  15.514  17.132  0.00  0.00    +0.000 C 
ATOM     31  C   UNL     1      -7.085  14.075  16.653  0.00  0.00    +0.000 C 
ENDBRANCH  29  31
ENDBRANCH  28  29
ENDBRANCH  27  28
ENDBRANCH   1  27
TORSDOF 6
ENDMDL
MODEL 9
REMARK VINA RESULT:      -5.6      3.053      7.259
REMARK  Name = 
REMARK  8 active torsions:
REMARK  status: ('A' for Active; 'I' for Inactive)
REMARK    1  A    between atoms: C_1  and  C_2
REMARK    2  A    between atoms: C_2  and  O_3
REMARK    3  A    between atoms: O_3  and  C_4
REMARK    4  A    between atoms: C_4  and  C_5
REMARK    5  A    between atoms: C_5  and  N_6
REMARK    6  A    between atoms: C_8  and  C_9
REMARK    7  A    between atoms: C_9  and  C_10
REMARK    8  A    between atoms: N_22  and  C_23
REMARK                            x       y       z     vdW  Elec       q    Type
REMARK                         _______ _______ _______ _____ _____    ______ ____
ROOT
ATOM      1  N   UNL     1      -3.362  14.774  23.766  0.00  0.00    +0.000 N 
ATOM      2  N   UNL     1      -4.416  15.430  24.296  0.00  0.00    +0.000 NA
ATOM      3  C   UNL     1      -5.431  15.137  23.476  0.00  0.00    +0.000 A 
ATOM      4  C   UNL     1      -5.029  14.237  22.462  0.00  0.00    +0.000 A 
ATOM      5  N   UNL     1      -5.733  13.667  21.467  0.00  0.00    +0.000 NA
ATOM      6  C   UNL     1      -5.055  12.812  20.699  0.00  0.00    +0.000 A 
ATOM      7  N   UNL     1      -5.700  12.228  19.639  0.00  0.00    +0.000 N 
ATOM      8  C   UNL     1      -7.133  12.396  19.422  0.00  0.00    +0.000 C 
ATOM      9  C   UNL     1      -7.393  12.944  18.001  0.00  0.00    +0.000 C 
ATOM     10  N   UNL     1      -6.765  12.128  16.941  0.00  0.00    +0.000 NA
ATOM     11  C   UNL     1      -5.316  12.012  17.210  0.00  0.00    +0.000 C 
ATOM     12  C   UNL     1      -4.980  11.465  18.621  0.00  0.00    +0.000 C 
ATOM     13  N   UNL     1      -3.763  12.498  20.903  0.00  0.00    +0.000 NA
ATOM     14  C   UNL     1      -3.025  13.067  21.887  0.00  0.00    +0.000 A 
ATOM     15  N   UNL     1      -1.677  12.731  22.017  0.00  0.00    +0.000 N 
ATOM     16  C   UNL     1      -3.685  13.990  22.688  0.00  0.00    +0.000 A 
ATOM     17  H   UNL     1      -6.900  12.590  16.043  0.00  0.00    +0.000 HD
ATOM     18  H   UNL     1      -1.082  13.412  22.454  0.00  0.00    +0.000 HD
ENDROOT
BRANCH  15  19
ATOM     19  C   UNL     1      -1.064  11.474  21.861  0.00  0.00    +0.000 A 
ATOM     20  C   UNL     1      -0.948  10.632  22.976  0.00  0.00    +0.000 A 
ATOM     21  C   UNL     1      -0.325   9.384  22.872  0.00  0.00    +0.000 A 
ATOM     22  C   UNL     1       0.184   8.958  21.653  0.00  0.00    +0.000 A 
ATOM     23  C   UNL     1       0.088   9.785  20.538  0.00  0.00    +0.000 A 
ATOM     24  C   UNL     1      -0.515  11.042  20.647  0.00  0.00    +0.000 A 
ENDBRANCH  15  19
BRANCH   3  25
ATOM     25  C   UNL     1      -6.783  15.704  23.742  0.00  0.00    +0.000 C 
ATOM     26  C   UNL     1      -7.832  14.639  24.026  0.00  0.00    +0.000 C 
ENDBRANCH   3  25
BRANCH   1  27
ATOM     27  C   UNL     1      -2.072  14.949  24.413  0.00  0.00    +0.000 C 
BRANCH  27  28
ATOM     28  C   UNL     1      -2.217  15.243  25.904  0.00  0.00    +0.000 C 
BRANCH  28  29
ATOM     29  O   UNL     1      -1.646  16.514  26.204  0.00  0.00    +0.000 OA
BRANCH  29  31
ATOM     30  C   UNL     1       0.418  16.546  27.388  0.00  0.00    +0.000 C 
ATOM     31  C   UNL     1      -0.237  16.551  26.020  0.00  0.00    +0.000 C 
ENDBRANCH  29  31
ENDBRANCH  28  29
ENDBRANCH  27  28
ENDBRANCH   1  27
TORSDOF 6
ENDMDL
