MODEL 1
REMARK VINA RESULT:      -7.9      0.000      0.000
REMARK  Name = 
REMARK  8 active torsions:
REMARK  status: ('A' for Active; 'I' for Inactive)
REMARK    1  A    between atoms: C_1  and  C_2
REMARK    2  A    between atoms: C_2  and  N_3
REMARK    3  A    between atoms: C_2  and  C_23
REMARK    4  A    between atoms: N_11  and  C1*_12
REMARK    5  A    between atoms: C4*_14  and  C5*_15
REMARK    6  A    between atoms: C5*_15  and  O5*_16
REMARK    7  A    between atoms: C3*_17  and  O3*_18
REMARK    8  A    between atoms: C2*_19  and  O2*_20
REMARK                            x       y       z     vdW  Elec       q    Type
REMARK                         _______ _______ _______ _____ _____    ______ ____
ROOT
ATOM      1  N   UNL     1       5.024   5.466  16.313  0.00  0.00    +0.000 N 
ATOM      2  C   UNL     1       4.128   5.124  17.338  0.00  0.00    +0.000 A 
ATOM      3  N   UNL     1       3.853   3.822  17.562  0.00  0.00    +0.000 NA
ATOM      4  C   UNL     1       3.015   3.471  18.560  0.00  0.00    +0.000 A 
ATOM      5  N   UNL     1       2.730   2.119  18.744  0.00  0.00    +0.000 N 
ATOM      6  C   UNL     1       2.477   4.472  19.373  0.00  0.00    +0.000 A 
ATOM      7  N   UNL     1       1.670   4.433  20.487  0.00  0.00    +0.000 NA
ATOM      8  C   UNL     1       1.482   5.696  20.800  0.00  0.00    +0.000 A 
ATOM      9  N   UNL     1       2.118   6.543  19.927  0.00  0.00    +0.000 N 
ATOM     10  C   UNL     1       2.794   5.769  19.022  0.00  0.00    +0.000 A 
ATOM     11  N   UNL     1       3.586   6.160  18.009  0.00  0.00    +0.000 NA
ATOM     12  H   UNL     1       4.433   5.626  15.505  0.00  0.00    +0.000 HD
ATOM     13  H   UNL     1       3.434   1.510  18.347  0.00  0.00    +0.000 HD
ATOM     14  H   UNL     1       2.382   1.903  19.673  0.00  0.00    +0.000 HD
ENDROOT
BRANCH   9  15
ATOM     15  C1* UNL     1       2.039   7.986  19.982  0.00  0.00    +0.000 C 
ATOM     16  O4* UNL     1       1.718   8.392  21.329  0.00  0.00    +0.000 OA
ATOM     17  C4* UNL     1       0.740   9.461  21.268  0.00  0.00    +0.000 C 
ATOM     18  C3* UNL     1       0.640   9.879  19.802  0.00  0.00    +0.000 C 
ATOM     19  C2* UNL     1       1.015   8.615  19.042  0.00  0.00    +0.000 C 
BRANCH  18  20
ATOM     20  O3* UNL     1       1.608  10.895  19.470  0.00  0.00    +0.000 OA
ATOM     21  H3* UNL     1       1.506  11.140  18.531  0.00  0.00    +0.000 HD
ENDBRANCH  18  20
BRANCH  19  22
ATOM     22  O2* UNL     1       1.574   8.919  17.762  0.00  0.00    +0.000 OA
ATOM     23  H2* UNL     1       2.255   8.234  17.589  0.00  0.00    +0.000 HD
ENDBRANCH  19  22
BRANCH  17  24
ATOM     24  C5* UNL     1      -0.593   8.975  21.847  0.00  0.00    +0.000 C 
BRANCH  24  25
ATOM     25  O5* UNL     1      -0.645   9.232  23.247  0.00  0.00    +0.000 OA
ATOM     26  H5* UNL     1      -1.587   9.193  23.495  0.00  0.00    +0.000 HD
ENDBRANCH  24  25
ENDBRANCH  17  24
ENDBRANCH   9  15
BRANCH   1  28
ATOM     27  C   UNL     1       7.335   4.667  16.753  0.00  0.00    +0.000 C 
ATOM     28  C   UNL     1       6.022   4.437  15.988  0.00  0.00    +0.000 C 
BRANCH  28  29
ATOM     29  C   UNL     1       6.361   4.451  14.495  0.00  0.00    +0.000 A 
ATOM     30  C   UNL     1       5.670   3.582  13.630  0.00  0.00    +0.000 A 
ATOM     31  C   UNL     1       6.040   3.454  12.289  0.00  0.00    +0.000 A 
ATOM     32  C   UNL     1       7.103   4.199  11.786  0.00  0.00    +0.000 A 
ATOM     33  C   UNL     1       7.793   5.074  12.625  0.00  0.00    +0.000 A 
ATOM     34  C   UNL     1       7.430   5.196  13.970  0.00  0.00    +0.000 A 
ENDBRANCH  28  29
ENDBRANCH   1  28
TORSDOF 7
ENDMDL
MODEL 2
REMARK VINA RESULT:      -7.8      0.531      1.053
REMARK  Name = 
REMARK  8 active torsions:
REMARK  status: ('A' for Active; 'I' for Inactive)
REMARK    1  A    between atoms: C_1  and  C_2
REMARK    2  A    between atoms: C_2  and  N_3
REMARK    3  A    between atoms: C_2  and  C_23
REMARK    4  A    between atoms: N_11  and  C1*_12
REMARK    5  A    between atoms: C4*_14  and  C5*_15
REMARK    6  A    between atoms: C5*_15  and  O5*_16
REMARK    7  A    between atoms: C3*_17  and  O3*_18
REMARK    8  A    between atoms: C2*_19  and  O2*_20
REMARK                            x       y       z     vdW  Elec       q    Type
REMARK                         _______ _______ _______ _____ _____    ______ ____
ROOT
ATOM      1  N   UNL     1       5.112   5.375  16.227  0.00  0.00    +0.000 N 
ATOM      2  C   UNL     1       4.205   5.133  17.270  0.00  0.00    +0.000 A 
ATOM      3  N   UNL     1       3.914   3.859  17.606  0.00  0.00    +0.000 NA
ATOM      4  C   UNL     1       3.065   3.606  18.624  0.00  0.00    +0.000 A 
ATOM      5  N   UNL     1       2.764   2.278  18.923  0.00  0.00    +0.000 N 
ATOM      6  C   UNL     1       2.535   4.680  19.343  0.00  0.00    +0.000 A 
ATOM      7  N   UNL     1       1.720   4.747  20.450  0.00  0.00    +0.000 NA
ATOM      8  C   UNL     1       1.545   6.034  20.651  0.00  0.00    +0.000 A 
ATOM      9  N   UNL     1       2.196   6.795  19.711  0.00  0.00    +0.000 N 
ATOM     10  C   UNL     1       2.869   5.937  18.883  0.00  0.00    +0.000 A 
ATOM     11  N   UNL     1       3.672   6.230  17.845  0.00  0.00    +0.000 NA
ATOM     12  H   UNL     1       4.528   5.471  15.403  0.00  0.00    +0.000 HD
ATOM     13  H   UNL     1       3.463   1.629  18.586  0.00  0.00    +0.000 HD
ATOM     14  H   UNL     1       2.408   2.147  19.864  0.00  0.00    +0.000 HD
ENDROOT
BRANCH   9  15
ATOM     15  C1* UNL     1       2.133   8.238  19.640  0.00  0.00    +0.000 C 
ATOM     16  O4* UNL     1       1.589   8.750  20.874  0.00  0.00    +0.000 OA
ATOM     17  C4* UNL     1       0.655   9.815  20.561  0.00  0.00    +0.000 C 
ATOM     18  C3* UNL     1       0.820  10.116  19.072  0.00  0.00    +0.000 C 
ATOM     19  C2* UNL     1       1.299   8.794  18.490  0.00  0.00    +0.000 C 
BRANCH  18  20
ATOM     20  O3* UNL     1       1.849  11.099  18.837  0.00  0.00    +0.000 OA
ATOM     21  H3* UNL     1       2.659  10.832  19.308  0.00  0.00    +0.000 HD
ENDBRANCH  18  20
BRANCH  19  22
ATOM     22  O2* UNL     1       2.079   8.994  17.308  0.00  0.00    +0.000 OA
ATOM     23  H2* UNL     1       1.915   8.215  16.734  0.00  0.00    +0.000 HD
ENDBRANCH  19  22
BRANCH  17  24
ATOM     24  C5* UNL     1      -0.766   9.381  20.933  0.00  0.00    +0.000 C 
BRANCH  24  25
ATOM     25  O5* UNL     1      -0.724   8.304  21.865  0.00  0.00    +0.000 OA
ATOM     26  H5* UNL     1      -0.666   7.488  21.333  0.00  0.00    +0.000 HD
ENDBRANCH  24  25
ENDBRANCH  17  24
ENDBRANCH   9  15
BRANCH   1  28
ATOM     27  C   UNL     1       7.374   4.541  16.828  0.00  0.00    +0.000 C 
ATOM     28  C   UNL     1       6.100   4.310  16.000  0.00  0.00    +0.000 C 
BRANCH  28  29
ATOM     29  C   UNL     1       6.522   4.255  14.529  0.00  0.00    +0.000 A 
ATOM     30  C   UNL     1       7.495   5.160  14.063  0.00  0.00    +0.000 A 
ATOM     31  C   UNL     1       7.808   5.246  12.705  0.00  0.00    +0.000 A 
ATOM     32  C   UNL     1       7.160   4.422  11.788  0.00  0.00    +0.000 A 
ATOM     33  C   UNL     1       6.203   3.511  12.231  0.00  0.00    +0.000 A 
ATOM     34  C   UNL     1       5.881   3.431  13.590  0.00  0.00    +0.000 A 
ENDBRANCH  28  29
ENDBRANCH   1  28
TORSDOF 7
ENDMDL
MODEL 3
REMARK VINA RESULT:      -7.4      2.080      3.224
REMARK  Name = 
REMARK  8 active torsions:
REMARK  status: ('A' for Active; 'I' for Inactive)
REMARK    1  A    between atoms: C_1  and  C_2
REMARK    2  A    between atoms: C_2  and  N_3
REMARK    3  A    between atoms: C_2  and  C_23
REMARK    4  A    between atoms: N_11  and  C1*_12
REMARK    5  A    between atoms: C4*_14  and  C5*_15
REMARK    6  A    between atoms: C5*_15  and  O5*_16
REMARK    7  A    between atoms: C3*_17  and  O3*_18
REMARK    8  A    between atoms: C2*_19  and  O2*_20
REMARK                            x       y       z     vdW  Elec       q    Type
REMARK                         _______ _______ _______ _____ _____    ______ ____
ROOT
ATOM      1  N   UNL     1       4.193   7.019  16.901  0.00  0.00    +0.000 N 
ATOM      2  C   UNL     1       3.352   7.160  18.016  0.00  0.00    +0.000 A 
ATOM      3  N   UNL     1       3.370   6.212  18.976  0.00  0.00    +0.000 NA
ATOM      4  C   UNL     1       2.589   6.344  20.069  0.00  0.00    +0.000 A 
ATOM      5  N   UNL     1       2.611   5.330  21.026  0.00  0.00    +0.000 N 
ATOM      6  C   UNL     1       1.802   7.490  20.202  0.00  0.00    +0.000 A 
ATOM      7  N   UNL     1       0.975   7.940  21.207  0.00  0.00    +0.000 NA
ATOM      8  C   UNL     1       0.492   9.074  20.749  0.00  0.00    +0.000 A 
ATOM      9  N   UNL     1       0.958   9.362  19.490  0.00  0.00    +0.000 N 
ATOM     10  C   UNL     1       1.833   8.369  19.138  0.00  0.00    +0.000 A 
ATOM     11  N   UNL     1       2.560   8.251  18.014  0.00  0.00    +0.000 NA
ATOM     12  H   UNL     1       3.618   6.549  16.210  0.00  0.00    +0.000 HD
ATOM     13  H   UNL     1       3.452   4.768  20.987  0.00  0.00    +0.000 HD
ATOM     14  H   UNL     1       2.279   5.629  21.937  0.00  0.00    +0.000 HD
ENDROOT
BRANCH   9  15
ATOM     15  C1* UNL     1       0.551  10.509  18.710  0.00  0.00    +0.000 C 
ATOM     16  O4* UNL     1       1.479  11.591  18.937  0.00  0.00    +0.000 OA
ATOM     17  C4* UNL     1       0.727  12.824  19.070  0.00  0.00    +0.000 C 
ATOM     18  C3* UNL     1      -0.712  12.504  18.670  0.00  0.00    +0.000 C 
ATOM     19  C2* UNL     1      -0.855  11.025  19.000  0.00  0.00    +0.000 C 
BRANCH  18  20
ATOM     20  O3* UNL     1      -0.919  12.659  17.251  0.00  0.00    +0.000 OA
ATOM     21  H3* UNL     1      -0.339  13.370  16.919  0.00  0.00    +0.000 HD
ENDBRANCH  18  20
BRANCH  19  22
ATOM     22  O2* UNL     1      -1.839  10.397  18.174  0.00  0.00    +0.000 OA
ATOM     23  H2* UNL     1      -1.916  10.950  17.367  0.00  0.00    +0.000 HD
ENDBRANCH  19  22
BRANCH  17  24
ATOM     24  C5* UNL     1       0.850  13.352  20.503  0.00  0.00    +0.000 C 
BRANCH  24  25
ATOM     25  O5* UNL     1       1.918  12.697  21.180  0.00  0.00    +0.000 OA
ATOM     26  H5* UNL     1       1.806  12.904  22.127  0.00  0.00    +0.000 HD
ENDBRANCH  24  25
ENDBRANCH  17  24
ENDBRANCH   9  15
BRANCH   1  28
ATOM     27  C   UNL     1       6.624   7.139  17.399  0.00  0.00    +0.000 C 
ATOM     28  C   UNL     1       5.412   6.232  17.135  0.00  0.00    +0.000 C 
BRANCH  28  29
ATOM     29  C   UNL     1       5.752   5.368  15.916  0.00  0.00    +0.000 A 
ATOM     30  C   UNL     1       7.033   5.473  15.342  0.00  0.00    +0.000 A 
ATOM     31  C   UNL     1       7.344   4.816  14.148  0.00  0.00    +0.000 A 
ATOM     32  C   UNL     1       6.382   4.037  13.512  0.00  0.00    +0.000 A 
ATOM     33  C   UNL     1       5.111   3.912  14.071  0.00  0.00    +0.000 A 
ATOM     34  C   UNL     1       4.795   4.577  15.261  0.00  0.00    +0.000 A 
ENDBRANCH  28  29
ENDBRANCH   1  28
TORSDOF 7
ENDMDL
MODEL 4
REMARK VINA RESULT:      -7.3      3.576      7.820
REMARK  Name = 
REMARK  8 active torsions:
REMARK  status: ('A' for Active; 'I' for Inactive)
REMARK    1  A    between atoms: C_1  and  C_2
REMARK    2  A    between atoms: C_2  and  N_3
REMARK    3  A    between atoms: C_2  and  C_23
REMARK    4  A    between atoms: N_11  and  C1*_12
REMARK    5  A    between atoms: C4*_14  and  C5*_15
REMARK    6  A    between atoms: C5*_15  and  O5*_16
REMARK    7  A    between atoms: C3*_17  and  O3*_18
REMARK    8  A    between atoms: C2*_19  and  O2*_20
REMARK                            x       y       z     vdW  Elec       q    Type
REMARK                         _______ _______ _______ _____ _____    ______ ____
ROOT
ATOM      1  N   UNL     1       2.088   8.234  19.055  0.00  0.00    +0.000 N 
ATOM      2  C   UNL     1       2.281   6.845  19.110  0.00  0.00    +0.000 A 
ATOM      3  N   UNL     1       1.375   6.080  19.754  0.00  0.00    +0.000 NA
ATOM      4  C   UNL     1       1.529   4.740  19.794  0.00  0.00    +0.000 A 
ATOM      5  N   UNL     1       0.589   3.985  20.495  0.00  0.00    +0.000 N 
ATOM      6  C   UNL     1       2.612   4.165  19.125  0.00  0.00    +0.000 A 
ATOM      7  N   UNL     1       2.994   2.858  18.924  0.00  0.00    +0.000 NA
ATOM      8  C   UNL     1       4.111   2.945  18.237  0.00  0.00    +0.000 A 
ATOM      9  N   UNL     1       4.471   4.250  18.003  0.00  0.00    +0.000 N 
ATOM     10  C   UNL     1       3.496   5.048  18.538  0.00  0.00    +0.000 A 
ATOM     11  N   UNL     1       3.403   6.389  18.516  0.00  0.00    +0.000 NA
ATOM     12  H   UNL     1       2.605   8.591  19.852  0.00  0.00    +0.000 HD
ATOM     13  H   UNL     1      -0.295   4.463  20.611  0.00  0.00    +0.000 HD
ATOM     14  H   UNL     1       0.569   3.009  20.217  0.00  0.00    +0.000 HD
ENDROOT
BRANCH   9  15
ATOM     15  C1* UNL     1       5.684   4.656  17.329  0.00  0.00    +0.000 C 
ATOM     16  O4* UNL     1       6.818   4.353  18.168  0.00  0.00    +0.000 OA
ATOM     17  C4* UNL     1       7.746   5.465  18.110  0.00  0.00    +0.000 C 
ATOM     18  C3* UNL     1       7.255   6.387  16.995  0.00  0.00    +0.000 C 
ATOM     19  C2* UNL     1       5.755   6.133  16.955  0.00  0.00    +0.000 C 
BRANCH  18  20
ATOM     20  O3* UNL     1       7.798   6.009  15.713  0.00  0.00    +0.000 OA
ATOM     21  H3* UNL     1       7.710   5.044  15.600  0.00  0.00    +0.000 HD
ENDBRANCH  18  20
BRANCH  19  22
ATOM     22  O2* UNL     1       5.215   6.386  15.656  0.00  0.00    +0.000 OA
ATOM     23  H2* UNL     1       5.982   6.459  15.048  0.00  0.00    +0.000 HD
ENDBRANCH  19  22
BRANCH  17  24
ATOM     24  C5* UNL     1       7.811   6.156  19.476  0.00  0.00    +0.000 C 
BRANCH  24  25
ATOM     25  O5* UNL     1       8.150   5.214  20.489  0.00  0.00    +0.000 OA
ATOM     26  H5* UNL     1       7.775   5.563  21.320  0.00  0.00    +0.000 HD
ENDBRANCH  24  25
ENDBRANCH  17  24
ENDBRANCH   9  15
BRANCH   1  28
ATOM     27  C   UNL     1       0.339   9.674  18.036  0.00  0.00    +0.000 C 
ATOM     28  C   UNL     1       0.688   8.673  19.148  0.00  0.00    +0.000 C 
BRANCH  28  29
ATOM     29  C   UNL     1       0.417   9.371  20.484  0.00  0.00    +0.000 A 
ATOM     30  C   UNL     1      -0.027   8.603  21.577  0.00  0.00    +0.000 A 
ATOM     31  C   UNL     1      -0.424   9.210  22.771  0.00  0.00    +0.000 A 
ATOM     32  C   UNL     1      -0.376  10.597  22.896  0.00  0.00    +0.000 A 
ATOM     33  C   UNL     1       0.072  11.373  21.829  0.00  0.00    +0.000 A 
ATOM     34  C   UNL     1       0.461  10.767  20.629  0.00  0.00    +0.000 A 
ENDBRANCH  28  29
ENDBRANCH   1  28
TORSDOF 7
ENDMDL
MODEL 5
REMARK VINA RESULT:      -7.3      1.952      2.734
REMARK  Name = 
REMARK  8 active torsions:
REMARK  status: ('A' for Active; 'I' for Inactive)
REMARK    1  A    between atoms: C_1  and  C_2
REMARK    2  A    between atoms: C_2  and  N_3
REMARK    3  A    between atoms: C_2  and  C_23
REMARK    4  A    between atoms: N_11  and  C1*_12
REMARK    5  A    between atoms: C4*_14  and  C5*_15
REMARK    6  A    between atoms: C5*_15  and  O5*_16
REMARK    7  A    between atoms: C3*_17  and  O3*_18
REMARK    8  A    between atoms: C2*_19  and  O2*_20
REMARK                            x       y       z     vdW  Elec       q    Type
REMARK                         _______ _______ _______ _____ _____    ______ ____
ROOT
ATOM      1  N   UNL     1       4.257   7.106  16.895  0.00  0.00    +0.000 N 
ATOM      2  C   UNL     1       3.420   7.144  18.021  0.00  0.00    +0.000 A 
ATOM      3  N   UNL     1       3.409   6.094  18.868  0.00  0.00    +0.000 NA
ATOM      4  C   UNL     1       2.631   6.123  19.970  0.00  0.00    +0.000 A 
ATOM      5  N   UNL     1       2.622   5.008  20.806  0.00  0.00    +0.000 N 
ATOM      6  C   UNL     1       1.877   7.270  20.234  0.00  0.00    +0.000 A 
ATOM      7  N   UNL     1       1.062   7.627  21.284  0.00  0.00    +0.000 NA
ATOM      8  C   UNL     1       0.613   8.818  20.959  0.00  0.00    +0.000 A 
ATOM      9  N   UNL     1       1.089   9.234  19.740  0.00  0.00    +0.000 N 
ATOM     10  C   UNL     1       1.934   8.262  19.276  0.00  0.00    +0.000 A 
ATOM     11  N   UNL     1       2.660   8.251  18.144  0.00  0.00    +0.000 NA
ATOM     12  H   UNL     1       3.670   6.734  16.157  0.00  0.00    +0.000 HD
ATOM     13  H   UNL     1       3.446   4.430  20.703  0.00  0.00    +0.000 HD
ATOM     14  H   UNL     1       2.299   5.212  21.746  0.00  0.00    +0.000 HD
ENDROOT
BRANCH   9  15
ATOM     15  C1* UNL     1       0.716  10.473  19.095  0.00  0.00    +0.000 C 
ATOM     16  O4* UNL     1       0.973  11.572  19.994  0.00  0.00    +0.000 OA
ATOM     17  C4* UNL     1      -0.137  12.502  19.917  0.00  0.00    +0.000 C 
ATOM     18  C3* UNL     1      -0.999  12.056  18.736  0.00  0.00    +0.000 C 
ATOM     19  C2* UNL     1      -0.740  10.559  18.649  0.00  0.00    +0.000 C 
BRANCH  18  20
ATOM     20  O3* UNL     1      -0.556  12.651  17.498  0.00  0.00    +0.000 OA
ATOM     21  H3* UNL     1      -1.334  12.884  16.959  0.00  0.00    +0.000 HD
ENDBRANCH  18  20
BRANCH  19  22
ATOM     22  O2* UNL     1      -0.925  10.072  17.317  0.00  0.00    +0.000 OA
ATOM     23  H2* UNL     1      -1.786  10.431  17.010  0.00  0.00    +0.000 HD
ENDBRANCH  19  22
BRANCH  17  24
ATOM     24  C5* UNL     1      -0.898  12.511  21.246  0.00  0.00    +0.000 C 
BRANCH  24  25
ATOM     25  O5* UNL     1      -0.044  12.086  22.305  0.00  0.00    +0.000 OA
ATOM     26  H5* UNL     1       0.376  11.261  21.999  0.00  0.00    +0.000 HD
ENDBRANCH  24  25
ENDBRANCH  17  24
ENDBRANCH   9  15
BRANCH   1  28
ATOM     27  C   UNL     1       6.690   7.098  17.401  0.00  0.00    +0.000 C 
ATOM     28  C   UNL     1       5.453   6.262  17.036  0.00  0.00    +0.000 C 
BRANCH  28  29
ATOM     29  C   UNL     1       5.771   5.535  15.726  0.00  0.00    +0.000 A 
ATOM     30  C   UNL     1       4.834   4.620  15.209  0.00  0.00    +0.000 A 
ATOM     31  C   UNL     1       5.136   3.828  14.099  0.00  0.00    +0.000 A 
ATOM     32  C   UNL     1       6.379   3.941  13.481  0.00  0.00    +0.000 A 
ATOM     33  C   UNL     1       7.316   4.850  13.972  0.00  0.00    +0.000 A 
ATOM     34  C   UNL     1       7.018   5.637  15.089  0.00  0.00    +0.000 A 
ENDBRANCH  28  29
ENDBRANCH   1  28
TORSDOF 7
ENDMDL
MODEL 6
REMARK VINA RESULT:      -7.3      1.630      2.331
REMARK  Name = 
REMARK  8 active torsions:
REMARK  status: ('A' for Active; 'I' for Inactive)
REMARK    1  A    between atoms: C_1  and  C_2
REMARK    2  A    between atoms: C_2  and  N_3
REMARK    3  A    between atoms: C_2  and  C_23
REMARK    4  A    between atoms: N_11  and  C1*_12
REMARK    5  A    between atoms: C4*_14  and  C5*_15
REMARK    6  A    between atoms: C5*_15  and  O5*_16
REMARK    7  A    between atoms: C3*_17  and  O3*_18
REMARK    8  A    between atoms: C2*_19  and  O2*_20
REMARK                            x       y       z     vdW  Elec       q    Type
REMARK                         _______ _______ _______ _____ _____    ______ ____
ROOT
ATOM      1  N   UNL     1       4.685   6.883  16.907  0.00  0.00    +0.000 N 
ATOM      2  C   UNL     1       3.787   6.787  17.981  0.00  0.00    +0.000 A 
ATOM      3  N   UNL     1       3.722   5.636  18.682  0.00  0.00    +0.000 NA
ATOM      4  C   UNL     1       2.885   5.533  19.735  0.00  0.00    +0.000 A 
ATOM      5  N   UNL     1       2.822   4.318  20.417  0.00  0.00    +0.000 N 
ATOM      6  C   UNL     1       2.127   6.646  20.106  0.00  0.00    +0.000 A 
ATOM      7  N   UNL     1       1.258   6.876  21.149  0.00  0.00    +0.000 NA
ATOM      8  C   UNL     1       0.836   8.106  20.959  0.00  0.00    +0.000 A 
ATOM      9  N   UNL     1       1.381   8.669  19.831  0.00  0.00    +0.000 N 
ATOM     10  C   UNL     1       2.243   7.754  19.290  0.00  0.00    +0.000 A 
ATOM     11  N   UNL     1       3.030   7.879  18.207  0.00  0.00    +0.000 NA
ATOM     12  H   UNL     1       4.136   6.618  16.096  0.00  0.00    +0.000 HD
ATOM     13  H   UNL     1       3.646   3.747  20.284  0.00  0.00    +0.000 HD
ATOM     14  H   UNL     1       2.449   4.403  21.358  0.00  0.00    +0.000 HD
ENDROOT
BRANCH   9  15
ATOM     15  C1* UNL     1       1.053   9.987  19.335  0.00  0.00    +0.000 C 
ATOM     16  O4* UNL     1       1.193  10.945  20.404  0.00  0.00    +0.000 OA
ATOM     17  C4* UNL     1       0.079  11.872  20.343  0.00  0.00    +0.000 C 
ATOM     18  C3* UNL     1      -0.645  11.598  19.026  0.00  0.00    +0.000 C 
ATOM     19  C2* UNL     1      -0.350  10.130  18.753  0.00  0.00    +0.000 C 
BRANCH  18  20
ATOM     20  O3* UNL     1      -0.087  12.367  17.940  0.00  0.00    +0.000 OA
ATOM     21  H3* UNL     1       0.814  12.653  18.180  0.00  0.00    +0.000 HD
ENDBRANCH  18  20
BRANCH  19  22
ATOM     22  O2* UNL     1      -0.384   9.840  17.353  0.00  0.00    +0.000 OA
ATOM     23  H2* UNL     1       0.528   9.578  17.103  0.00  0.00    +0.000 HD
ENDBRANCH  19  22
BRANCH  17  24
ATOM     24  C5* UNL     1      -0.816  11.685  21.572  0.00  0.00    +0.000 C 
BRANCH  24  25
ATOM     25  O5* UNL     1      -0.047  11.217  22.676  0.00  0.00    +0.000 OA
ATOM     26  H5* UNL     1       0.683  11.855  22.787  0.00  0.00    +0.000 HD
ENDBRANCH  24  25
ENDBRANCH  17  24
ENDBRANCH   9  15
BRANCH   1  28
ATOM     27  C   UNL     1       7.145   6.824  17.244  0.00  0.00    +0.000 C 
ATOM     28  C   UNL     1       5.865   6.011  17.000  0.00  0.00    +0.000 C 
BRANCH  28  29
ATOM     29  C   UNL     1       6.071   5.224  15.702  0.00  0.00    +0.000 A 
ATOM     30  C   UNL     1       7.259   5.412  14.971  0.00  0.00    +0.000 A 
ATOM     31  C   UNL     1       7.433   4.829  13.713  0.00  0.00    +0.000 A 
ATOM     32  C   UNL     1       6.423   4.040  13.167  0.00  0.00    +0.000 A 
ATOM     33  C   UNL     1       5.244   3.832  13.881  0.00  0.00    +0.000 A 
ATOM     34  C   UNL     1       5.065   4.424  15.136  0.00  0.00    +0.000 A 
ENDBRANCH  28  29
ENDBRANCH   1  28
TORSDOF 7
ENDMDL
MODEL 7
REMARK VINA RESULT:      -7.2      3.542      7.790
REMARK  Name = 
REMARK  8 active torsions:
REMARK  status: ('A' for Active; 'I' for Inactive)
REMARK    1  A    between atoms: C_1  and  C_2
REMARK    2  A    between atoms: C_2  and  N_3
REMARK    3  A    between atoms: C_2  and  C_23
REMARK    4  A    between atoms: N_11  and  C1*_12
REMARK    5  A    between atoms: C4*_14  and  C5*_15
REMARK    6  A    between atoms: C5*_15  and  O5*_16
REMARK    7  A    between atoms: C3*_17  and  O3*_18
REMARK    8  A    between atoms: C2*_19  and  O2*_20
REMARK                            x       y       z     vdW  Elec       q    Type
REMARK                         _______ _______ _______ _____ _____    ______ ____
ROOT
ATOM      1  N   UNL     1       2.432   7.765  19.280  0.00  0.00    +0.000 N 
ATOM      2  C   UNL     1       2.469   6.363  19.217  0.00  0.00    +0.000 A 
ATOM      3  N   UNL     1       1.494   5.653  19.822  0.00  0.00    +0.000 NA
ATOM      4  C   UNL     1       1.497   4.305  19.750  0.00  0.00    +0.000 A 
ATOM      5  N   UNL     1       0.491   3.602  20.413  0.00  0.00    +0.000 N 
ATOM      6  C   UNL     1       2.497   3.671  19.008  0.00  0.00    +0.000 A 
ATOM      7  N   UNL     1       2.726   2.351  18.692  0.00  0.00    +0.000 NA
ATOM      8  C   UNL     1       3.833   2.372  17.983  0.00  0.00    +0.000 A 
ATOM      9  N   UNL     1       4.333   3.643  17.846  0.00  0.00    +0.000 N 
ATOM     10  C   UNL     1       3.463   4.497  18.470  0.00  0.00    +0.000 A 
ATOM     11  N   UNL     1       3.521   5.837  18.559  0.00  0.00    +0.000 NA
ATOM     12  H   UNL     1       3.000   7.995  20.089  0.00  0.00    +0.000 HD
ATOM     13  H   UNL     1      -0.331   4.164  20.591  0.00  0.00    +0.000 HD
ATOM     14  H   UNL     1       0.357   2.661  20.058  0.00  0.00    +0.000 HD
ENDROOT
BRANCH   9  15
ATOM     15  C1* UNL     1       5.571   3.967  17.173  0.00  0.00    +0.000 C 
ATOM     16  O4* UNL     1       6.649   3.957  18.133  0.00  0.00    +0.000 OA
ATOM     17  C4* UNL     1       7.514   5.090  17.868  0.00  0.00    +0.000 C 
ATOM     18  C3* UNL     1       7.063   5.682  16.533  0.00  0.00    +0.000 C 
ATOM     19  C2* UNL     1       5.588   5.315  16.460  0.00  0.00    +0.000 C 
BRANCH  18  20
ATOM     20  O3* UNL     1       7.728   5.053  15.419  0.00  0.00    +0.000 OA
ATOM     21  H3* UNL     1       7.551   4.095  15.440  0.00  0.00    +0.000 HD
ENDBRANCH  18  20
BRANCH  19  22
ATOM     22  O2* UNL     1       5.141   5.213  15.105  0.00  0.00    +0.000 OA
ATOM     23  H2* UNL     1       5.924   4.948  14.576  0.00  0.00    +0.000 HD
ENDBRANCH  19  22
BRANCH  17  24
ATOM     24  C5* UNL     1       7.429   6.087  19.028  0.00  0.00    +0.000 C 
BRANCH  24  25
ATOM     25  O5* UNL     1       7.949   5.505  20.218  0.00  0.00    +0.000 OA
ATOM     26  H5* UNL     1       7.910   6.201  20.900  0.00  0.00    +0.000 HD
ENDBRANCH  24  25
ENDBRANCH  17  24
ENDBRANCH   9  15
BRANCH   1  28
ATOM     27  C   UNL     1       0.950   9.661  18.663  0.00  0.00    +0.000 C 
ATOM     28  C   UNL     1       1.092   8.347  19.446  0.00  0.00    +0.000 C 
BRANCH  28  29
ATOM     29  C   UNL     1       0.809   8.665  20.917  0.00  0.00    +0.000 A 
ATOM     30  C   UNL     1      -0.521   8.886  21.324  0.00  0.00    +0.000 A 
ATOM     31  C   UNL     1      -0.817   9.319  22.619  0.00  0.00    +0.000 A 
ATOM     32  C   UNL     1       0.212   9.532  23.533  0.00  0.00    +0.000 A 
ATOM     33  C   UNL     1       1.534   9.308  23.152  0.00  0.00    +0.000 A 
ATOM     34  C   UNL     1       1.832   8.884  21.853  0.00  0.00    +0.000 A 
ENDBRANCH  28  29
ENDBRANCH   1  28
TORSDOF 7
ENDMDL
MODEL 8
REMARK VINA RESULT:      -6.9      3.284      8.393
REMARK  Name = 
REMARK  8 active torsions:
REMARK  status: ('A' for Active; 'I' for Inactive)
REMARK    1  A    between atoms: C_1  and  C_2
REMARK    2  A    between atoms: C_2  and  N_3
REMARK    3  A    between atoms: C_2  and  C_23
REMARK    4  A    between atoms: N_11  and  C1*_12
REMARK    5  A    between atoms: C4*_14  and  C5*_15
REMARK    6  A    between atoms: C5*_15  and  O5*_16
REMARK    7  A    between atoms: C3*_17  and  O3*_18
REMARK    8  A    between atoms: C2*_19  and  O2*_20
REMARK                            x       y       z     vdW  Elec       q    Type
REMARK                         _______ _______ _______ _____ _____    ______ ____
ROOT
ATOM      1  N   UNL     1       2.263   8.939  18.509  0.00  0.00    +0.000 N 
ATOM      2  C   UNL     1       2.578   7.583  18.679  0.00  0.00    +0.000 A 
ATOM      3  N   UNL     1       1.916   6.866  19.611  0.00  0.00    +0.000 NA
ATOM      4  C   UNL     1       2.186   5.554  19.772  0.00  0.00    +0.000 A 
ATOM      5  N   UNL     1       1.504   4.852  20.765  0.00  0.00    +0.000 N 
ATOM      6  C   UNL     1       3.125   4.950  18.932  0.00  0.00    +0.000 A 
ATOM      7  N   UNL     1       3.557   3.650  18.800  0.00  0.00    +0.000 NA
ATOM      8  C   UNL     1       4.469   3.702  17.855  0.00  0.00    +0.000 A 
ATOM      9  N   UNL     1       4.655   4.980  17.388  0.00  0.00    +0.000 N 
ATOM     10  C   UNL     1       3.769   5.790  18.046  0.00  0.00    +0.000 A 
ATOM     11  N   UNL     1       3.562   7.109  17.888  0.00  0.00    +0.000 NA
ATOM     12  H   UNL     1       2.920   9.428  19.107  0.00  0.00    +0.000 HD
ATOM     13  H   UNL     1       0.635   5.295  21.036  0.00  0.00    +0.000 HD
ATOM     14  H   UNL     1       1.500   3.848  20.619  0.00  0.00    +0.000 HD
ENDROOT
BRANCH   9  15
ATOM     15  C1* UNL     1       5.636   5.353  16.394  0.00  0.00    +0.000 C 
ATOM     16  O4* UNL     1       4.988   5.481  15.111  0.00  0.00    +0.000 OA
ATOM     17  C4* UNL     1       5.840   4.883  14.101  0.00  0.00    +0.000 C 
ATOM     18  C3* UNL     1       7.177   4.586  14.778  0.00  0.00    +0.000 C 
ATOM     19  C2* UNL     1       6.802   4.382  16.239  0.00  0.00    +0.000 C 
BRANCH  18  20
ATOM     20  O3* UNL     1       8.073   5.715  14.708  0.00  0.00    +0.000 OA
ATOM     21  H3* UNL     1       7.561   6.516  14.488  0.00  0.00    +0.000 HD
ENDBRANCH  18  20
BRANCH  19  22
ATOM     22  O2* UNL     1       7.891   4.704  17.108  0.00  0.00    +0.000 OA
ATOM     23  H2* UNL     1       8.333   5.488  16.717  0.00  0.00    +0.000 HD
ENDBRANCH  19  22
BRANCH  17  24
ATOM     24  C5* UNL     1       5.164   3.633  13.530  0.00  0.00    +0.000 C 
BRANCH  24  25
ATOM     25  O5* UNL     1       6.023   2.993  12.592  0.00  0.00    +0.000 OA
ATOM     26  H5* UNL     1       5.439   2.525  11.966  0.00  0.00    +0.000 HD
ENDBRANCH  24  25
ENDBRANCH  17  24
ENDBRANCH   9  15
BRANCH   1  28
ATOM     27  C   UNL     1       0.011   9.542  17.650  0.00  0.00    +0.000 C 
ATOM     28  C   UNL     1       0.892   9.313  18.887  0.00  0.00    +0.000 C 
BRANCH  28  29
ATOM     29  C   UNL     1       0.880  10.614  19.696  0.00  0.00    +0.000 A 
ATOM     30  C   UNL     1       0.129  10.671  20.886  0.00  0.00    +0.000 A 
ATOM     31  C   UNL     1      -0.030  11.872  21.582  0.00  0.00    +0.000 A 
ATOM     32  C   UNL     1       0.566  13.037  21.104  0.00  0.00    +0.000 A 
ATOM     33  C   UNL     1       1.323  12.998  19.935  0.00  0.00    +0.000 A 
ATOM     34  C   UNL     1       1.475  11.798  19.232  0.00  0.00    +0.000 A 
ENDBRANCH  28  29
ENDBRANCH   1  28
TORSDOF 7
ENDMDL
MODEL 9
REMARK VINA RESULT:      -6.9      1.433      1.631
REMARK  Name = 
REMARK  8 active torsions:
REMARK  status: ('A' for Active; 'I' for Inactive)
REMARK    1  A    between atoms: C_1  and  C_2
REMARK    2  A    between atoms: C_2  and  N_3
REMARK    3  A    between atoms: C_2  and  C_23
REMARK    4  A    between atoms: N_11  and  C1*_12
REMARK    5  A    between atoms: C4*_14  and  C5*_15
REMARK    6  A    between atoms: C5*_15  and  O5*_16
REMARK    7  A    between atoms: C3*_17  and  O3*_18
REMARK    8  A    between atoms: C2*_19  and  O2*_20
REMARK                            x       y       z     vdW  Elec       q    Type
REMARK                         _______ _______ _______ _____ _____    ______ ____
ROOT
ATOM      1  N   UNL     1       4.757   6.499  16.495  0.00  0.00    +0.000 N 
ATOM      2  C   UNL     1       3.916   6.345  17.608  0.00  0.00    +0.000 A 
ATOM      3  N   UNL     1       3.830   5.138  18.205  0.00  0.00    +0.000 NA
ATOM      4  C   UNL     1       3.047   4.977  19.292  0.00  0.00    +0.000 A 
ATOM      5  N   UNL     1       2.958   3.709  19.865  0.00  0.00    +0.000 N 
ATOM      6  C   UNL     1       2.369   6.086  19.806  0.00  0.00    +0.000 A 
ATOM      7  N   UNL     1       1.572   6.258  20.915  0.00  0.00    +0.000 NA
ATOM      8  C   UNL     1       1.205   7.519  20.862  0.00  0.00    +0.000 A 
ATOM      9  N   UNL     1       1.716   8.158  19.759  0.00  0.00    +0.000 N 
ATOM     10  C   UNL     1       2.499   7.258  19.088  0.00  0.00    +0.000 A 
ATOM     11  N   UNL     1       3.230   7.446  17.976  0.00  0.00    +0.000 NA
ATOM     12  H   UNL     1       4.152   6.337  15.698  0.00  0.00    +0.000 HD
ATOM     13  H   UNL     1       3.743   3.115  19.631  0.00  0.00    +0.000 HD
ATOM     14  H   UNL     1       2.642   3.723  20.829  0.00  0.00    +0.000 HD
ENDROOT
BRANCH   9  15
ATOM     15  C1* UNL     1       1.431   9.530  19.404  0.00  0.00    +0.000 C 
ATOM     16  O4* UNL     1       1.470  10.347  20.593  0.00  0.00    +0.000 OA
ATOM     17  C4* UNL     1       0.364  11.283  20.548  0.00  0.00    +0.000 C 
ATOM     18  C3* UNL     1      -0.237  11.182  19.147  0.00  0.00    +0.000 C 
ATOM     19  C2* UNL     1       0.086   9.757  18.721  0.00  0.00    +0.000 C 
BRANCH  18  20
ATOM     20  O3* UNL     1       0.414  12.075  18.221  0.00  0.00    +0.000 OA
ATOM     21  H3* UNL     1      -0.116  12.889  18.136  0.00  0.00    +0.000 HD
ENDBRANCH  18  20
BRANCH  19  22
ATOM     22  O2* UNL     1       0.178   9.644  17.298  0.00  0.00    +0.000 OA
ATOM     23  H2* UNL     1      -0.464   8.950  17.035  0.00  0.00    +0.000 HD
ENDBRANCH  19  22
BRANCH  17  24
ATOM     24  C5* UNL     1      -0.638  10.952  21.658  0.00  0.00    +0.000 C 
BRANCH  24  25
ATOM     25  O5* UNL     1      -1.518  12.051  21.871  0.00  0.00    +0.000 OA
ATOM     26  H5* UNL     1      -1.641  12.472  21.000  0.00  0.00    +0.000 HD
ENDBRANCH  24  25
ENDBRANCH  17  24
ENDBRANCH   9  15
BRANCH   1  28
ATOM     27  C   UNL     1       7.186   6.229  16.942  0.00  0.00    +0.000 C 
ATOM     28  C   UNL     1       5.894   5.567  16.439  0.00  0.00    +0.000 C 
BRANCH  28  29
ATOM     29  C   UNL     1       6.154   5.102  15.003  0.00  0.00    +0.000 A 
ATOM     30  C   UNL     1       5.269   4.179  14.414  0.00  0.00    +0.000 A 
ATOM     31  C   UNL     1       5.541   3.617  13.165  0.00  0.00    +0.000 A 
ATOM     32  C   UNL     1       6.699   3.973  12.478  0.00  0.00    +0.000 A 
ATOM     33  C   UNL     1       7.581   4.894  13.040  0.00  0.00    +0.000 A 
ATOM     34  C   UNL     1       7.315   5.451  14.296  0.00  0.00    +0.000 A 
ENDBRANCH  28  29
ENDBRANCH   1  28
TORSDOF 7
ENDMDL
