MODEL 1
REMARK VINA RESULT:      -7.4      0.000      0.000
REMARK  Name = 
REMARK  6 active torsions:
REMARK  status: ('A' for Active; 'I' for Inactive)
REMARK    1  A    between atoms: C_1  and  O_2
REMARK    2  A    between atoms: O_2  and  C_3
REMARK    3  A    between atoms: C_6  and  C_7
REMARK    4  A    between atoms: C_8  and  C_9
REMARK    5  A    between atoms: C_9  and  C_11
REMARK    6  A    between atoms: C_16  and  O_17
REMARK                            x       y       z     vdW  Elec       q    Type
REMARK                         _______ _______ _______ _____ _____    ______ ____
ROOT
ATOM      1  C   UNL     1       4.783   5.571  16.929  0.00  0.00    +0.000 C 
ATOM      2  C   UNL     1       5.680   4.716  16.421  0.00  0.00    +0.000 C 
ENDROOT
BRANCH   1   6
ATOM      3  C   UNL     1       1.880   4.281  19.811  0.00  0.00    +0.000 A 
ATOM      4  C   UNL     1       2.456   3.379  18.911  0.00  0.00    +0.000 A 
ATOM      5  C   UNL     1       3.397   3.816  17.973  0.00  0.00    +0.000 A 
ATOM      6  C   UNL     1       3.759   5.165  17.899  0.00  0.00    +0.000 A 
ATOM      7  C   UNL     1       3.154   6.073  18.776  0.00  0.00    +0.000 A 
ATOM      8  C   UNL     1       2.214   5.636  19.715  0.00  0.00    +0.000 A 
ATOM      9 BR   UNL     1       1.444   6.935  20.871  0.00  0.00    +0.000 Br
BRANCH   3  11
ATOM     10  C   UNL     1       1.365   2.770  21.543  0.00  0.00    +0.000 C 
ATOM     11  O   UNL     1       0.976   3.902  20.769  0.00  0.00    +0.000 OA
ENDBRANCH   3  11
ENDBRANCH   1   6
BRANCH   2  12
ATOM     12  C   UNL     1       6.753   5.190  15.511  0.00  0.00    +0.000 C 
ATOM     13  O   UNL     1       7.581   6.027  15.863  0.00  0.00    +0.000 OA
BRANCH  12  14
ATOM     14  C   UNL     1       6.751   4.658  14.122  0.00  0.00    +0.000 A 
ATOM     15  C   UNL     1       5.740   3.748  13.776  0.00  0.00    +0.000 A 
ATOM     16  C   UNL     1       5.672   3.232  12.480  0.00  0.00    +0.000 A 
ATOM     17  C   UNL     1       6.601   3.627  11.520  0.00  0.00    +0.000 A 
ATOM     18  C   UNL     1       7.606   4.535  11.850  0.00  0.00    +0.000 A 
ATOM     19  C   UNL     1       7.682   5.051  13.146  0.00  0.00    +0.000 A 
BRANCH  19  20
ATOM     20  O   UNL     1       8.660   5.959  13.434  0.00  0.00    +0.000 OA
ATOM     21  H   UNL     1       9.329   5.957  12.730  0.00  0.00    +0.000 HD
ENDBRANCH  19  20
ENDBRANCH  12  14
ENDBRANCH   2  12
TORSDOF 5
ENDMDL
MODEL 2
REMARK VINA RESULT:      -7.3      3.259      5.100
REMARK  Name = 
REMARK  6 active torsions:
REMARK  status: ('A' for Active; 'I' for Inactive)
REMARK    1  A    between atoms: C_1  and  O_2
REMARK    2  A    between atoms: O_2  and  C_3
REMARK    3  A    between atoms: C_6  and  C_7
REMARK    4  A    between atoms: C_8  and  C_9
REMARK    5  A    between atoms: C_9  and  C_11
REMARK    6  A    between atoms: C_16  and  O_17
REMARK                            x       y       z     vdW  Elec       q    Type
REMARK                         _______ _______ _______ _____ _____    ______ ____
ROOT
ATOM      1  C   UNL     1       2.950   6.230  18.626  0.00  0.00    +0.000 C 
ATOM      2  C   UNL     1       3.338   5.369  19.576  0.00  0.00    +0.000 C 
ENDROOT
BRANCH   1   6
ATOM      3  C   UNL     1       0.890   9.912  19.401  0.00  0.00    +0.000 A 
ATOM      4  C   UNL     1       1.419   9.630  18.137  0.00  0.00    +0.000 A 
ATOM      5  C   UNL     1       2.094   8.428  17.902  0.00  0.00    +0.000 A 
ATOM      6  C   UNL     1       2.275   7.498  18.930  0.00  0.00    +0.000 A 
ATOM      7  C   UNL     1       1.778   7.797  20.203  0.00  0.00    +0.000 A 
ATOM      8  C   UNL     1       1.102   8.998  20.440  0.00  0.00    +0.000 A 
ATOM      9 BR   UNL     1       0.455   9.322  22.198  0.00  0.00    +0.000 Br
BRANCH   3  11
ATOM     10  C   UNL     1      -1.068  11.165  19.030  0.00  0.00    +0.000 C 
ATOM     11  O   UNL     1       0.196  11.059  19.679  0.00  0.00    +0.000 OA
ENDBRANCH   3  11
ENDBRANCH   1   6
BRANCH   2  12
ATOM     12  C   UNL     1       4.095   4.140  19.227  0.00  0.00    +0.000 C 
ATOM     13  O   UNL     1       3.901   3.072  19.802  0.00  0.00    +0.000 OA
BRANCH  12  14
ATOM     14  C   UNL     1       5.155   4.266  18.191  0.00  0.00    +0.000 A 
ATOM     15  C   UNL     1       4.839   3.859  16.886  0.00  0.00    +0.000 A 
ATOM     16  C   UNL     1       5.785   3.974  15.865  0.00  0.00    +0.000 A 
ATOM     17  C   UNL     1       7.045   4.505  16.135  0.00  0.00    +0.000 A 
ATOM     18  C   UNL     1       7.369   4.918  17.427  0.00  0.00    +0.000 A 
ATOM     19  C   UNL     1       6.428   4.800  18.453  0.00  0.00    +0.000 A 
BRANCH  19  20
ATOM     20  O   UNL     1       6.763   5.237  19.702  0.00  0.00    +0.000 OA
ATOM     21  H   UNL     1       6.282   6.056  19.905  0.00  0.00    +0.000 HD
ENDBRANCH  19  20
ENDBRANCH  12  14
ENDBRANCH   2  12
TORSDOF 5
ENDMDL
MODEL 3
REMARK VINA RESULT:      -7.3      6.219      8.105
REMARK  Name = 
REMARK  6 active torsions:
REMARK  status: ('A' for Active; 'I' for Inactive)
REMARK    1  A    between atoms: C_1  and  O_2
REMARK    2  A    between atoms: O_2  and  C_3
REMARK    3  A    between atoms: C_6  and  C_7
REMARK    4  A    between atoms: C_8  and  C_9
REMARK    5  A    between atoms: C_9  and  C_11
REMARK    6  A    between atoms: C_16  and  O_17
REMARK                            x       y       z     vdW  Elec       q    Type
REMARK                         _______ _______ _______ _____ _____    ______ ____
ROOT
ATOM      1  C   UNL     1       8.833   8.825  19.123  0.00  0.00    +0.000 C 
ATOM      2  C   UNL     1       8.131   8.174  18.186  0.00  0.00    +0.000 C 
ENDROOT
BRANCH   1   6
ATOM      3  C   UNL     1       9.558  13.041  18.807  0.00  0.00    +0.000 A 
ATOM      4  C   UNL     1       9.438  12.240  17.667  0.00  0.00    +0.000 A 
ATOM      5  C   UNL     1       9.208  10.865  17.786  0.00  0.00    +0.000 A 
ATOM      6  C   UNL     1       9.120  10.262  19.045  0.00  0.00    +0.000 A 
ATOM      7  C   UNL     1       9.277  11.059  20.185  0.00  0.00    +0.000 A 
ATOM      8  C   UNL     1       9.506  12.434  20.066  0.00  0.00    +0.000 A 
ATOM      9 BR   UNL     1       9.703  13.443  21.666  0.00  0.00    +0.000 Br
BRANCH   3  11
ATOM     10  C   UNL     1      10.981  14.797  18.146  0.00  0.00    +0.000 C 
ATOM     11  O   UNL     1       9.753  14.396  18.748  0.00  0.00    +0.000 OA
ENDBRANCH   3  11
ENDBRANCH   1   6
BRANCH   2  12
ATOM     12  C   UNL     1       7.790   6.738  18.351  0.00  0.00    +0.000 C 
ATOM     13  O   UNL     1       8.206   6.076  19.299  0.00  0.00    +0.000 OA
BRANCH  12  14
ATOM     14  C   UNL     1       6.972   6.107  17.281  0.00  0.00    +0.000 A 
ATOM     15  C   UNL     1       5.942   6.872  16.713  0.00  0.00    +0.000 A 
ATOM     16  C   UNL     1       5.154   6.342  15.689  0.00  0.00    +0.000 A 
ATOM     17  C   UNL     1       5.395   5.053  15.217  0.00  0.00    +0.000 A 
ATOM     18  C   UNL     1       6.420   4.285  15.769  0.00  0.00    +0.000 A 
ATOM     19  C   UNL     1       7.207   4.809  16.797  0.00  0.00    +0.000 A 
BRANCH  19  20
ATOM     20  O   UNL     1       8.220   4.045  17.302  0.00  0.00    +0.000 OA
ATOM     21  H   UNL     1       8.395   4.295  18.223  0.00  0.00    +0.000 HD
ENDBRANCH  19  20
ENDBRANCH  12  14
ENDBRANCH   2  12
TORSDOF 5
ENDMDL
MODEL 4
REMARK VINA RESULT:      -7.2      1.285      1.609
REMARK  Name = 
REMARK  6 active torsions:
REMARK  status: ('A' for Active; 'I' for Inactive)
REMARK    1  A    between atoms: C_1  and  O_2
REMARK    2  A    between atoms: O_2  and  C_3
REMARK    3  A    between atoms: C_6  and  C_7
REMARK    4  A    between atoms: C_8  and  C_9
REMARK    5  A    between atoms: C_9  and  C_11
REMARK    6  A    between atoms: C_16  and  O_17
REMARK                            x       y       z     vdW  Elec       q    Type
REMARK                         _______ _______ _______ _____ _____    ______ ____
ROOT
ATOM      1  C   UNL     1       4.732   5.317  16.887  0.00  0.00    +0.000 C 
ATOM      2  C   UNL     1       5.980   4.846  16.768  0.00  0.00    +0.000 C 
ENDROOT
BRANCH   1   6
ATOM      3  C   UNL     1       2.038   4.237  20.046  0.00  0.00    +0.000 A 
ATOM      4  C   UNL     1       3.004   5.232  20.227  0.00  0.00    +0.000 A 
ATOM      5  C   UNL     1       3.880   5.569  19.189  0.00  0.00    +0.000 A 
ATOM      6  C   UNL     1       3.824   4.900  17.962  0.00  0.00    +0.000 A 
ATOM      7  C   UNL     1       2.881   3.879  17.795  0.00  0.00    +0.000 A 
ATOM      8  C   UNL     1       2.004   3.542  18.831  0.00  0.00    +0.000 A 
ATOM      9 BR   UNL     1       0.752   2.147  18.518  0.00  0.00    +0.000 Br
BRANCH   3  11
ATOM     10  C   UNL     1       1.587   2.878  21.916  0.00  0.00    +0.000 C 
ATOM     11  O   UNL     1       1.137   3.888  21.017  0.00  0.00    +0.000 OA
ENDBRANCH   3  11
ENDBRANCH   1   6
BRANCH   2  12
ATOM     12  C   UNL     1       6.892   5.363  15.717  0.00  0.00    +0.000 C 
ATOM     13  O   UNL     1       7.677   6.284  15.933  0.00  0.00    +0.000 OA
BRANCH  12  14
ATOM     14  C   UNL     1       6.775   4.764  14.361  0.00  0.00    +0.000 A 
ATOM     15  C   UNL     1       5.704   3.889  14.127  0.00  0.00    +0.000 A 
ATOM     16  C   UNL     1       5.528   3.313  12.867  0.00  0.00    +0.000 A 
ATOM     17  C   UNL     1       6.410   3.615  11.831  0.00  0.00    +0.000 A 
ATOM     18  C   UNL     1       7.475   4.488  12.049  0.00  0.00    +0.000 A 
ATOM     19  C   UNL     1       7.658   5.063  13.309  0.00  0.00    +0.000 A 
BRANCH  19  20
ATOM     20  O   UNL     1       8.693   5.935  13.488  0.00  0.00    +0.000 OA
ATOM     21  H   UNL     1       9.276   5.615  14.195  0.00  0.00    +0.000 HD
ENDBRANCH  19  20
ENDBRANCH  12  14
ENDBRANCH   2  12
TORSDOF 5
ENDMDL
MODEL 5
REMARK VINA RESULT:      -7.2      6.106      8.204
REMARK  Name = 
REMARK  6 active torsions:
REMARK  status: ('A' for Active; 'I' for Inactive)
REMARK    1  A    between atoms: C_1  and  O_2
REMARK    2  A    between atoms: O_2  and  C_3
REMARK    3  A    between atoms: C_6  and  C_7
REMARK    4  A    between atoms: C_8  and  C_9
REMARK    5  A    between atoms: C_9  and  C_11
REMARK    6  A    between atoms: C_16  and  O_17
REMARK                            x       y       z     vdW  Elec       q    Type
REMARK                         _______ _______ _______ _____ _____    ______ ____
ROOT
ATOM      1  C   UNL     1       8.871   9.064  18.596  0.00  0.00    +0.000 C 
ATOM      2  C   UNL     1       8.064   8.341  17.809  0.00  0.00    +0.000 C 
ENDROOT
BRANCH   1   6
ATOM      3  C   UNL     1       9.870  13.143  17.722  0.00  0.00    +0.000 A 
ATOM      4  C   UNL     1      10.865  12.188  17.958  0.00  0.00    +0.000 A 
ATOM      5  C   UNL     1      10.524  10.863  18.248  0.00  0.00    +0.000 A 
ATOM      6  C   UNL     1       9.183  10.474  18.334  0.00  0.00    +0.000 A 
ATOM      7  C   UNL     1       8.188  11.438  18.134  0.00  0.00    +0.000 A 
ATOM      8  C   UNL     1       8.529  12.763  17.842  0.00  0.00    +0.000 A 
ATOM      9 BR   UNL     1       7.115  14.007  17.581  0.00  0.00    +0.000 Br
BRANCH   3  11
ATOM     10  C   UNL     1      10.856  15.168  18.409  0.00  0.00    +0.000 C 
ATOM     11  O   UNL     1      10.149  14.446  17.405  0.00  0.00    +0.000 OA
ENDBRANCH   3  11
ENDBRANCH   1   6
BRANCH   2  12
ATOM     12  C   UNL     1       7.707   6.944  18.162  0.00  0.00    +0.000 C 
ATOM     13  O   UNL     1       8.084   6.422  19.209  0.00  0.00    +0.000 OA
BRANCH  12  14
ATOM     14  C   UNL     1       6.924   6.169  17.163  0.00  0.00    +0.000 A 
ATOM     15  C   UNL     1       5.895   6.838  16.482  0.00  0.00    +0.000 A 
ATOM     16  C   UNL     1       5.140   6.170  15.516  0.00  0.00    +0.000 A 
ATOM     17  C   UNL     1       5.412   4.837  15.214  0.00  0.00    +0.000 A 
ATOM     18  C   UNL     1       6.436   4.162  15.880  0.00  0.00    +0.000 A 
ATOM     19  C   UNL     1       7.191   4.825  16.850  0.00  0.00    +0.000 A 
BRANCH  19  20
ATOM     20  O   UNL     1       8.204   4.149  17.467  0.00  0.00    +0.000 OA
ATOM     21  H   UNL     1       9.015   4.682  17.450  0.00  0.00    +0.000 HD
ENDBRANCH  19  20
ENDBRANCH  12  14
ENDBRANCH   2  12
TORSDOF 5
ENDMDL
MODEL 6
REMARK VINA RESULT:      -7.2      3.971      6.071
REMARK  Name = 
REMARK  6 active torsions:
REMARK  status: ('A' for Active; 'I' for Inactive)
REMARK    1  A    between atoms: C_1  and  O_2
REMARK    2  A    between atoms: O_2  and  C_3
REMARK    3  A    between atoms: C_6  and  C_7
REMARK    4  A    between atoms: C_8  and  C_9
REMARK    5  A    between atoms: C_9  and  C_11
REMARK    6  A    between atoms: C_16  and  O_17
REMARK                            x       y       z     vdW  Elec       q    Type
REMARK                         _______ _______ _______ _____ _____    ______ ____
ROOT
ATOM      1  C   UNL     1       2.658   7.023  19.162  0.00  0.00    +0.000 C 
ATOM      2  C   UNL     1       3.147   6.870  17.924  0.00  0.00    +0.000 C 
ENDROOT
BRANCH   1   6
ATOM      3  C   UNL     1       0.161  10.353  20.196  0.00  0.00    +0.000 A 
ATOM      4  C   UNL     1       0.700  10.224  18.912  0.00  0.00    +0.000 A 
ATOM      5  C   UNL     1       1.518   9.136  18.592  0.00  0.00    +0.000 A 
ATOM      6  C   UNL     1       1.833   8.172  19.555  0.00  0.00    +0.000 A 
ATOM      7  C   UNL     1       1.323   8.322  20.849  0.00  0.00    +0.000 A 
ATOM      8  C   UNL     1       0.504   9.409  21.170  0.00  0.00    +0.000 A 
ATOM      9 BR   UNL     1      -0.150   9.534  22.951  0.00  0.00    +0.000 Br
BRANCH   3  11
ATOM     10  C   UNL     1      -0.035  12.654  20.663  0.00  0.00    +0.000 C 
ATOM     11  O   UNL     1      -0.670  11.382  20.555  0.00  0.00    +0.000 OA
ENDBRANCH   3  11
ENDBRANCH   1   6
BRANCH   2  12
ATOM     12  C   UNL     1       3.902   5.649  17.549  0.00  0.00    +0.000 C 
ATOM     13  O   UNL     1       4.880   5.692  16.805  0.00  0.00    +0.000 OA
BRANCH  12  14
ATOM     14  C   UNL     1       3.390   4.348  18.058  0.00  0.00    +0.000 A 
ATOM     15  C   UNL     1       2.033   4.058  17.849  0.00  0.00    +0.000 A 
ATOM     16  C   UNL     1       1.499   2.843  18.283  0.00  0.00    +0.000 A 
ATOM     17  C   UNL     1       2.314   1.907  18.917  0.00  0.00    +0.000 A 
ATOM     18  C   UNL     1       3.666   2.182  19.125  0.00  0.00    +0.000 A 
ATOM     19  C   UNL     1       4.203   3.397  18.696  0.00  0.00    +0.000 A 
BRANCH  19  20
ATOM     20  O   UNL     1       5.535   3.629  18.889  0.00  0.00    +0.000 OA
ATOM     21  H   UNL     1       5.868   3.064  19.605  0.00  0.00    +0.000 HD
ENDBRANCH  19  20
ENDBRANCH  12  14
ENDBRANCH   2  12
TORSDOF 5
ENDMDL
MODEL 7
REMARK VINA RESULT:      -7.1      6.073      8.212
REMARK  Name = 
REMARK  6 active torsions:
REMARK  status: ('A' for Active; 'I' for Inactive)
REMARK    1  A    between atoms: C_1  and  O_2
REMARK    2  A    between atoms: O_2  and  C_3
REMARK    3  A    between atoms: C_6  and  C_7
REMARK    4  A    between atoms: C_8  and  C_9
REMARK    5  A    between atoms: C_9  and  C_11
REMARK    6  A    between atoms: C_16  and  O_17
REMARK                            x       y       z     vdW  Elec       q    Type
REMARK                         _______ _______ _______ _____ _____    ______ ____
ROOT
ATOM      1  C   UNL     1       8.060   9.091  17.570  0.00  0.00    +0.000 C 
ATOM      2  C   UNL     1       7.880   7.850  18.043  0.00  0.00    +0.000 C 
ENDROOT
BRANCH   1   6
ATOM      3  C   UNL     1      10.127  12.073  19.856  0.00  0.00    +0.000 A 
ATOM      4  C   UNL     1       9.728  10.865  20.436  0.00  0.00    +0.000 A 
ATOM      5  C   UNL     1       9.049   9.904  19.679  0.00  0.00    +0.000 A 
ATOM      6  C   UNL     1       8.733  10.145  18.338  0.00  0.00    +0.000 A 
ATOM      7  C   UNL     1       9.101  11.369  17.769  0.00  0.00    +0.000 A 
ATOM      8  C   UNL     1       9.781  12.330  18.525  0.00  0.00    +0.000 A 
ATOM      9 BR   UNL     1      10.246  13.965  17.673  0.00  0.00    +0.000 Br
BRANCH   3  11
ATOM     10  C   UNL     1      10.043  13.783  21.474  0.00  0.00    +0.000 C 
ATOM     11  O   UNL     1      10.820  13.035  20.542  0.00  0.00    +0.000 OA
ENDBRANCH   3  11
ENDBRANCH   1   6
BRANCH   2  12
ATOM     12  C   UNL     1       7.272   6.793  17.197  0.00  0.00    +0.000 C 
ATOM     13  O   UNL     1       7.783   6.435  16.138  0.00  0.00    +0.000 OA
BRANCH  12  14
ATOM     14  C   UNL     1       5.976   6.221  17.649  0.00  0.00    +0.000 A 
ATOM     15  C   UNL     1       4.822   6.996  17.459  0.00  0.00    +0.000 A 
ATOM     16  C   UNL     1       3.572   6.504  17.842  0.00  0.00    +0.000 A 
ATOM     17  C   UNL     1       3.464   5.233  18.404  0.00  0.00    +0.000 A 
ATOM     18  C   UNL     1       4.603   4.451  18.593  0.00  0.00    +0.000 A 
ATOM     19  C   UNL     1       5.855   4.941  18.216  0.00  0.00    +0.000 A 
BRANCH  19  20
ATOM     20  O   UNL     1       6.950   4.143  18.388  0.00  0.00    +0.000 OA
ATOM     21  H   UNL     1       6.699   3.339  18.870  0.00  0.00    +0.000 HD
ENDBRANCH  19  20
ENDBRANCH  12  14
ENDBRANCH   2  12
TORSDOF 5
ENDMDL
MODEL 8
REMARK VINA RESULT:      -7.0      4.068      5.790
REMARK  Name = 
REMARK  6 active torsions:
REMARK  status: ('A' for Active; 'I' for Inactive)
REMARK    1  A    between atoms: C_1  and  O_2
REMARK    2  A    between atoms: O_2  and  C_3
REMARK    3  A    between atoms: C_6  and  C_7
REMARK    4  A    between atoms: C_8  and  C_9
REMARK    5  A    between atoms: C_9  and  C_11
REMARK    6  A    between atoms: C_16  and  O_17
REMARK                            x       y       z     vdW  Elec       q    Type
REMARK                         _______ _______ _______ _____ _____    ______ ____
ROOT
ATOM      1  C   UNL     1       2.616   7.194  19.272  0.00  0.00    +0.000 C 
ATOM      2  C   UNL     1       2.573   6.549  18.099  0.00  0.00    +0.000 C 
ENDROOT
BRANCH   1   6
ATOM      3  C   UNL     1      -0.169  10.330  20.166  0.00  0.00    +0.000 A 
ATOM      4  C   UNL     1       0.363  10.179  18.881  0.00  0.00    +0.000 A 
ATOM      5  C   UNL     1       1.275   9.155  18.607  0.00  0.00    +0.000 A 
ATOM      6  C   UNL     1       1.692   8.281  19.616  0.00  0.00    +0.000 A 
ATOM      7  C   UNL     1       1.187   8.456  20.909  0.00  0.00    +0.000 A 
ATOM      8  C   UNL     1       0.274   9.479  21.184  0.00  0.00    +0.000 A 
ATOM      9 BR   UNL     1      -0.365   9.644  22.967  0.00  0.00    +0.000 Br
BRANCH   3  11
ATOM     10  C   UNL     1      -1.839  11.793  19.378  0.00  0.00    +0.000 C 
ATOM     11  O   UNL     1      -1.088  11.296  20.483  0.00  0.00    +0.000 OA
ENDBRANCH   3  11
ENDBRANCH   1   6
BRANCH   2  12
ATOM     12  C   UNL     1       3.470   5.397  17.830  0.00  0.00    +0.000 C 
ATOM     13  O   UNL     1       3.033   4.262  17.648  0.00  0.00    +0.000 OA
BRANCH  12  14
ATOM     14  C   UNL     1       4.935   5.655  17.852  0.00  0.00    +0.000 A 
ATOM     15  C   UNL     1       5.393   6.850  17.279  0.00  0.00    +0.000 A 
ATOM     16  C   UNL     1       6.755   7.159  17.290  0.00  0.00    +0.000 A 
ATOM     17  C   UNL     1       7.665   6.287  17.883  0.00  0.00    +0.000 A 
ATOM     18  C   UNL     1       7.221   5.098  18.462  0.00  0.00    +0.000 A 
ATOM     19  C   UNL     1       5.861   4.782  18.449  0.00  0.00    +0.000 A 
BRANCH  19  20
ATOM     20  O   UNL     1       5.450   3.625  19.046  0.00  0.00    +0.000 OA
ATOM     21  H   UNL     1       5.083   3.819  19.923  0.00  0.00    +0.000 HD
ENDBRANCH  19  20
ENDBRANCH  12  14
ENDBRANCH   2  12
TORSDOF 5
ENDMDL
MODEL 9
REMARK VINA RESULT:      -7.0      3.371      5.110
REMARK  Name = 
REMARK  6 active torsions:
REMARK  status: ('A' for Active; 'I' for Inactive)
REMARK    1  A    between atoms: C_1  and  O_2
REMARK    2  A    between atoms: O_2  and  C_3
REMARK    3  A    between atoms: C_6  and  C_7
REMARK    4  A    between atoms: C_8  and  C_9
REMARK    5  A    between atoms: C_9  and  C_11
REMARK    6  A    between atoms: C_16  and  O_17
REMARK                            x       y       z     vdW  Elec       q    Type
REMARK                         _______ _______ _______ _____ _____    ______ ____
ROOT
ATOM      1  C   UNL     1       2.697   6.350  19.433  0.00  0.00    +0.000 C 
ATOM      2  C   UNL     1       2.935   5.867  18.206  0.00  0.00    +0.000 C 
ENDROOT
BRANCH   1   6
ATOM      3  C   UNL     1       0.571  10.032  19.994  0.00  0.00    +0.000 A 
ATOM      4  C   UNL     1       1.183   9.729  18.774  0.00  0.00    +0.000 A 
ATOM      5  C   UNL     1       1.878   8.527  18.608  0.00  0.00    +0.000 A 
ATOM      6  C   UNL     1       1.997   7.619  19.665  0.00  0.00    +0.000 A 
ATOM      7  C   UNL     1       1.415   7.940  20.897  0.00  0.00    +0.000 A 
ATOM      8  C   UNL     1       0.718   9.142  21.063  0.00  0.00    +0.000 A 
ATOM      9 BR   UNL     1      -0.045   9.497  22.768  0.00  0.00    +0.000 Br
BRANCH   3  11
ATOM     10  C   UNL     1       0.637  12.365  20.312  0.00  0.00    +0.000 C 
ATOM     11  O   UNL     1      -0.147  11.181  20.202  0.00  0.00    +0.000 OA
ENDBRANCH   3  11
ENDBRANCH   1   6
BRANCH   2  12
ATOM     12  C   UNL     1       3.568   4.537  18.021  0.00  0.00    +0.000 C 
ATOM     13  O   UNL     1       3.067   3.510  18.475  0.00  0.00    +0.000 OA
BRANCH  12  14
ATOM     14  C   UNL     1       4.877   4.499  17.315  0.00  0.00    +0.000 A 
ATOM     15  C   UNL     1       4.858   4.389  15.917  0.00  0.00    +0.000 A 
ATOM     16  C   UNL     1       6.054   4.372  15.196  0.00  0.00    +0.000 A 
ATOM     17  C   UNL     1       7.274   4.475  15.863  0.00  0.00    +0.000 A 
ATOM     18  C   UNL     1       7.305   4.590  17.253  0.00  0.00    +0.000 A 
ATOM     19  C   UNL     1       6.111   4.603  17.978  0.00  0.00    +0.000 A 
BRANCH  19  20
ATOM     20  O   UNL     1       6.170   4.744  19.335  0.00  0.00    +0.000 OA
ATOM     21  H   UNL     1       5.486   5.365  19.632  0.00  0.00    +0.000 HD
ENDBRANCH  19  20
ENDBRANCH  12  14
ENDBRANCH   2  12
TORSDOF 5
ENDMDL
