MODEL 1
REMARK VINA RESULT:      -7.7      0.000      0.000
REMARK  Name = 
REMARK  6 active torsions:
REMARK  status: ('A' for Active; 'I' for Inactive)
REMARK    1  A    between atoms: C_1  and  C_2
REMARK    2  A    between atoms: C_2  and  N_3
REMARK    3  A    between atoms: N_3  and  C_4
REMARK    4  A    between atoms: N_3  and  C_6
REMARK    5  A    between atoms: C_4  and  C_5
REMARK    6  A    between atoms: C_9  and  C_10
REMARK                            x       y       z     vdW  Elec       q    Type
REMARK                         _______ _______ _______ _____ _____    ______ ____
ROOT
ATOM      1  C   UNL     1       0.712   9.185  19.904  0.00  0.00    +0.000 A 
ATOM      2  C   UNL     1       1.048   9.589  18.605  0.00  0.00    +0.000 A 
ATOM      3  C   UNL     1       2.032   8.907  17.877  0.00  0.00    +0.000 A 
ATOM      4  C   UNL     1       2.726   7.849  18.462  0.00  0.00    +0.000 A 
ATOM      5  C   UNL     1       2.436   7.476  19.783  0.00  0.00    +0.000 A 
ATOM      6  C   UNL     1       1.420   8.130  20.491  0.00  0.00    +0.000 A 
ENDROOT
BRANCH   4   7
ATOM      7  C   UNL     1       3.469   6.925  17.609  0.00  0.00    +0.000 C 
ATOM      8  C   UNL     1       3.507   5.583  17.503  0.00  0.00    +0.000 C 
ATOM      9  C   UNL     1       4.690   5.025  16.853  0.00  0.00    +0.000 C 
ATOM     10  C   UNL     1       4.597   3.694  16.768  0.00  0.00    +0.000 C 
ATOM     11  C   UNL     1       3.424   3.301  17.532  0.00  0.00    +0.000 A 
ATOM     12  C   UNL     1       3.073   2.015  17.901  0.00  0.00    +0.000 A 
ATOM     13  C   UNL     1       1.910   1.839  18.642  0.00  0.00    +0.000 A 
ATOM     14  C   UNL     1       1.102   2.943  18.962  0.00  0.00    +0.000 A 
ATOM     15  C   UNL     1       1.489   4.253  18.621  0.00  0.00    +0.000 A 
ATOM     16  C   UNL     1       2.694   4.431  17.960  0.00  0.00    +0.000 A 
ENDBRANCH   4   7
BRANCH   1  17
ATOM     17  N   UNL     1      -0.305   9.817  20.668  0.00  0.00    +0.000 N 
BRANCH  17  19
ATOM     18  C   UNL     1      -1.362  12.046  20.183  0.00  0.00    +0.000 C 
ATOM     19  C   UNL     1      -0.194  11.284  20.815  0.00  0.00    +0.000 C 
ENDBRANCH  17  19
BRANCH  17  20
ATOM     20  C   UNL     1      -0.422   9.045  21.930  0.00  0.00    +0.000 C 
ATOM     21  C   UNL     1      -0.432   9.923  23.167  0.00  0.00    +0.000 C 
ENDBRANCH  17  20
ENDBRANCH   1  17
TORSDOF 4
ENDMDL
MODEL 2
REMARK VINA RESULT:      -7.6      0.857      1.369
REMARK  Name = 
REMARK  6 active torsions:
REMARK  status: ('A' for Active; 'I' for Inactive)
REMARK    1  A    between atoms: C_1  and  C_2
REMARK    2  A    between atoms: C_2  and  N_3
REMARK    3  A    between atoms: N_3  and  C_4
REMARK    4  A    between atoms: N_3  and  C_6
REMARK    5  A    between atoms: C_4  and  C_5
REMARK    6  A    between atoms: C_9  and  C_10
REMARK                            x       y       z     vdW  Elec       q    Type
REMARK                         _______ _______ _______ _____ _____    ______ ____
ROOT
ATOM      1  C   UNL     1       0.716   9.912  20.055  0.00  0.00    +0.000 A 
ATOM      2  C   UNL     1       1.196   8.713  20.600  0.00  0.00    +0.000 A 
ATOM      3  C   UNL     1       1.956   7.828  19.823  0.00  0.00    +0.000 A 
ATOM      4  C   UNL     1       2.197   8.110  18.479  0.00  0.00    +0.000 A 
ATOM      5  C   UNL     1       1.671   9.279  17.911  0.00  0.00    +0.000 A 
ATOM      6  C   UNL     1       0.951  10.183  18.702  0.00  0.00    +0.000 A 
ENDROOT
BRANCH   4   7
ATOM      7  C   UNL     1       3.266   7.400  17.782  0.00  0.00    +0.000 C 
ATOM      8  C   UNL     1       3.563   6.097  17.615  0.00  0.00    +0.000 C 
ATOM      9  C   UNL     1       4.943   5.798  17.242  0.00  0.00    +0.000 C 
ATOM     10  C   UNL     1       5.108   4.482  17.066  0.00  0.00    +0.000 C 
ATOM     11  C   UNL     1       3.880   3.838  17.501  0.00  0.00    +0.000 A 
ATOM     12  C   UNL     1       3.686   2.484  17.705  0.00  0.00    +0.000 A 
ATOM     13  C   UNL     1       2.435   2.056  18.133  0.00  0.00    +0.000 A 
ATOM     14  C   UNL     1       1.393   2.984  18.306  0.00  0.00    +0.000 A 
ATOM     15  C   UNL     1       1.611   4.364  18.140  0.00  0.00    +0.000 A 
ATOM     16  C   UNL     1       2.884   4.793  17.801  0.00  0.00    +0.000 A 
ENDBRANCH   4   7
BRANCH   1  17
ATOM     17  N   UNL     1      -0.024  10.860  20.811  0.00  0.00    +0.000 N 
BRANCH  17  19
ATOM     18  C   UNL     1      -0.243  13.295  20.226  0.00  0.00    +0.000 C 
ATOM     19  C   UNL     1       0.573  12.207  20.930  0.00  0.00    +0.000 C 
ENDBRANCH  17  19
BRANCH  17  20
ATOM     20  C   UNL     1      -0.379  10.193  22.087  0.00  0.00    +0.000 C 
ATOM     21  C   UNL     1      -1.212  11.067  23.005  0.00  0.00    +0.000 C 
ENDBRANCH  17  20
ENDBRANCH   1  17
TORSDOF 4
ENDMDL
MODEL 3
REMARK VINA RESULT:      -7.5      0.776      1.873
REMARK  Name = 
REMARK  6 active torsions:
REMARK  status: ('A' for Active; 'I' for Inactive)
REMARK    1  A    between atoms: C_1  and  C_2
REMARK    2  A    between atoms: C_2  and  N_3
REMARK    3  A    between atoms: N_3  and  C_4
REMARK    4  A    between atoms: N_3  and  C_6
REMARK    5  A    between atoms: C_4  and  C_5
REMARK    6  A    between atoms: C_9  and  C_10
REMARK                            x       y       z     vdW  Elec       q    Type
REMARK                         _______ _______ _______ _____ _____    ______ ____
ROOT
ATOM      1  C   UNL     1       1.075   9.781  20.142  0.00  0.00    +0.000 A 
ATOM      2  C   UNL     1       1.427   8.520  20.639  0.00  0.00    +0.000 A 
ATOM      3  C   UNL     1       2.081   7.586  19.823  0.00  0.00    +0.000 A 
ATOM      4  C   UNL     1       2.337   7.888  18.486  0.00  0.00    +0.000 A 
ATOM      5  C   UNL     1       1.935   9.126  17.965  0.00  0.00    +0.000 A 
ATOM      6  C   UNL     1       1.324  10.074  18.796  0.00  0.00    +0.000 A 
ENDROOT
BRANCH   4   7
ATOM      7  C   UNL     1       3.317   7.091  17.751  0.00  0.00    +0.000 C 
ATOM      8  C   UNL     1       3.527   5.768  17.616  0.00  0.00    +0.000 C 
ATOM      9  C   UNL     1       4.861   5.375  17.170  0.00  0.00    +0.000 C 
ATOM     10  C   UNL     1       4.939   4.046  17.033  0.00  0.00    +0.000 C 
ATOM     11  C   UNL     1       3.706   3.492  17.568  0.00  0.00    +0.000 A 
ATOM     12  C   UNL     1       3.448   2.160  17.834  0.00  0.00    +0.000 A 
ATOM     13  C   UNL     1       2.205   1.822  18.355  0.00  0.00    +0.000 A 
ATOM     14  C   UNL     1       1.231   2.815  18.557  0.00  0.00    +0.000 A 
ATOM     15  C   UNL     1       1.516   4.174  18.326  0.00  0.00    +0.000 A 
ATOM     16  C   UNL     1       2.788   4.514  17.892  0.00  0.00    +0.000 A 
ENDBRANCH   4   7
BRANCH   1  17
ATOM     17  N   UNL     1       0.448  10.776  20.939  0.00  0.00    +0.000 N 
BRANCH  17  19
ATOM     18  C   UNL     1      -0.580  10.103  23.132  0.00  0.00    +0.000 C 
ATOM     19  C   UNL     1      -0.788  10.368  21.639  0.00  0.00    +0.000 C 
ENDBRANCH  17  19
BRANCH  17  20
ATOM     20  C   UNL     1       0.344  11.989  20.091  0.00  0.00    +0.000 C 
ATOM     21  C   UNL     1       0.880  13.237  20.765  0.00  0.00    +0.000 C 
ENDBRANCH  17  20
ENDBRANCH   1  17
TORSDOF 4
ENDMDL
MODEL 4
REMARK VINA RESULT:      -7.4      1.022      1.144
REMARK  Name = 
REMARK  6 active torsions:
REMARK  status: ('A' for Active; 'I' for Inactive)
REMARK    1  A    between atoms: C_1  and  C_2
REMARK    2  A    between atoms: C_2  and  N_3
REMARK    3  A    between atoms: N_3  and  C_4
REMARK    4  A    between atoms: N_3  and  C_6
REMARK    5  A    between atoms: C_4  and  C_5
REMARK    6  A    between atoms: C_9  and  C_10
REMARK                            x       y       z     vdW  Elec       q    Type
REMARK                         _______ _______ _______ _____ _____    ______ ____
ROOT
ATOM      1  C   UNL     1       0.307   9.782  19.917  0.00  0.00    +0.000 A 
ATOM      2  C   UNL     1       0.573   9.953  18.552  0.00  0.00    +0.000 A 
ATOM      3  C   UNL     1       1.479   9.113  17.890  0.00  0.00    +0.000 A 
ATOM      4  C   UNL     1       2.167   8.130  18.601  0.00  0.00    +0.000 A 
ATOM      5  C   UNL     1       1.949   7.991  19.979  0.00  0.00    +0.000 A 
ATOM      6  C   UNL     1       1.009   8.801  20.628  0.00  0.00    +0.000 A 
ENDROOT
BRANCH   4   7
ATOM      7  C   UNL     1       2.815   7.044  17.870  0.00  0.00    +0.000 C 
ATOM      8  C   UNL     1       2.932   5.719  18.084  0.00  0.00    +0.000 C 
ATOM      9  C   UNL     1       4.021   5.051  17.377  0.00  0.00    +0.000 C 
ATOM     10  C   UNL     1       4.013   3.738  17.633  0.00  0.00    +0.000 C 
ATOM     11  C   UNL     1       3.025   3.516  18.675  0.00  0.00    +0.000 A 
ATOM     12  C   UNL     1       2.841   2.353  19.402  0.00  0.00    +0.000 A 
ATOM     13  C   UNL     1       1.843   2.334  20.369  0.00  0.00    +0.000 A 
ATOM     14  C   UNL     1       1.024   3.460  20.561  0.00  0.00    +0.000 A 
ATOM     15  C   UNL     1       1.247   4.654  19.849  0.00  0.00    +0.000 A 
ATOM     16  C   UNL     1       2.301   4.696  18.949  0.00  0.00    +0.000 A 
ENDBRANCH   4   7
BRANCH   1  17
ATOM     17  N   UNL     1      -0.632  10.580  20.624  0.00  0.00    +0.000 N 
BRANCH  17  19
ATOM     18  C   UNL     1      -0.427  13.067  20.312  0.00  0.00    +0.000 C 
ATOM     19  C   UNL     1      -1.141  11.772  19.913  0.00  0.00    +0.000 C 
ENDBRANCH  17  19
BRANCH  17  20
ATOM     20  C   UNL     1      -0.048  10.824  21.965  0.00  0.00    +0.000 C 
ATOM     21  C   UNL     1      -1.040  10.620  23.095  0.00  0.00    +0.000 C 
ENDBRANCH  17  20
ENDBRANCH   1  17
TORSDOF 4
ENDMDL
MODEL 5
REMARK VINA RESULT:      -7.3      0.831      1.148
REMARK  Name = 
REMARK  6 active torsions:
REMARK  status: ('A' for Active; 'I' for Inactive)
REMARK    1  A    between atoms: C_1  and  C_2
REMARK    2  A    between atoms: C_2  and  N_3
REMARK    3  A    between atoms: N_3  and  C_4
REMARK    4  A    between atoms: N_3  and  C_6
REMARK    5  A    between atoms: C_4  and  C_5
REMARK    6  A    between atoms: C_9  and  C_10
REMARK                            x       y       z     vdW  Elec       q    Type
REMARK                         _______ _______ _______ _____ _____    ______ ____
ROOT
ATOM      1  C   UNL     1       0.706   9.322  19.384  0.00  0.00    +0.000 A 
ATOM      2  C   UNL     1       1.236   9.660  18.132  0.00  0.00    +0.000 A 
ATOM      3  C   UNL     1       2.284   8.915  17.575  0.00  0.00    +0.000 A 
ATOM      4  C   UNL     1       2.848   7.859  18.291  0.00  0.00    +0.000 A 
ATOM      5  C   UNL     1       2.361   7.552  19.570  0.00  0.00    +0.000 A 
ATOM      6  C   UNL     1       1.283   8.269  20.103  0.00  0.00    +0.000 A 
ENDROOT
BRANCH   4   7
ATOM      7  C   UNL     1       3.665   6.876  17.585  0.00  0.00    +0.000 C 
ATOM      8  C   UNL     1       3.663   5.530  17.533  0.00  0.00    +0.000 C 
ATOM      9  C   UNL     1       4.902   4.905  17.079  0.00  0.00    +0.000 C 
ATOM     10  C   UNL     1       4.768   3.575  17.028  0.00  0.00    +0.000 C 
ATOM     11  C   UNL     1       3.484   3.255  17.631  0.00  0.00    +0.000 A 
ATOM     12  C   UNL     1       3.033   1.999  17.992  0.00  0.00    +0.000 A 
ATOM     13  C   UNL     1       1.771   1.894  18.566  0.00  0.00    +0.000 A 
ATOM     14  C   UNL     1       0.971   3.038  18.727  0.00  0.00    +0.000 A 
ATOM     15  C   UNL     1       1.455   4.318  18.399  0.00  0.00    +0.000 A 
ATOM     16  C   UNL     1       2.748   4.427  17.910  0.00  0.00    +0.000 A 
ENDBRANCH   4   7
BRANCH   1  17
ATOM     17  N   UNL     1      -0.382  10.020  19.974  0.00  0.00    +0.000 N 
BRANCH  17  19
ATOM     18  C   UNL     1      -2.227  10.189  18.274  0.00  0.00    +0.000 C 
ATOM     19  C   UNL     1      -1.145  10.915  19.078  0.00  0.00    +0.000 C 
ENDBRANCH  17  19
BRANCH  17  20
ATOM     20  C   UNL     1       0.140  10.637  21.217  0.00  0.00    +0.000 C 
ATOM     21  C   UNL     1       0.703  12.029  21.001  0.00  0.00    +0.000 C 
ENDBRANCH  17  20
ENDBRANCH   1  17
TORSDOF 4
ENDMDL
MODEL 6
REMARK VINA RESULT:      -7.2      3.999      7.589
REMARK  Name = 
REMARK  6 active torsions:
REMARK  status: ('A' for Active; 'I' for Inactive)
REMARK    1  A    between atoms: C_1  and  C_2
REMARK    2  A    between atoms: C_2  and  N_3
REMARK    3  A    between atoms: N_3  and  C_4
REMARK    4  A    between atoms: N_3  and  C_6
REMARK    5  A    between atoms: C_4  and  C_5
REMARK    6  A    between atoms: C_9  and  C_10
REMARK                            x       y       z     vdW  Elec       q    Type
REMARK                         _______ _______ _______ _____ _____    ______ ____
ROOT
ATOM      1  C   UNL     1       6.436   4.738  14.825  0.00  0.00    +0.000 A 
ATOM      2  C   UNL     1       6.930   4.298  16.061  0.00  0.00    +0.000 A 
ATOM      3  C   UNL     1       6.419   4.814  17.259  0.00  0.00    +0.000 A 
ATOM      4  C   UNL     1       5.448   5.814  17.231  0.00  0.00    +0.000 A 
ATOM      5  C   UNL     1       4.990   6.301  15.998  0.00  0.00    +0.000 A 
ATOM      6  C   UNL     1       5.469   5.750  14.803  0.00  0.00    +0.000 A 
ENDROOT
BRANCH   4   7
ATOM      7  C   UNL     1       4.668   6.085  18.436  0.00  0.00    +0.000 C 
ATOM      8  C   UNL     1       3.594   5.501  19.000  0.00  0.00    +0.000 C 
ATOM      9  C   UNL     1       2.842   6.321  19.946  0.00  0.00    +0.000 C 
ATOM     10  C   UNL     1       1.827   5.625  20.470  0.00  0.00    +0.000 C 
ATOM     11  C   UNL     1       1.757   4.367  19.745  0.00  0.00    +0.000 A 
ATOM     12  C   UNL     1       0.730   3.441  19.797  0.00  0.00    +0.000 A 
ATOM     13  C   UNL     1       0.840   2.294  19.020  0.00  0.00    +0.000 A 
ATOM     14  C   UNL     1       1.990   2.076  18.242  0.00  0.00    +0.000 A 
ATOM     15  C   UNL     1       3.009   3.043  18.159  0.00  0.00    +0.000 A 
ATOM     16  C   UNL     1       2.853   4.225  18.866  0.00  0.00    +0.000 A 
ENDBRANCH   4   7
BRANCH   1  17
ATOM     17  N   UNL     1       6.891   4.218  13.584  0.00  0.00    +0.000 N 
BRANCH  17  19
ATOM     18  C   UNL     1       8.771   5.803  13.060  0.00  0.00    +0.000 C 
ATOM     19  C   UNL     1       7.432   5.203  12.623  0.00  0.00    +0.000 C 
ENDBRANCH  17  19
BRANCH  17  20
ATOM     20  C   UNL     1       5.808   3.341  13.075  0.00  0.00    +0.000 C 
ATOM     21  C   UNL     1       6.088   2.791  11.689  0.00  0.00    +0.000 C 
ENDBRANCH  17  20
ENDBRANCH   1  17
TORSDOF 4
ENDMDL
MODEL 7
REMARK VINA RESULT:      -7.2      1.406      3.098
REMARK  Name = 
REMARK  6 active torsions:
REMARK  status: ('A' for Active; 'I' for Inactive)
REMARK    1  A    between atoms: C_1  and  C_2
REMARK    2  A    between atoms: C_2  and  N_3
REMARK    3  A    between atoms: N_3  and  C_4
REMARK    4  A    between atoms: N_3  and  C_6
REMARK    5  A    between atoms: C_4  and  C_5
REMARK    6  A    between atoms: C_9  and  C_10
REMARK                            x       y       z     vdW  Elec       q    Type
REMARK                         _______ _______ _______ _____ _____    ______ ____
ROOT
ATOM      1  C   UNL     1       0.893   9.949  19.303  0.00  0.00    +0.000 A 
ATOM      2  C   UNL     1       1.466   9.446  18.128  0.00  0.00    +0.000 A 
ATOM      3  C   UNL     1       2.062   8.177  18.108  0.00  0.00    +0.000 A 
ATOM      4  C   UNL     1       2.139   7.425  19.279  0.00  0.00    +0.000 A 
ATOM      5  C   UNL     1       1.620   7.946  20.473  0.00  0.00    +0.000 A 
ATOM      6  C   UNL     1       0.984   9.193  20.479  0.00  0.00    +0.000 A 
ENDROOT
BRANCH   4   7
ATOM      7  C   UNL     1       2.417   5.993  19.189  0.00  0.00    +0.000 C 
ATOM      8  C   UNL     1       3.145   5.239  18.345  0.00  0.00    +0.000 C 
ATOM      9  C   UNL     1       2.819   3.816  18.314  0.00  0.00    +0.000 C 
ATOM     10  C   UNL     1       3.630   3.164  17.474  0.00  0.00    +0.000 C 
ATOM     11  C   UNL     1       4.409   4.170  16.771  0.00  0.00    +0.000 A 
ATOM     12  C   UNL     1       5.207   3.967  15.660  0.00  0.00    +0.000 A 
ATOM     13  C   UNL     1       5.872   5.061  15.120  0.00  0.00    +0.000 A 
ATOM     14  C   UNL     1       5.760   6.325  15.725  0.00  0.00    +0.000 A 
ATOM     15  C   UNL     1       4.911   6.532  16.828  0.00  0.00    +0.000 A 
ATOM     16  C   UNL     1       4.181   5.456  17.308  0.00  0.00    +0.000 A 
ENDBRANCH   4   7
BRANCH   1  17
ATOM     17  N   UNL     1       0.242  11.210  19.365  0.00  0.00    +0.000 N 
BRANCH  17  19
ATOM     18  C   UNL     1       1.785  13.008  20.205  0.00  0.00    +0.000 C 
ATOM     19  C   UNL     1       0.608  12.077  20.505  0.00  0.00    +0.000 C 
ENDBRANCH  17  19
BRANCH  17  20
ATOM     20  C   UNL     1      -1.206  10.942  19.192  0.00  0.00    +0.000 C 
ATOM     21  C   UNL     1      -1.776  11.545  17.922  0.00  0.00    +0.000 C 
ENDBRANCH  17  20
ENDBRANCH   1  17
TORSDOF 4
ENDMDL
MODEL 8
REMARK VINA RESULT:      -7.2      1.458      3.102
REMARK  Name = 
REMARK  6 active torsions:
REMARK  status: ('A' for Active; 'I' for Inactive)
REMARK    1  A    between atoms: C_1  and  C_2
REMARK    2  A    between atoms: C_2  and  N_3
REMARK    3  A    between atoms: N_3  and  C_4
REMARK    4  A    between atoms: N_3  and  C_6
REMARK    5  A    between atoms: C_4  and  C_5
REMARK    6  A    between atoms: C_9  and  C_10
REMARK                            x       y       z     vdW  Elec       q    Type
REMARK                         _______ _______ _______ _____ _____    ______ ____
ROOT
ATOM      1  C   UNL     1       0.730   9.801  19.545  0.00  0.00    +0.000 A 
ATOM      2  C   UNL     1       1.354   9.353  18.374  0.00  0.00    +0.000 A 
ATOM      3  C   UNL     1       2.045   8.133  18.354  0.00  0.00    +0.000 A 
ATOM      4  C   UNL     1       2.162   7.379  19.520  0.00  0.00    +0.000 A 
ATOM      5  C   UNL     1       1.589   7.849  20.710  0.00  0.00    +0.000 A 
ATOM      6  C   UNL     1       0.861   9.045  20.716  0.00  0.00    +0.000 A 
ENDROOT
BRANCH   4   7
ATOM      7  C   UNL     1       2.549   5.973  19.424  0.00  0.00    +0.000 C 
ATOM      8  C   UNL     1       3.244   5.260  18.518  0.00  0.00    +0.000 C 
ATOM      9  C   UNL     1       3.037   3.815  18.546  0.00  0.00    +0.000 C 
ATOM     10  C   UNL     1       3.806   3.210  17.633  0.00  0.00    +0.000 C 
ATOM     11  C   UNL     1       4.417   4.259  16.834  0.00  0.00    +0.000 A 
ATOM     12  C   UNL     1       5.106   4.094  15.646  0.00  0.00    +0.000 A 
ATOM     13  C   UNL     1       5.615   5.225  15.019  0.00  0.00    +0.000 A 
ATOM     14  C   UNL     1       5.463   6.490  15.612  0.00  0.00    +0.000 A 
ATOM     15  C   UNL     1       4.722   6.655  16.797  0.00  0.00    +0.000 A 
ATOM     16  C   UNL     1       4.141   5.535  17.371  0.00  0.00    +0.000 A 
ENDBRANCH   4   7
BRANCH   1  17
ATOM     17  N   UNL     1      -0.016  11.009  19.606  0.00  0.00    +0.000 N 
BRANCH  17  19
ATOM     18  C   UNL     1      -2.122  10.446  18.355  0.00  0.00    +0.000 C 
ATOM     19  C   UNL     1      -0.863  11.313  18.434  0.00  0.00    +0.000 C 
ENDBRANCH  17  19
BRANCH  17  20
ATOM     20  C   UNL     1       0.939  12.070  20.010  0.00  0.00    +0.000 C 
ATOM     21  C   UNL     1       1.254  13.046  18.892  0.00  0.00    +0.000 C 
ENDBRANCH  17  20
ENDBRANCH   1  17
TORSDOF 4
ENDMDL
MODEL 9
REMARK VINA RESULT:      -7.2      1.131      1.828
REMARK  Name = 
REMARK  6 active torsions:
REMARK  status: ('A' for Active; 'I' for Inactive)
REMARK    1  A    between atoms: C_1  and  C_2
REMARK    2  A    between atoms: C_2  and  N_3
REMARK    3  A    between atoms: N_3  and  C_4
REMARK    4  A    between atoms: N_3  and  C_6
REMARK    5  A    between atoms: C_4  and  C_5
REMARK    6  A    between atoms: C_9  and  C_10
REMARK                            x       y       z     vdW  Elec       q    Type
REMARK                         _______ _______ _______ _____ _____    ______ ____
ROOT
ATOM      1  C   UNL     1       0.807  10.018  19.630  0.00  0.00    +0.000 A 
ATOM      2  C   UNL     1       1.169   8.833  20.284  0.00  0.00    +0.000 A 
ATOM      3  C   UNL     1       1.955   7.870  19.636  0.00  0.00    +0.000 A 
ATOM      4  C   UNL     1       2.338   8.060  18.309  0.00  0.00    +0.000 A 
ATOM      5  C   UNL     1       1.931   9.217  17.629  0.00  0.00    +0.000 A 
ATOM      6  C   UNL     1       1.185  10.198  18.294  0.00  0.00    +0.000 A 
ENDROOT
BRANCH   4   7
ATOM      7  C   UNL     1       3.433   7.262  17.762  0.00  0.00    +0.000 C 
ATOM      8  C   UNL     1       3.673   5.939  17.691  0.00  0.00    +0.000 C 
ATOM      9  C   UNL     1       5.065   5.552  17.478  0.00  0.00    +0.000 C 
ATOM     10  C   UNL     1       5.176   4.222  17.383  0.00  0.00    +0.000 C 
ATOM     11  C   UNL     1       3.877   3.664  17.719  0.00  0.00    +0.000 A 
ATOM     12  C   UNL     1       3.590   2.334  17.967  0.00  0.00    +0.000 A 
ATOM     13  C   UNL     1       2.280   1.992  18.283  0.00  0.00    +0.000 A 
ATOM     14  C   UNL     1       1.278   2.978  18.302  0.00  0.00    +0.000 A 
ATOM     15  C   UNL     1       1.586   4.335  18.093  0.00  0.00    +0.000 A 
ATOM     16  C   UNL     1       2.909   4.682  17.867  0.00  0.00    +0.000 A 
ENDBRANCH   4   7
BRANCH   1  17
ATOM     17  N   UNL     1       0.046  11.042  20.255  0.00  0.00    +0.000 N 
BRANCH  17  19
ATOM     18  C   UNL     1      -2.005  10.869  18.812  0.00  0.00    +0.000 C 
ATOM     19  C   UNL     1      -0.908  11.767  19.389  0.00  0.00    +0.000 C 
ENDBRANCH  17  19
BRANCH  17  20
ATOM     20  C   UNL     1       1.012  11.883  21.004  0.00  0.00    +0.000 C 
ATOM     21  C   UNL     1       1.145  13.285  20.440  0.00  0.00    +0.000 C 
ENDBRANCH  17  20
ENDBRANCH   1  17
TORSDOF 4
ENDMDL
