MODEL 1
REMARK VINA RESULT:      -6.9      0.000      0.000
REMARK  Name = 
REMARK  7 active torsions:
REMARK  status: ('A' for Active; 'I' for Inactive)
REMARK    1  A    between atoms: C_1  and  O_2
REMARK    2  A    between atoms: O_2  and  C_3
REMARK    3  A    between atoms: C_6  and  O_7
REMARK    4  A    between atoms: O_7  and  C_8
REMARK    5  A    between atoms: C_8  and  C_9
REMARK    6  A    between atoms: C_10  and  C_11
REMARK    7  A    between atoms: C_11  and  N_12
REMARK                            x       y       z     vdW  Elec       q    Type
REMARK                         _______ _______ _______ _____ _____    ______ ____
ROOT
ATOM      1  C   UNL     1       7.507   4.806  16.647  0.00  0.00    +0.000 C 
ENDROOT
BRANCH   1   2
ATOM      2  C   UNL     1       6.423   5.102  17.671  0.00  0.00    +0.000 C 
ATOM      3  C   UNL     1       5.494   5.358  18.548  0.00  0.00    +0.000 C 
BRANCH   3   4
ATOM      4  C   UNL     1       4.409   5.654  19.572  0.00  0.00    +0.000 C 
BRANCH   4   5
ATOM      5  N   UNL     1       3.317   4.677  19.502  0.00  0.00    +0.000 NA
ATOM      6  C   UNL     1       2.231   5.016  20.424  0.00  0.00    +0.000 C 
ATOM      7  C   UNL     1       1.526   3.763  20.946  0.00  0.00    +0.000 C 
ATOM      8  C   UNL     1       0.540   3.117  19.983  0.00  0.00    +0.000 C 
ATOM      9  C   UNL     1       1.130   2.726  18.634  0.00  0.00    +0.000 C 
ATOM     10  C   UNL     1       1.524   3.941  17.808  0.00  0.00    +0.000 C 
ATOM     11  C   UNL     1       2.929   4.463  18.099  0.00  0.00    +0.000 C 
ENDBRANCH   4   5
ENDBRANCH   3   4
ENDBRANCH   1   2
BRANCH   1  12
ATOM     12  O   UNL     1       7.275   5.568  15.462  0.00  0.00    +0.000 OA
BRANCH  12  16
ATOM     13  C   UNL     1       5.736   3.425  12.215  0.00  0.00    +0.000 A 
ATOM     14  C   UNL     1       5.070   3.498  13.441  0.00  0.00    +0.000 A 
ATOM     15  C   UNL     1       5.618   4.233  14.497  0.00  0.00    +0.000 A 
ATOM     16  C   UNL     1       6.854   4.862  14.364  0.00  0.00    +0.000 A 
ATOM     17  C   UNL     1       7.525   4.777  13.142  0.00  0.00    +0.000 A 
ATOM     18  C   UNL     1       6.966   4.056  12.074  0.00  0.00    +0.000 A 
BRANCH  13  20
ATOM     19  C   UNL     1       3.758   3.086  10.959  0.00  0.00    +0.000 C 
ATOM     20  O   UNL     1       5.096   2.693  11.249  0.00  0.00    +0.000 OA
ENDBRANCH  13  20
ENDBRANCH  12  16
ENDBRANCH   1  12
TORSDOF 6
ENDMDL
MODEL 2
REMARK VINA RESULT:      -6.7      0.975      1.964
REMARK  Name = 
REMARK  7 active torsions:
REMARK  status: ('A' for Active; 'I' for Inactive)
REMARK    1  A    between atoms: C_1  and  O_2
REMARK    2  A    between atoms: O_2  and  C_3
REMARK    3  A    between atoms: C_6  and  O_7
REMARK    4  A    between atoms: O_7  and  C_8
REMARK    5  A    between atoms: C_8  and  C_9
REMARK    6  A    between atoms: C_10  and  C_11
REMARK    7  A    between atoms: C_11  and  N_12
REMARK                            x       y       z     vdW  Elec       q    Type
REMARK                         _______ _______ _______ _____ _____    ______ ____
ROOT
ATOM      1  C   UNL     1       7.262   5.573  17.052  0.00  0.00    +0.000 C 
ENDROOT
BRANCH   1   2
ATOM      2  C   UNL     1       5.867   6.080  17.382  0.00  0.00    +0.000 C 
ATOM      3  C   UNL     1       4.672   6.516  17.667  0.00  0.00    +0.000 C 
BRANCH   3   4
ATOM      4  C   UNL     1       3.277   7.023  17.997  0.00  0.00    +0.000 C 
BRANCH   4   5
ATOM      5  N   UNL     1       2.439   5.966  18.574  0.00  0.00    +0.000 NA
ATOM      6  C   UNL     1       2.647   4.684  17.899  0.00  0.00    +0.000 C 
ATOM      7  C   UNL     1       1.373   3.839  17.891  0.00  0.00    +0.000 C 
ATOM      8  C   UNL     1       1.050   3.127  19.198  0.00  0.00    +0.000 C 
ATOM      9  C   UNL     1       0.931   4.043  20.410  0.00  0.00    +0.000 C 
ATOM     10  C   UNL     1       2.266   4.667  20.789  0.00  0.00    +0.000 C 
ATOM     11  C   UNL     1       2.586   5.957  20.037  0.00  0.00    +0.000 C 
ENDBRANCH   4   5
ENDBRANCH   3   4
ENDBRANCH   1   2
BRANCH   1  12
ATOM     12  O   UNL     1       7.584   5.890  15.697  0.00  0.00    +0.000 OA
BRANCH  12  16
ATOM     13  C   UNL     1       5.979   3.524  12.642  0.00  0.00    +0.000 A 
ATOM     14  C   UNL     1       7.145   4.274  12.467  0.00  0.00    +0.000 A 
ATOM     15  C   UNL     1       7.651   5.045  13.519  0.00  0.00    +0.000 A 
ATOM     16  C   UNL     1       6.979   5.118  14.738  0.00  0.00    +0.000 A 
ATOM     17  C   UNL     1       5.806   4.379  14.907  0.00  0.00    +0.000 A 
ATOM     18  C   UNL     1       5.309   3.588  13.857  0.00  0.00    +0.000 A 
BRANCH  13  20
ATOM     19  C   UNL     1       4.227   2.935  11.161  0.00  0.00    +0.000 C 
ATOM     20  O   UNL     1       5.590   2.793  11.550  0.00  0.00    +0.000 OA
ENDBRANCH  13  20
ENDBRANCH  12  16
ENDBRANCH   1  12
TORSDOF 6
ENDMDL
MODEL 3
REMARK VINA RESULT:      -6.7      6.141      8.385
REMARK  Name = 
REMARK  7 active torsions:
REMARK  status: ('A' for Active; 'I' for Inactive)
REMARK    1  A    between atoms: C_1  and  O_2
REMARK    2  A    between atoms: O_2  and  C_3
REMARK    3  A    between atoms: C_6  and  O_7
REMARK    4  A    between atoms: O_7  and  C_8
REMARK    5  A    between atoms: C_8  and  C_9
REMARK    6  A    between atoms: C_10  and  C_11
REMARK    7  A    between atoms: C_11  and  N_12
REMARK                            x       y       z     vdW  Elec       q    Type
REMARK                         _______ _______ _______ _____ _____    ______ ____
ROOT
ATOM      1  C   UNL     1       8.319   9.276  18.161  0.00  0.00    +0.000 C 
ENDROOT
BRANCH   1   2
ATOM      2  C   UNL     1       8.129   7.775  18.313  0.00  0.00    +0.000 C 
ATOM      3  C   UNL     1       7.967   6.488  18.443  0.00  0.00    +0.000 C 
BRANCH   3   4
ATOM      4  C   UNL     1       7.777   4.987  18.595  0.00  0.00    +0.000 C 
BRANCH   4   5
ATOM      5  N   UNL     1       6.396   4.585  18.309  0.00  0.00    +0.000 NA
ATOM      6  C   UNL     1       5.432   5.410  19.039  0.00  0.00    +0.000 C 
ATOM      7  C   UNL     1       4.171   4.621  19.396  0.00  0.00    +0.000 C 
ATOM      8  C   UNL     1       3.179   4.422  18.258  0.00  0.00    +0.000 C 
ATOM      9  C   UNL     1       3.754   3.744  17.021  0.00  0.00    +0.000 C 
ATOM     10  C   UNL     1       4.774   4.621  16.310  0.00  0.00    +0.000 C 
ATOM     11  C   UNL     1       6.195   4.490  16.856  0.00  0.00    +0.000 C 
ENDBRANCH   4   5
ENDBRANCH   3   4
ENDBRANCH   1   2
BRANCH   1  12
ATOM     12  O   UNL     1       8.999   9.796  19.304  0.00  0.00    +0.000 OA
BRANCH  12  16
ATOM     13  C   UNL     1      11.503  13.123  18.895  0.00  0.00    +0.000 A 
ATOM     14  C   UNL     1      11.110  12.637  20.145  0.00  0.00    +0.000 A 
ATOM     15  C   UNL     1      10.278  11.516  20.235  0.00  0.00    +0.000 A 
ATOM     16  C   UNL     1       9.788  10.896  19.087  0.00  0.00    +0.000 A 
ATOM     17  C   UNL     1      10.171  11.391  17.838  0.00  0.00    +0.000 A 
ATOM     18  C   UNL     1      11.023  12.504  17.747  0.00  0.00    +0.000 A 
BRANCH  13  20
ATOM     19  C   UNL     1      11.746  15.425  19.392  0.00  0.00    +0.000 C 
ATOM     20  O   UNL     1      12.333  14.212  18.931  0.00  0.00    +0.000 OA
ENDBRANCH  13  20
ENDBRANCH  12  16
ENDBRANCH   1  12
TORSDOF 6
ENDMDL
MODEL 4
REMARK VINA RESULT:      -6.7      5.794      8.119
REMARK  Name = 
REMARK  7 active torsions:
REMARK  status: ('A' for Active; 'I' for Inactive)
REMARK    1  A    between atoms: C_1  and  O_2
REMARK    2  A    between atoms: O_2  and  C_3
REMARK    3  A    between atoms: C_6  and  O_7
REMARK    4  A    between atoms: O_7  and  C_8
REMARK    5  A    between atoms: C_8  and  C_9
REMARK    6  A    between atoms: C_10  and  C_11
REMARK    7  A    between atoms: C_11  and  N_12
REMARK                            x       y       z     vdW  Elec       q    Type
REMARK                         _______ _______ _______ _____ _____    ______ ____
ROOT
ATOM      1  C   UNL     1       8.198   8.992  17.691  0.00  0.00    +0.000 C 
ENDROOT
BRANCH   1   2
ATOM      2  C   UNL     1       7.628   7.582  17.689  0.00  0.00    +0.000 C 
ATOM      3  C   UNL     1       7.140   6.373  17.686  0.00  0.00    +0.000 C 
BRANCH   3   4
ATOM      4  C   UNL     1       6.571   4.963  17.683  0.00  0.00    +0.000 C 
BRANCH   4   5
ATOM      5  N   UNL     1       5.106   4.971  17.758  0.00  0.00    +0.000 NA
ATOM      6  C   UNL     1       4.557   3.614  17.714  0.00  0.00    +0.000 C 
ATOM      7  C   UNL     1       3.186   3.584  17.036  0.00  0.00    +0.000 C 
ATOM      8  C   UNL     1       2.020   4.056  17.894  0.00  0.00    +0.000 C 
ATOM      9  C   UNL     1       2.171   5.463  18.457  0.00  0.00    +0.000 C 
ATOM     10  C   UNL     1       3.288   5.552  19.486  0.00  0.00    +0.000 C 
ATOM     11  C   UNL     1       4.669   5.808  18.885  0.00  0.00    +0.000 C 
ENDBRANCH   4   5
ENDBRANCH   3   4
ENDBRANCH   1   2
BRANCH   1  12
ATOM     12  O   UNL     1       8.769   9.281  18.968  0.00  0.00    +0.000 OA
BRANCH  12  16
ATOM     13  C   UNL     1      11.114  12.710  19.467  0.00  0.00    +0.000 A 
ATOM     14  C   UNL     1      10.556  12.026  20.550  0.00  0.00    +0.000 A 
ATOM     15  C   UNL     1       9.785  10.878  20.338  0.00  0.00    +0.000 A 
ATOM     16  C   UNL     1       9.519  10.426  19.047  0.00  0.00    +0.000 A 
ATOM     17  C   UNL     1      10.066  11.118  17.964  0.00  0.00    +0.000 A 
ATOM     18  C   UNL     1      10.857  12.259  18.178  0.00  0.00    +0.000 A 
BRANCH  13  20
ATOM     19  C   UNL     1      11.329  15.067  19.407  0.00  0.00    +0.000 C 
ATOM     20  O   UNL     1      11.865  13.807  19.798  0.00  0.00    +0.000 OA
ENDBRANCH  13  20
ENDBRANCH  12  16
ENDBRANCH   1  12
TORSDOF 6
ENDMDL
MODEL 5
REMARK VINA RESULT:      -6.7      6.243      8.531
REMARK  Name = 
REMARK  7 active torsions:
REMARK  status: ('A' for Active; 'I' for Inactive)
REMARK    1  A    between atoms: C_1  and  O_2
REMARK    2  A    between atoms: O_2  and  C_3
REMARK    3  A    between atoms: C_6  and  O_7
REMARK    4  A    between atoms: O_7  and  C_8
REMARK    5  A    between atoms: C_8  and  C_9
REMARK    6  A    between atoms: C_10  and  C_11
REMARK    7  A    between atoms: C_11  and  N_12
REMARK                            x       y       z     vdW  Elec       q    Type
REMARK                         _______ _______ _______ _____ _____    ______ ____
ROOT
ATOM      1  C   UNL     1       8.212   9.696  18.102  0.00  0.00    +0.000 C 
ENDROOT
BRANCH   1   2
ATOM      2  C   UNL     1       7.826   8.263  17.774  0.00  0.00    +0.000 C 
ATOM      3  C   UNL     1       7.494   7.034  17.492  0.00  0.00    +0.000 C 
BRANCH   3   4
ATOM      4  C   UNL     1       7.108   5.601  17.164  0.00  0.00    +0.000 C 
BRANCH   4   5
ATOM      5  N   UNL     1       5.727   5.308  17.561  0.00  0.00    +0.000 NA
ATOM      6  C   UNL     1       5.636   4.965  18.982  0.00  0.00    +0.000 C 
ATOM      7  C   UNL     1       4.508   3.968  19.249  0.00  0.00    +0.000 C 
ATOM      8  C   UNL     1       3.104   4.557  19.275  0.00  0.00    +0.000 C 
ATOM      9  C   UNL     1       2.703   5.305  18.010  0.00  0.00    +0.000 C 
ATOM     10  C   UNL     1       3.506   6.583  17.821  0.00  0.00    +0.000 C 
ATOM     11  C   UNL     1       4.836   6.382  17.098  0.00  0.00    +0.000 C 
ENDBRANCH   4   5
ENDBRANCH   3   4
ENDBRANCH   1   2
BRANCH   1  12
ATOM     12  O   UNL     1       9.239   9.706  19.095  0.00  0.00    +0.000 OA
BRANCH  12  16
ATOM     13  C   UNL     1      11.261  13.363  19.305  0.00  0.00    +0.000 A 
ATOM     14  C   UNL     1      11.084  12.679  18.100  0.00  0.00    +0.000 A 
ATOM     15  C   UNL     1      10.395  11.462  18.075  0.00  0.00    +0.000 A 
ATOM     16  C   UNL     1       9.916  10.889  19.251  0.00  0.00    +0.000 A 
ATOM     17  C   UNL     1      10.104  11.567  20.457  0.00  0.00    +0.000 A 
ATOM     18  C   UNL     1      10.778  12.799  20.480  0.00  0.00    +0.000 A 
BRANCH  13  20
ATOM     19  C   UNL     1      11.228  15.705  19.654  0.00  0.00    +0.000 C 
ATOM     20  O   UNL     1      11.934  14.552  19.204  0.00  0.00    +0.000 OA
ENDBRANCH  13  20
ENDBRANCH  12  16
ENDBRANCH   1  12
TORSDOF 6
ENDMDL
MODEL 6
REMARK VINA RESULT:      -6.6      5.957      8.516
REMARK  Name = 
REMARK  7 active torsions:
REMARK  status: ('A' for Active; 'I' for Inactive)
REMARK    1  A    between atoms: C_1  and  O_2
REMARK    2  A    between atoms: O_2  and  C_3
REMARK    3  A    between atoms: C_6  and  O_7
REMARK    4  A    between atoms: O_7  and  C_8
REMARK    5  A    between atoms: C_8  and  C_9
REMARK    6  A    between atoms: C_10  and  C_11
REMARK    7  A    between atoms: C_11  and  N_12
REMARK                            x       y       z     vdW  Elec       q    Type
REMARK                         _______ _______ _______ _____ _____    ______ ____
ROOT
ATOM      1  C   UNL     1       7.465   7.174  17.117  0.00  0.00    +0.000 C 
ENDROOT
BRANCH   1   2
ATOM      2  C   UNL     1       8.097   8.294  17.929  0.00  0.00    +0.000 C 
ATOM      3  C   UNL     1       8.639   9.253  18.626  0.00  0.00    +0.000 C 
BRANCH   3   4
ATOM      4  C   UNL     1       9.271  10.372  19.438  0.00  0.00    +0.000 C 
BRANCH   4   5
ATOM      5  N   UNL     1       9.697  11.486  18.584  0.00  0.00    +0.000 NA
ATOM      6  C   UNL     1       9.366  12.781  19.182  0.00  0.00    +0.000 C 
ATOM      7  C   UNL     1       9.066  13.834  18.115  0.00  0.00    +0.000 C 
ATOM      8  C   UNL     1      10.284  14.435  17.426  0.00  0.00    +0.000 C 
ATOM      9  C   UNL     1      11.204  13.420  16.757  0.00  0.00    +0.000 C 
ATOM     10  C   UNL     1      11.906  12.529  17.771  0.00  0.00    +0.000 C 
ATOM     11  C   UNL     1      11.100  11.299  18.183  0.00  0.00    +0.000 C 
ENDBRANCH   4   5
ENDBRANCH   3   4
ENDBRANCH   1   2
BRANCH   1  12
ATOM     12  O   UNL     1       6.110   7.504  16.812  0.00  0.00    +0.000 OA
BRANCH  12  16
ATOM     13  C   UNL     1       3.499   4.280  17.366  0.00  0.00    +0.000 A 
ATOM     14  C   UNL     1       4.699   4.154  16.659  0.00  0.00    +0.000 A 
ATOM     15  C   UNL     1       5.545   5.257  16.505  0.00  0.00    +0.000 A 
ATOM     16  C   UNL     1       5.189   6.506  17.008  0.00  0.00    +0.000 A 
ATOM     17  C   UNL     1       3.984   6.635  17.703  0.00  0.00    +0.000 A 
ATOM     18  C   UNL     1       3.143   5.523  17.875  0.00  0.00    +0.000 A 
BRANCH  13  20
ATOM     19  C   UNL     1       3.453   1.993  17.976  0.00  0.00    +0.000 C 
ATOM     20  O   UNL     1       2.762   3.130  17.468  0.00  0.00    +0.000 OA
ENDBRANCH  13  20
ENDBRANCH  12  16
ENDBRANCH   1  12
TORSDOF 6
ENDMDL
MODEL 7
REMARK VINA RESULT:      -6.6      6.237      8.230
REMARK  Name = 
REMARK  7 active torsions:
REMARK  status: ('A' for Active; 'I' for Inactive)
REMARK    1  A    between atoms: C_1  and  O_2
REMARK    2  A    between atoms: O_2  and  C_3
REMARK    3  A    between atoms: C_6  and  O_7
REMARK    4  A    between atoms: O_7  and  C_8
REMARK    5  A    between atoms: C_8  and  C_9
REMARK    6  A    between atoms: C_10  and  C_11
REMARK    7  A    between atoms: C_11  and  N_12
REMARK                            x       y       z     vdW  Elec       q    Type
REMARK                         _______ _______ _______ _____ _____    ______ ____
ROOT
ATOM      1  C   UNL     1       8.235   9.523  17.804  0.00  0.00    +0.000 C 
ENDROOT
BRANCH   1   2
ATOM      2  C   UNL     1       8.101   8.056  18.181  0.00  0.00    +0.000 C 
ATOM      3  C   UNL     1       7.986   6.799  18.505  0.00  0.00    +0.000 C 
BRANCH   3   4
ATOM      4  C   UNL     1       7.852   5.332  18.882  0.00  0.00    +0.000 C 
BRANCH   4   5
ATOM      5  N   UNL     1       6.587   4.763  18.404  0.00  0.00    +0.000 NA
ATOM      6  C   UNL     1       5.445   5.273  19.164  0.00  0.00    +0.000 C 
ATOM      7  C   UNL     1       4.327   4.235  19.264  0.00  0.00    +0.000 C 
ATOM      8  C   UNL     1       3.463   4.080  18.020  0.00  0.00    +0.000 C 
ATOM      9  C   UNL     1       4.230   3.738  16.749  0.00  0.00    +0.000 C 
ATOM     10  C   UNL     1       5.120   4.885  16.292  0.00  0.00    +0.000 C 
ATOM     11  C   UNL     1       6.502   4.897  16.942  0.00  0.00    +0.000 C 
ENDBRANCH   4   5
ENDBRANCH   3   4
ENDBRANCH   1   2
BRANCH   1  12
ATOM     12  O   UNL     1       9.094  10.185  18.733  0.00  0.00    +0.000 OA
BRANCH  12  16
ATOM     13  C   UNL     1      10.705  13.848  17.509  0.00  0.00    +0.000 A 
ATOM     14  C   UNL     1       9.373  13.718  17.910  0.00  0.00    +0.000 A 
ATOM     15  C   UNL     1       8.878  12.475  18.319  0.00  0.00    +0.000 A 
ATOM     16  C   UNL     1       9.686  11.340  18.289  0.00  0.00    +0.000 A 
ATOM     17  C   UNL     1      11.014  11.468  17.875  0.00  0.00    +0.000 A 
ATOM     18  C   UNL     1      11.517  12.720  17.484  0.00  0.00    +0.000 A 
BRANCH  13  20
ATOM     19  C   UNL     1      11.383  16.002  18.221  0.00  0.00    +0.000 C 
ATOM     20  O   UNL     1      11.082  15.115  17.148  0.00  0.00    +0.000 OA
ENDBRANCH  13  20
ENDBRANCH  12  16
ENDBRANCH   1  12
TORSDOF 6
ENDMDL
MODEL 8
REMARK VINA RESULT:      -6.6      5.778      8.735
REMARK  Name = 
REMARK  7 active torsions:
REMARK  status: ('A' for Active; 'I' for Inactive)
REMARK    1  A    between atoms: C_1  and  O_2
REMARK    2  A    between atoms: O_2  and  C_3
REMARK    3  A    between atoms: C_6  and  O_7
REMARK    4  A    between atoms: O_7  and  C_8
REMARK    5  A    between atoms: C_8  and  C_9
REMARK    6  A    between atoms: C_10  and  C_11
REMARK    7  A    between atoms: C_11  and  N_12
REMARK                            x       y       z     vdW  Elec       q    Type
REMARK                         _______ _______ _______ _____ _____    ______ ____
ROOT
ATOM      1  C   UNL     1       7.800   6.559  18.179  0.00  0.00    +0.000 C 
ENDROOT
BRANCH   1   2
ATOM      2  C   UNL     1       7.993   8.060  18.029  0.00  0.00    +0.000 C 
ATOM      3  C   UNL     1       8.159   9.346  17.899  0.00  0.00    +0.000 C 
BRANCH   3   4
ATOM      4  C   UNL     1       8.352  10.847  17.749  0.00  0.00    +0.000 C 
BRANCH   4   5
ATOM      5  N   UNL     1       9.675  11.272  18.220  0.00  0.00    +0.000 NA
ATOM      6  C   UNL     1       9.999  12.626  17.765  0.00  0.00    +0.000 C 
ATOM      7  C   UNL     1      11.502  12.800  17.543  0.00  0.00    +0.000 C 
ATOM      8  C   UNL     1      12.332  12.997  18.804  0.00  0.00    +0.000 C 
ATOM      9  C   UNL     1      12.194  11.887  19.838  0.00  0.00    +0.000 C 
ATOM     10  C   UNL     1      10.806  11.852  20.458  0.00  0.00    +0.000 C 
ATOM     11  C   UNL     1       9.790  11.032  19.666  0.00  0.00    +0.000 C 
ENDBRANCH   4   5
ENDBRANCH   3   4
ENDBRANCH   1   2
BRANCH   1  12
ATOM     12  O   UNL     1       6.886   6.087  17.187  0.00  0.00    +0.000 OA
BRANCH  12  16
ATOM     13  C   UNL     1       3.366   4.464  18.762  0.00  0.00    +0.000 A 
ATOM     14  C   UNL     1       4.583   3.778  18.797  0.00  0.00    +0.000 A 
ATOM     15  C   UNL     1       5.737   4.362  18.266  0.00  0.00    +0.000 A 
ATOM     16  C   UNL     1       5.686   5.611  17.651  0.00  0.00    +0.000 A 
ATOM     17  C   UNL     1       4.467   6.291  17.604  0.00  0.00    +0.000 A 
ATOM     18  C   UNL     1       3.312   5.714  18.157  0.00  0.00    +0.000 A 
BRANCH  13  20
ATOM     19  C   UNL     1       2.448   2.388  19.437  0.00  0.00    +0.000 C 
ATOM     20  O   UNL     1       2.309   3.802  19.330  0.00  0.00    +0.000 OA
ENDBRANCH  13  20
ENDBRANCH  12  16
ENDBRANCH   1  12
TORSDOF 6
ENDMDL
MODEL 9
REMARK VINA RESULT:      -6.6      6.040      8.462
REMARK  Name = 
REMARK  7 active torsions:
REMARK  status: ('A' for Active; 'I' for Inactive)
REMARK    1  A    between atoms: C_1  and  O_2
REMARK    2  A    between atoms: O_2  and  C_3
REMARK    3  A    between atoms: C_6  and  O_7
REMARK    4  A    between atoms: O_7  and  C_8
REMARK    5  A    between atoms: C_8  and  C_9
REMARK    6  A    between atoms: C_10  and  C_11
REMARK    7  A    between atoms: C_11  and  N_12
REMARK                            x       y       z     vdW  Elec       q    Type
REMARK                         _______ _______ _______ _____ _____    ______ ____
ROOT
ATOM      1  C   UNL     1       1.830   9.904  18.014  0.00  0.00    +0.000 C 
ENDROOT
BRANCH   1   2
ATOM      2  C   UNL     1       2.450   8.518  17.945  0.00  0.00    +0.000 C 
ATOM      3  C   UNL     1       2.984   7.329  17.886  0.00  0.00    +0.000 C 
BRANCH   3   4
ATOM      4  C   UNL     1       3.604   5.943  17.818  0.00  0.00    +0.000 C 
BRANCH   4   5
ATOM      5  N   UNL     1       2.773   4.943  18.496  0.00  0.00    +0.000 NA
ATOM      6  C   UNL     1       3.324   3.595  18.349  0.00  0.00    +0.000 C 
ATOM      7  C   UNL     1       2.221   2.536  18.321  0.00  0.00    +0.000 C 
ATOM      8  C   UNL     1       1.626   2.173  19.675  0.00  0.00    +0.000 C 
ATOM      9  C   UNL     1       1.050   3.349  20.454  0.00  0.00    +0.000 C 
ATOM     10  C   UNL     1       2.130   4.318  20.909  0.00  0.00    +0.000 C 
ATOM     11  C   UNL     1       2.491   5.380  19.872  0.00  0.00    +0.000 C 
ENDBRANCH   4   5
ENDBRANCH   3   4
ENDBRANCH   1   2
BRANCH   1  12
ATOM     12  O   UNL     1       0.945   9.983  19.133  0.00  0.00    +0.000 OA
BRANCH  12  16
ATOM     13  C   UNL     1      -2.877  11.425  18.228  0.00  0.00    +0.000 A 
ATOM     14  C   UNL     1      -2.228  10.484  17.425  0.00  0.00    +0.000 A 
ATOM     15  C   UNL     1      -0.953  10.023  17.770  0.00  0.00    +0.000 A 
ATOM     16  C   UNL     1      -0.290  10.527  18.887  0.00  0.00    +0.000 A 
ATOM     17  C   UNL     1      -0.934  11.478  19.682  0.00  0.00    +0.000 A 
ATOM     18  C   UNL     1      -2.223  11.925  19.347  0.00  0.00    +0.000 A 
BRANCH  13  20
ATOM     19  C   UNL     1      -4.545  11.233  16.558  0.00  0.00    +0.000 C 
ATOM     20  O   UNL     1      -4.128  11.788  17.802  0.00  0.00    +0.000 OA
ENDBRANCH  13  20
ENDBRANCH  12  16
ENDBRANCH   1  12
TORSDOF 6
ENDMDL
