MODEL 1
REMARK VINA RESULT:      -8.5      0.000      0.000
REMARK  Name = 
REMARK  7 active torsions:
REMARK  status: ('A' for Active; 'I' for Inactive)
REMARK    1  A    between atoms: C_1  and  C_2
REMARK    2  A    between atoms: N_10  and  C_11
REMARK    3  A    between atoms: C_11  and  C_12
REMARK    4  A    between atoms: C_12  and  C_13
REMARK    5  A    between atoms: C_13  and  N_14
REMARK    6  A    between atoms: N_14  and  C_15
REMARK    7  A    between atoms: C_15  and  C_16
REMARK                            x       y       z     vdW  Elec       q    Type
REMARK                         _______ _______ _______ _____ _____    ______ ____
ROOT
ATOM      1  C   UNL     1       6.360   4.194  14.182  0.00  0.00    +0.000 C 
ATOM      2  C   UNL     1       5.557   4.738  15.328  0.00  0.00    +0.000 A 
ATOM      3  C   UNL     1       5.639   6.079  15.708  0.00  0.00    +0.000 A 
ATOM      4  C   UNL     1       4.880   6.589  16.774  0.00  0.00    +0.000 A 
ATOM      5  C   UNL     1       4.024   5.713  17.465  0.00  0.00    +0.000 A 
ATOM      6  C   UNL     1       3.929   4.365  17.103  0.00  0.00    +0.000 A 
ATOM      7  C   UNL     1       4.700   3.878  16.028  0.00  0.00    +0.000 A 
ATOM      8  C   UNL     1       2.998   3.756  17.981  0.00  0.00    +0.000 A 
ATOM      9  C   UNL     1       2.526   4.732  18.835  0.00  0.00    +0.000 A 
ATOM     10  N   UNL     1       3.162   5.914  18.533  0.00  0.00    +0.000 N 
ATOM     11  C   UNL     1       1.525   4.509  19.921  0.00  0.00    +0.000 C 
ATOM     12  C   UNL     1       0.818   3.154  19.715  0.00  0.00    +0.000 C 
ATOM     13  C   UNL     1       1.807   2.037  19.342  0.00  0.00    +0.000 C 
ATOM     14  C   UNL     1       2.531   2.340  18.021  0.00  0.00    +0.000 C 
ENDROOT
BRANCH  10  15
ATOM     15  C   UNL     1       2.964   7.177  19.241  0.00  0.00    +0.000 C 
BRANCH  15  16
ATOM     16  C   UNL     1       1.757   7.946  18.707  0.00  0.00    +0.000 C 
BRANCH  16  17
ATOM     17  C   UNL     1       2.127   8.948  17.607  0.00  0.00    +0.000 C 
BRANCH  17  18
ATOM     18  N   UNL     1       1.488  10.222  17.932  0.00  0.00    +0.000 NA
ATOM     19  H   UNL     1       1.047  10.609  17.096  0.00  0.00    +0.000 HD
BRANCH  18  20
ATOM     20  C   UNL     1       0.467  10.110  18.979  0.00  0.00    +0.000 C 
BRANCH  20  21
ATOM     21  C   UNL     1      -0.921  10.414  18.458  0.00  0.00    +0.000 A 
ATOM     22  C   UNL     1      -1.418   9.845  17.271  0.00  0.00    +0.000 A 
ATOM     23  C   UNL     1      -2.693  10.174  16.799  0.00  0.00    +0.000 A 
ATOM     24  C   UNL     1      -3.486  11.086  17.494  0.00  0.00    +0.000 A 
ATOM     25  C   UNL     1      -2.998  11.674  18.659  0.00  0.00    +0.000 A 
ATOM     26  C   UNL     1      -1.728  11.338  19.125  0.00  0.00    +0.000 A 
ATOM     27  F   UNL     1      -1.281  11.927  20.244  0.00  0.00    +0.000 F 
ENDBRANCH  20  21
ENDBRANCH  18  20
ENDBRANCH  17  18
ENDBRANCH  16  17
ENDBRANCH  15  16
ENDBRANCH  10  15
TORSDOF 6
ENDMDL
MODEL 2
REMARK VINA RESULT:      -8.4      1.917      2.365
REMARK  Name = 
REMARK  7 active torsions:
REMARK  status: ('A' for Active; 'I' for Inactive)
REMARK    1  A    between atoms: C_1  and  C_2
REMARK    2  A    between atoms: N_10  and  C_11
REMARK    3  A    between atoms: C_11  and  C_12
REMARK    4  A    between atoms: C_12  and  C_13
REMARK    5  A    between atoms: C_13  and  N_14
REMARK    6  A    between atoms: N_14  and  C_15
REMARK    7  A    between atoms: C_15  and  C_16
REMARK                            x       y       z     vdW  Elec       q    Type
REMARK                         _______ _______ _______ _____ _____    ______ ____
ROOT
ATOM      1  C   UNL     1       7.015   4.516  14.862  0.00  0.00    +0.000 C 
ATOM      2  C   UNL     1       5.945   4.989  15.802  0.00  0.00    +0.000 A 
ATOM      3  C   UNL     1       5.749   6.346  16.065  0.00  0.00    +0.000 A 
ATOM      4  C   UNL     1       4.742   6.788  16.938  0.00  0.00    +0.000 A 
ATOM      5  C   UNL     1       3.922   5.828  17.555  0.00  0.00    +0.000 A 
ATOM      6  C   UNL     1       4.103   4.462  17.309  0.00  0.00    +0.000 A 
ATOM      7  C   UNL     1       5.120   4.044  16.428  0.00  0.00    +0.000 A 
ATOM      8  C   UNL     1       3.136   3.762  18.072  0.00  0.00    +0.000 A 
ATOM      9  C   UNL     1       2.373   4.698  18.742  0.00  0.00    +0.000 A 
ATOM     10  N   UNL     1       2.862   5.948  18.442  0.00  0.00    +0.000 N 
ATOM     11  C   UNL     1       1.241   4.379  19.662  0.00  0.00    +0.000 C 
ATOM     12  C   UNL     1       0.800   2.914  19.469  0.00  0.00    +0.000 C 
ATOM     13  C   UNL     1       2.001   1.958  19.370  0.00  0.00    +0.000 C 
ATOM     14  C   UNL     1       2.894   2.294  18.165  0.00  0.00    +0.000 C 
ENDROOT
BRANCH  10  15
ATOM     15  C   UNL     1       2.347   7.202  18.986  0.00  0.00    +0.000 C 
BRANCH  15  16
ATOM     16  C   UNL     1       1.605   8.020  17.931  0.00  0.00    +0.000 C 
BRANCH  16  17
ATOM     17  C   UNL     1       2.035   9.491  17.905  0.00  0.00    +0.000 C 
BRANCH  17  18
ATOM     18  N   UNL     1       0.902  10.295  18.360  0.00  0.00    +0.000 NA
ATOM     19  H   UNL     1       0.153   9.683  18.684  0.00  0.00    +0.000 HD
BRANCH  18  20
ATOM     20  C   UNL     1       1.245  11.217  19.448  0.00  0.00    +0.000 C 
BRANCH  20  21
ATOM     21  C   UNL     1       0.569  10.840  20.749  0.00  0.00    +0.000 A 
ATOM     22  C   UNL     1       0.824   9.620  21.402  0.00  0.00    +0.000 A 
ATOM     23  C   UNL     1       0.157   9.288  22.585  0.00  0.00    +0.000 A 
ATOM     24  C   UNL     1      -0.787  10.158  23.127  0.00  0.00    +0.000 A 
ATOM     25  C   UNL     1      -1.066  11.360  22.480  0.00  0.00    +0.000 A 
ATOM     26  C   UNL     1      -0.394  11.686  21.304  0.00  0.00    +0.000 A 
ATOM     27  F   UNL     1      -0.691  12.845  20.697  0.00  0.00    +0.000 F 
ENDBRANCH  20  21
ENDBRANCH  18  20
ENDBRANCH  17  18
ENDBRANCH  16  17
ENDBRANCH  15  16
ENDBRANCH  10  15
TORSDOF 6
ENDMDL
MODEL 3
REMARK VINA RESULT:      -8.1      1.115      3.707
REMARK  Name = 
REMARK  7 active torsions:
REMARK  status: ('A' for Active; 'I' for Inactive)
REMARK    1  A    between atoms: C_1  and  C_2
REMARK    2  A    between atoms: N_10  and  C_11
REMARK    3  A    between atoms: C_11  and  C_12
REMARK    4  A    between atoms: C_12  and  C_13
REMARK    5  A    between atoms: C_13  and  N_14
REMARK    6  A    between atoms: N_14  and  C_15
REMARK    7  A    between atoms: C_15  and  C_16
REMARK                            x       y       z     vdW  Elec       q    Type
REMARK                         _______ _______ _______ _____ _____    ______ ____
ROOT
ATOM      1  C   UNL     1       1.545   2.692  21.381  0.00  0.00    +0.000 C 
ATOM      2  C   UNL     1       1.992   3.845  20.531  0.00  0.00    +0.000 A 
ATOM      3  C   UNL     1       1.576   5.152  20.792  0.00  0.00    +0.000 A 
ATOM      4  C   UNL     1       2.003   6.231  20.002  0.00  0.00    +0.000 A 
ATOM      5  C   UNL     1       2.867   5.971  18.924  0.00  0.00    +0.000 A 
ATOM      6  C   UNL     1       3.293   4.668  18.641  0.00  0.00    +0.000 A 
ATOM      7  C   UNL     1       2.852   3.602  19.451  0.00  0.00    +0.000 A 
ATOM      8  C   UNL     1       4.142   4.736  17.508  0.00  0.00    +0.000 A 
ATOM      9  C   UNL     1       4.241   6.062  17.138  0.00  0.00    +0.000 A 
ATOM     10  N   UNL     1       3.454   6.807  17.985  0.00  0.00    +0.000 N 
ATOM     11  C   UNL     1       5.041   6.571  15.984  0.00  0.00    +0.000 C 
ATOM     12  C   UNL     1       6.026   5.486  15.507  0.00  0.00    +0.000 C 
ATOM     13  C   UNL     1       5.366   4.099  15.430  0.00  0.00    +0.000 C 
ATOM     14  C   UNL     1       4.862   3.636  16.806  0.00  0.00    +0.000 C 
ENDROOT
BRANCH  10  15
ATOM     15  C   UNL     1       3.261   8.253  17.896  0.00  0.00    +0.000 C 
BRANCH  15  16
ATOM     16  C   UNL     1       1.799   8.619  17.652  0.00  0.00    +0.000 C 
BRANCH  16  17
ATOM     17  C   UNL     1       1.239   9.577  18.710  0.00  0.00    +0.000 C 
BRANCH  17  18
ATOM     18  N   UNL     1       0.534  10.651  18.012  0.00  0.00    +0.000 NA
ATOM     19  H   UNL     1       0.117  10.288  17.153  0.00  0.00    +0.000 HD
BRANCH  18  20
ATOM     20  C   UNL     1      -0.528  11.266  18.814  0.00  0.00    +0.000 C 
BRANCH  20  21
ATOM     21  C   UNL     1      -1.892  11.100  18.179  0.00  0.00    +0.000 A 
ATOM     22  C   UNL     1      -2.080  10.385  16.982  0.00  0.00    +0.000 A 
ATOM     23  C   UNL     1      -3.349  10.279  16.404  0.00  0.00    +0.000 A 
ATOM     24  C   UNL     1      -4.447  10.899  16.999  0.00  0.00    +0.000 A 
ATOM     25  C   UNL     1      -4.271  11.629  18.173  0.00  0.00    +0.000 A 
ATOM     26  C   UNL     1      -3.004  11.726  18.745  0.00  0.00    +0.000 A 
ATOM     27  F   UNL     1      -2.864  12.444  19.870  0.00  0.00    +0.000 F 
ENDBRANCH  20  21
ENDBRANCH  18  20
ENDBRANCH  17  18
ENDBRANCH  16  17
ENDBRANCH  15  16
ENDBRANCH  10  15
TORSDOF 6
ENDMDL
MODEL 4
REMARK VINA RESULT:      -8.0      0.957      1.348
REMARK  Name = 
REMARK  7 active torsions:
REMARK  status: ('A' for Active; 'I' for Inactive)
REMARK    1  A    between atoms: C_1  and  C_2
REMARK    2  A    between atoms: N_10  and  C_11
REMARK    3  A    between atoms: C_11  and  C_12
REMARK    4  A    between atoms: C_12  and  C_13
REMARK    5  A    between atoms: C_13  and  N_14
REMARK    6  A    between atoms: N_14  and  C_15
REMARK    7  A    between atoms: C_15  and  C_16
REMARK                            x       y       z     vdW  Elec       q    Type
REMARK                         _______ _______ _______ _____ _____    ______ ____
ROOT
ATOM      1  C   UNL     1       6.597   4.601  14.455  0.00  0.00    +0.000 C 
ATOM      2  C   UNL     1       5.706   5.006  15.593  0.00  0.00    +0.000 A 
ATOM      3  C   UNL     1       5.755   6.290  16.140  0.00  0.00    +0.000 A 
ATOM      4  C   UNL     1       4.914   6.670  17.199  0.00  0.00    +0.000 A 
ATOM      5  C   UNL     1       4.011   5.723  17.710  0.00  0.00    +0.000 A 
ATOM      6  C   UNL     1       3.948   4.429  17.179  0.00  0.00    +0.000 A 
ATOM      7  C   UNL     1       4.801   4.072  16.115  0.00  0.00    +0.000 A 
ATOM      8  C   UNL     1       2.954   3.723  17.901  0.00  0.00    +0.000 A 
ATOM      9  C   UNL     1       2.414   4.591  18.830  0.00  0.00    +0.000 A 
ATOM     10  N   UNL     1       3.068   5.796  18.725  0.00  0.00    +0.000 N 
ATOM     11  C   UNL     1       1.333   4.242  19.800  0.00  0.00    +0.000 C 
ATOM     12  C   UNL     1       0.649   2.927  19.376  0.00  0.00    +0.000 C 
ATOM     13  C   UNL     1       1.667   1.858  18.946  0.00  0.00    +0.000 C 
ATOM     14  C   UNL     1       2.490   2.316  17.732  0.00  0.00    +0.000 C 
ENDROOT
BRANCH  10  15
ATOM     15  C   UNL     1       2.812   6.965  19.564  0.00  0.00    +0.000 C 
BRANCH  15  16
ATOM     16  C   UNL     1       1.742   7.874  18.964  0.00  0.00    +0.000 C 
BRANCH  16  17
ATOM     17  C   UNL     1       2.268   8.729  17.805  0.00  0.00    +0.000 C 
BRANCH  17  18
ATOM     18  N   UNL     1       1.348   9.851  17.625  0.00  0.00    +0.000 NA
ATOM     19  H   UNL     1       0.583   9.575  17.008  0.00  0.00    +0.000 HD
BRANCH  18  20
ATOM     20  C   UNL     1       0.772  10.336  18.883  0.00  0.00    +0.000 C 
BRANCH  20  21
ATOM     21  C   UNL     1      -0.667  10.778  18.718  0.00  0.00    +0.000 A 
ATOM     22  C   UNL     1      -1.269  11.711  19.583  0.00  0.00    +0.000 A 
ATOM     23  C   UNL     1      -2.611  12.072  19.423  0.00  0.00    +0.000 A 
ATOM     24  C   UNL     1      -3.378  11.496  18.412  0.00  0.00    +0.000 A 
ATOM     25  C   UNL     1      -2.801  10.554  17.563  0.00  0.00    +0.000 A 
ATOM     26  C   UNL     1      -1.463  10.203  17.725  0.00  0.00    +0.000 A 
ATOM     27  F   UNL     1      -0.937   9.285  16.899  0.00  0.00    +0.000 F 
ENDBRANCH  20  21
ENDBRANCH  18  20
ENDBRANCH  17  18
ENDBRANCH  16  17
ENDBRANCH  15  16
ENDBRANCH  10  15
TORSDOF 6
ENDMDL
MODEL 5
REMARK VINA RESULT:      -7.9      1.562      2.175
REMARK  Name = 
REMARK  7 active torsions:
REMARK  status: ('A' for Active; 'I' for Inactive)
REMARK    1  A    between atoms: C_1  and  C_2
REMARK    2  A    between atoms: N_10  and  C_11
REMARK    3  A    between atoms: C_11  and  C_12
REMARK    4  A    between atoms: C_12  and  C_13
REMARK    5  A    between atoms: C_13  and  N_14
REMARK    6  A    between atoms: N_14  and  C_15
REMARK    7  A    between atoms: C_15  and  C_16
REMARK                            x       y       z     vdW  Elec       q    Type
REMARK                         _______ _______ _______ _____ _____    ______ ____
ROOT
ATOM      1  C   UNL     1       6.292   4.030  14.560  0.00  0.00    +0.000 C 
ATOM      2  C   UNL     1       5.423   4.694  15.588  0.00  0.00    +0.000 A 
ATOM      3  C   UNL     1       5.356   6.084  15.703  0.00  0.00    +0.000 A 
ATOM      4  C   UNL     1       4.535   6.704  16.659  0.00  0.00    +0.000 A 
ATOM      5  C   UNL     1       3.771   5.890  17.514  0.00  0.00    +0.000 A 
ATOM      6  C   UNL     1       3.825   4.495  17.419  0.00  0.00    +0.000 A 
ATOM      7  C   UNL     1       4.656   3.897  16.449  0.00  0.00    +0.000 A 
ATOM      8  C   UNL     1       2.956   3.969  18.406  0.00  0.00    +0.000 A 
ATOM      9  C   UNL     1       2.372   5.035  19.061  0.00  0.00    +0.000 A 
ATOM     10  N   UNL     1       2.881   6.198  18.532  0.00  0.00    +0.000 N 
ATOM     11  C   UNL     1       1.390   4.917  20.180  0.00  0.00    +0.000 C 
ATOM     12  C   UNL     1       0.835   3.480  20.245  0.00  0.00    +0.000 C 
ATOM     13  C   UNL     1       1.942   2.425  20.083  0.00  0.00    +0.000 C 
ATOM     14  C   UNL     1       2.644   2.546  18.721  0.00  0.00    +0.000 C 
ENDROOT
BRANCH  10  15
ATOM     15  C   UNL     1       2.540   7.544  18.986  0.00  0.00    +0.000 C 
BRANCH  15  16
ATOM     16  C   UNL     1       1.623   8.263  17.999  0.00  0.00    +0.000 C 
BRANCH  16  17
ATOM     17  C   UNL     1       1.432   9.747  18.335  0.00  0.00    +0.000 C 
BRANCH  17  18
ATOM     18  N   UNL     1       0.803   9.830  19.652  0.00  0.00    +0.000 NA
ATOM     19  H   UNL     1       1.216   9.134  20.275  0.00  0.00    +0.000 HD
BRANCH  18  20
ATOM     20  C   UNL     1       0.942  11.148  20.279  0.00  0.00    +0.000 C 
BRANCH  20  21
ATOM     21  C   UNL     1      -0.342  11.603  20.939  0.00  0.00    +0.000 A 
ATOM     22  C   UNL     1      -0.543  11.518  22.329  0.00  0.00    +0.000 A 
ATOM     23  C   UNL     1      -1.755  11.916  22.903  0.00  0.00    +0.000 A 
ATOM     24  C   UNL     1      -2.791  12.389  22.099  0.00  0.00    +0.000 A 
ATOM     25  C   UNL     1      -2.614  12.459  20.719  0.00  0.00    +0.000 A 
ATOM     26  C   UNL     1      -1.403  12.064  20.155  0.00  0.00    +0.000 A 
ATOM     27  F   UNL     1      -1.265  12.132  18.822  0.00  0.00    +0.000 F 
ENDBRANCH  20  21
ENDBRANCH  18  20
ENDBRANCH  17  18
ENDBRANCH  16  17
ENDBRANCH  15  16
ENDBRANCH  10  15
TORSDOF 6
ENDMDL
MODEL 6
REMARK VINA RESULT:      -7.8      1.976      2.781
REMARK  Name = 
REMARK  7 active torsions:
REMARK  status: ('A' for Active; 'I' for Inactive)
REMARK    1  A    between atoms: C_1  and  C_2
REMARK    2  A    between atoms: N_10  and  C_11
REMARK    3  A    between atoms: C_11  and  C_12
REMARK    4  A    between atoms: C_12  and  C_13
REMARK    5  A    between atoms: C_13  and  N_14
REMARK    6  A    between atoms: N_14  and  C_15
REMARK    7  A    between atoms: C_15  and  C_16
REMARK                            x       y       z     vdW  Elec       q    Type
REMARK                         _______ _______ _______ _____ _____    ______ ____
ROOT
ATOM      1  C   UNL     1       6.552   4.227  14.399  0.00  0.00    +0.000 C 
ATOM      2  C   UNL     1       5.635   4.743  15.471  0.00  0.00    +0.000 A 
ATOM      3  C   UNL     1       5.605   6.094  15.820  0.00  0.00    +0.000 A 
ATOM      4  C   UNL     1       4.740   6.576  16.816  0.00  0.00    +0.000 A 
ATOM      5  C   UNL     1       3.895   5.662  17.469  0.00  0.00    +0.000 A 
ATOM      6  C   UNL     1       3.913   4.302  17.138  0.00  0.00    +0.000 A 
ATOM      7  C   UNL     1       4.788   3.844  16.133  0.00  0.00    +0.000 A 
ATOM      8  C   UNL     1       2.962   3.653  17.964  0.00  0.00    +0.000 A 
ATOM      9  C   UNL     1       2.369   4.615  18.757  0.00  0.00    +0.000 A 
ATOM     10  N   UNL     1       2.947   5.829  18.469  0.00  0.00    +0.000 N 
ATOM     11  C   UNL     1       1.310   4.350  19.776  0.00  0.00    +0.000 C 
ATOM     12  C   UNL     1       0.708   2.947  19.558  0.00  0.00    +0.000 C 
ATOM     13  C   UNL     1       1.790   1.890  19.285  0.00  0.00    +0.000 C 
ATOM     14  C   UNL     1       2.586   2.211  18.009  0.00  0.00    +0.000 C 
ENDROOT
BRANCH  10  15
ATOM     15  C   UNL     1       2.619   7.092  19.126  0.00  0.00    +0.000 C 
BRANCH  15  16
ATOM     16  C   UNL     1       2.009   8.099  18.154  0.00  0.00    +0.000 C 
BRANCH  16  17
ATOM     17  C   UNL     1       1.769   9.473  18.790  0.00  0.00    +0.000 C 
BRANCH  17  18
ATOM     18  N   UNL     1       0.749  10.159  17.999  0.00  0.00    +0.000 NA
ATOM     19  H   UNL     1      -0.009   9.512  17.777  0.00  0.00    +0.000 HD
BRANCH  18  20
ATOM     20  C   UNL     1       0.173  11.324  18.679  0.00  0.00    +0.000 C 
BRANCH  20  21
ATOM     21  C   UNL     1       1.226  12.348  19.046  0.00  0.00    +0.000 A 
ATOM     22  C   UNL     1       2.086  12.916  18.088  0.00  0.00    +0.000 A 
ATOM     23  C   UNL     1       3.071  13.835  18.466  0.00  0.00    +0.000 A 
ATOM     24  C   UNL     1       3.225  14.189  19.805  0.00  0.00    +0.000 A 
ATOM     25  C   UNL     1       2.395  13.617  20.768  0.00  0.00    +0.000 A 
ATOM     26  C   UNL     1       1.413  12.706  20.383  0.00  0.00    +0.000 A 
ATOM     27  F   UNL     1       0.635  12.165  21.333  0.00  0.00    +0.000 F 
ENDBRANCH  20  21
ENDBRANCH  18  20
ENDBRANCH  17  18
ENDBRANCH  16  17
ENDBRANCH  15  16
ENDBRANCH  10  15
TORSDOF 6
ENDMDL
MODEL 7
REMARK VINA RESULT:      -7.7      5.070      7.294
REMARK  Name = 
REMARK  7 active torsions:
REMARK  status: ('A' for Active; 'I' for Inactive)
REMARK    1  A    between atoms: C_1  and  C_2
REMARK    2  A    between atoms: N_10  and  C_11
REMARK    3  A    between atoms: C_11  and  C_12
REMARK    4  A    between atoms: C_12  and  C_13
REMARK    5  A    between atoms: C_13  and  N_14
REMARK    6  A    between atoms: N_14  and  C_15
REMARK    7  A    between atoms: C_15  and  C_16
REMARK                            x       y       z     vdW  Elec       q    Type
REMARK                         _______ _______ _______ _____ _____    ______ ____
ROOT
ATOM      1  C   UNL     1       6.113   3.462  12.420  0.00  0.00    +0.000 C 
ATOM      2  C   UNL     1       6.188   4.003  13.818  0.00  0.00    +0.000 A 
ATOM      3  C   UNL     1       7.331   4.648  14.294  0.00  0.00    +0.000 A 
ATOM      4  C   UNL     1       7.396   5.161  15.599  0.00  0.00    +0.000 A 
ATOM      5  C   UNL     1       6.275   5.011  16.434  0.00  0.00    +0.000 A 
ATOM      6  C   UNL     1       5.120   4.364  15.980  0.00  0.00    +0.000 A 
ATOM      7  C   UNL     1       5.080   3.859  14.664  0.00  0.00    +0.000 A 
ATOM      8  C   UNL     1       4.184   4.371  17.043  0.00  0.00    +0.000 A 
ATOM      9  C   UNL     1       4.763   5.035  18.106  0.00  0.00    +0.000 A 
ATOM     10  N   UNL     1       6.036   5.406  17.742  0.00  0.00    +0.000 N 
ATOM     11  C   UNL     1       4.110   5.263  19.431  0.00  0.00    +0.000 C 
ATOM     12  C   UNL     1       2.595   5.000  19.324  0.00  0.00    +0.000 C 
ATOM     13  C   UNL     1       2.284   3.723  18.525  0.00  0.00    +0.000 C 
ATOM     14  C   UNL     1       2.800   3.819  17.080  0.00  0.00    +0.000 C 
ENDROOT
BRANCH  10  15
ATOM     15  C   UNL     1       6.988   6.099  18.609  0.00  0.00    +0.000 C 
BRANCH  15  16
ATOM     16  C   UNL     1       7.836   7.105  17.834  0.00  0.00    +0.000 C 
BRANCH  16  17
ATOM     17  C   UNL     1       7.126   8.447  17.624  0.00  0.00    +0.000 C 
BRANCH  17  18
ATOM     18  N   UNL     1       8.115   9.508  17.808  0.00  0.00    +0.000 NA
ATOM     19  H   UNL     1       7.641  10.405  17.921  0.00  0.00    +0.000 HD
BRANCH  18  20
ATOM     20  C   UNL     1       8.984   9.297  18.970  0.00  0.00    +0.000 C 
BRANCH  20  21
ATOM     21  C   UNL     1       9.538  10.598  19.512  0.00  0.00    +0.000 A 
ATOM     22  C   UNL     1       9.287  11.030  20.827  0.00  0.00    +0.000 A 
ATOM     23  C   UNL     1       9.786  12.254  21.286  0.00  0.00    +0.000 A 
ATOM     24  C   UNL     1      10.528  13.073  20.436  0.00  0.00    +0.000 A 
ATOM     25  C   UNL     1      10.766  12.668  19.124  0.00  0.00    +0.000 A 
ATOM     26  C   UNL     1      10.268  11.445  18.676  0.00  0.00    +0.000 A 
ATOM     27  F   UNL     1      10.504  11.086  17.405  0.00  0.00    +0.000 F 
ENDBRANCH  20  21
ENDBRANCH  18  20
ENDBRANCH  17  18
ENDBRANCH  16  17
ENDBRANCH  15  16
ENDBRANCH  10  15
TORSDOF 6
ENDMDL
MODEL 8
REMARK VINA RESULT:      -7.7      3.848      7.632
REMARK  Name = 
REMARK  7 active torsions:
REMARK  status: ('A' for Active; 'I' for Inactive)
REMARK    1  A    between atoms: C_1  and  C_2
REMARK    2  A    between atoms: N_10  and  C_11
REMARK    3  A    between atoms: C_11  and  C_12
REMARK    4  A    between atoms: C_12  and  C_13
REMARK    5  A    between atoms: C_13  and  N_14
REMARK    6  A    between atoms: N_14  and  C_15
REMARK    7  A    between atoms: C_15  and  C_16
REMARK                            x       y       z     vdW  Elec       q    Type
REMARK                         _______ _______ _______ _____ _____    ______ ____
ROOT
ATOM      1  C   UNL     1       1.529   9.253  17.617  0.00  0.00    +0.000 C 
ATOM      2  C   UNL     1       2.342   8.058  18.020  0.00  0.00    +0.000 A 
ATOM      3  C   UNL     1       3.689   7.938  17.672  0.00  0.00    +0.000 A 
ATOM      4  C   UNL     1       4.451   6.823  18.058  0.00  0.00    +0.000 A 
ATOM      5  C   UNL     1       3.826   5.813  18.810  0.00  0.00    +0.000 A 
ATOM      6  C   UNL     1       2.476   5.911  19.166  0.00  0.00    +0.000 A 
ATOM      7  C   UNL     1       1.734   7.041  18.768  0.00  0.00    +0.000 A 
ATOM      8  C   UNL     1       2.149   4.749  19.908  0.00  0.00    +0.000 A 
ATOM      9  C   UNL     1       3.292   3.984  20.014  0.00  0.00    +0.000 A 
ATOM     10  N   UNL     1       4.303   4.620  19.333  0.00  0.00    +0.000 N 
ATOM     11  C   UNL     1       3.380   2.670  20.720  0.00  0.00    +0.000 C 
ATOM     12  C   UNL     1       2.145   2.473  21.623  0.00  0.00    +0.000 C 
ATOM     13  C   UNL     1       0.841   2.878  20.915  0.00  0.00    +0.000 C 
ATOM     14  C   UNL     1       0.847   4.364  20.525  0.00  0.00    +0.000 C 
ENDROOT
BRANCH  10  15
ATOM     15  C   UNL     1       5.663   4.107  19.179  0.00  0.00    +0.000 C 
BRANCH  15  16
ATOM     16  C   UNL     1       6.120   4.132  17.723  0.00  0.00    +0.000 C 
BRANCH  16  17
ATOM     17  C   UNL     1       7.554   4.648  17.556  0.00  0.00    +0.000 C 
BRANCH  17  18
ATOM     18  N   UNL     1       7.851   4.688  16.125  0.00  0.00    +0.000 NA
ATOM     19  H   UNL     1       7.937   3.737  15.765  0.00  0.00    +0.000 HD
BRANCH  18  20
ATOM     20  C   UNL     1       6.828   5.386  15.340  0.00  0.00    +0.000 C 
BRANCH  20  21
ATOM     21  C   UNL     1       6.578   4.716  14.005  0.00  0.00    +0.000 A 
ATOM     22  C   UNL     1       5.483   3.858  13.789  0.00  0.00    +0.000 A 
ATOM     23  C   UNL     1       5.300   3.229  12.554  0.00  0.00    +0.000 A 
ATOM     24  C   UNL     1       6.214   3.430  11.520  0.00  0.00    +0.000 A 
ATOM     25  C   UNL     1       7.315   4.259  11.727  0.00  0.00    +0.000 A 
ATOM     26  C   UNL     1       7.488   4.886  12.959  0.00  0.00    +0.000 A 
ATOM     27  F   UNL     1       8.563   5.670  13.133  0.00  0.00    +0.000 F 
ENDBRANCH  20  21
ENDBRANCH  18  20
ENDBRANCH  17  18
ENDBRANCH  16  17
ENDBRANCH  15  16
ENDBRANCH  10  15
TORSDOF 6
ENDMDL
MODEL 9
REMARK VINA RESULT:      -7.6      1.528      1.910
REMARK  Name = 
REMARK  7 active torsions:
REMARK  status: ('A' for Active; 'I' for Inactive)
REMARK    1  A    between atoms: C_1  and  C_2
REMARK    2  A    between atoms: N_10  and  C_11
REMARK    3  A    between atoms: C_11  and  C_12
REMARK    4  A    between atoms: C_12  and  C_13
REMARK    5  A    between atoms: C_13  and  N_14
REMARK    6  A    between atoms: N_14  and  C_15
REMARK    7  A    between atoms: C_15  and  C_16
REMARK                            x       y       z     vdW  Elec       q    Type
REMARK                         _______ _______ _______ _____ _____    ______ ____
ROOT
ATOM      1  C   UNL     1       6.798   4.548  14.466  0.00  0.00    +0.000 C 
ATOM      2  C   UNL     1       5.809   4.994  15.503  0.00  0.00    +0.000 A 
ATOM      3  C   UNL     1       5.677   6.339  15.858  0.00  0.00    +0.000 A 
ATOM      4  C   UNL     1       4.745   6.756  16.821  0.00  0.00    +0.000 A 
ATOM      5  C   UNL     1       3.936   5.784  17.436  0.00  0.00    +0.000 A 
ATOM      6  C   UNL     1       4.055   4.431  17.099  0.00  0.00    +0.000 A 
ATOM      7  C   UNL     1       4.996   4.038  16.127  0.00  0.00    +0.000 A 
ATOM      8  C   UNL     1       3.117   3.715  17.883  0.00  0.00    +0.000 A 
ATOM      9  C   UNL     1       2.432   4.631  18.657  0.00  0.00    +0.000 A 
ATOM     10  N   UNL     1       2.941   5.882  18.398  0.00  0.00    +0.000 N 
ATOM     11  C   UNL     1       1.353   4.290  19.632  0.00  0.00    +0.000 C 
ATOM     12  C   UNL     1       0.852   2.853  19.383  0.00  0.00    +0.000 C 
ATOM     13  C   UNL     1       2.011   1.870  19.148  0.00  0.00    +0.000 C 
ATOM     14  C   UNL     1       2.833   2.252  17.906  0.00  0.00    +0.000 C 
ENDROOT
BRANCH  10  15
ATOM     15  C   UNL     1       2.506   7.116  19.048  0.00  0.00    +0.000 C 
BRANCH  15  16
ATOM     16  C   UNL     1       1.616   7.957  18.137  0.00  0.00    +0.000 C 
BRANCH  16  17
ATOM     17  C   UNL     1       2.217   9.331  17.818  0.00  0.00    +0.000 C 
BRANCH  17  18
ATOM     18  N   UNL     1       1.195  10.340  18.091  0.00  0.00    +0.000 NA
ATOM     19  H   UNL     1       0.338  10.108  17.587  0.00  0.00    +0.000 HD
BRANCH  18  20
ATOM     20  C   UNL     1       0.870  10.466  19.515  0.00  0.00    +0.000 C 
BRANCH  20  21
ATOM     21  C   UNL     1       0.040  11.698  19.804  0.00  0.00    +0.000 A 
ATOM     22  C   UNL     1      -1.354  11.637  19.993  0.00  0.00    +0.000 A 
ATOM     23  C   UNL     1      -2.096  12.800  20.224  0.00  0.00    +0.000 A 
ATOM     24  C   UNL     1      -1.465  14.043  20.254  0.00  0.00    +0.000 A 
ATOM     25  C   UNL     1      -0.089  14.121  20.046  0.00  0.00    +0.000 A 
ATOM     26  C   UNL     1       0.644  12.957  19.821  0.00  0.00    +0.000 A 
ATOM     27  F   UNL     1       1.966  13.064  19.614  0.00  0.00    +0.000 F 
ENDBRANCH  20  21
ENDBRANCH  18  20
ENDBRANCH  17  18
ENDBRANCH  16  17
ENDBRANCH  15  16
ENDBRANCH  10  15
TORSDOF 6
ENDMDL
