MODEL 1
REMARK VINA RESULT:      -6.8      0.000      0.000
REMARK  Name = 
REMARK  5 active torsions:
REMARK  status: ('A' for Active; 'I' for Inactive)
REMARK    1  A    between atoms: C_1  and  C_2
REMARK    2  A    between atoms: C_6  and  C_7
REMARK    3  A    between atoms: N_18  and  C_19
REMARK    4  A    between atoms: C_19  and  C_20
REMARK    5  A    between atoms: C_20  and  C_21
REMARK                            x       y       z     vdW  Elec       q    Type
REMARK                         _______ _______ _______ _____ _____    ______ ____
ROOT
ATOM      1  C   UNL     1       0.150   8.896  20.556  0.00  0.00    +0.000 C 
ATOM      2  O   UNL     1      -0.398   8.489  21.574  0.00  0.00    +0.000 OA
ATOM      3  N   UNL     1       1.366   8.345  20.106  0.00  0.00    +0.000 N 
ATOM      4  C   UNL     1       1.987   8.586  18.807  0.00  0.00    +0.000 C 
ATOM      5  C   UNL     1       2.429   7.294  18.111  0.00  0.00    +0.000 C 
ATOM      6  C   UNL     1       3.054   6.240  19.042  0.00  0.00    +0.000 C 
ATOM      7  C   UNL     1       2.404   6.141  20.423  0.00  0.00    +0.000 C 
ATOM      8  C   UNL     1       1.119   5.307  20.457  0.00  0.00    +0.000 C 
ATOM      9  C   UNL     1       0.869   4.339  19.312  0.00  0.00    +0.000 C 
ATOM     10  C   UNL     1       1.895   4.239  18.210  0.00  0.00    +0.000 C 
ATOM     11  O   UNL     1       1.699   3.509  17.239  0.00  0.00    +0.000 OA
ATOM     12  N   UNL     1       3.091   4.898  18.437  0.00  0.00    +0.000 N 
ATOM     13  C   UNL     1       2.157   7.528  21.016  0.00  0.00    +0.000 C 
ENDROOT
BRANCH   1  19
ATOM     14  C   UNL     1       0.835  12.165  20.592  0.00  0.00    +0.000 C 
ATOM     15  C   UNL     1      -0.113  11.333  19.826  0.00  0.00    +0.000 A 
ATOM     16  O   UNL     1      -0.916  11.997  18.937  0.00  0.00    +0.000 OA
ATOM     17  C   UNL     1      -1.655  11.019  18.358  0.00  0.00    +0.000 A 
ATOM     18  N   UNL     1      -1.407   9.806  18.790  0.00  0.00    +0.000 NA
ATOM     19  C   UNL     1      -0.442   9.988  19.774  0.00  0.00    +0.000 A 
ENDBRANCH   1  19
BRANCH  12  20
ATOM     20  C   UNL     1       4.275   4.398  17.724  0.00  0.00    +0.000 C 
BRANCH  20  21
ATOM     21  C   UNL     1       5.533   4.353  18.594  0.00  0.00    +0.000 C 
BRANCH  21  22
ATOM     22  C   UNL     1       6.473   5.491  18.342  0.00  0.00    +0.000 A 
ATOM     23  C   UNL     1       7.569   5.876  19.088  0.00  0.00    +0.000 A 
ATOM     24  C   UNL     1       8.172   7.064  18.584  0.00  0.00    +0.000 A 
ATOM     25  C   UNL     1       7.525   7.537  17.464  0.00  0.00    +0.000 A 
ATOM     26  S   UNL     1       6.205   6.547  17.021  0.00  0.00    +0.000 S 
ENDBRANCH  21  22
ENDBRANCH  20  21
ENDBRANCH  12  20
TORSDOF 4
ENDMDL
MODEL 2
REMARK VINA RESULT:      -6.7      3.075      7.908
REMARK  Name = 
REMARK  5 active torsions:
REMARK  status: ('A' for Active; 'I' for Inactive)
REMARK    1  A    between atoms: C_1  and  C_2
REMARK    2  A    between atoms: C_6  and  C_7
REMARK    3  A    between atoms: N_18  and  C_19
REMARK    4  A    between atoms: C_19  and  C_20
REMARK    5  A    between atoms: C_20  and  C_21
REMARK                            x       y       z     vdW  Elec       q    Type
REMARK                         _______ _______ _______ _____ _____    ______ ____
ROOT
ATOM      1  C   UNL     1       4.530   4.713  18.771  0.00  0.00    +0.000 C 
ATOM      2  O   UNL     1       4.096   3.796  19.460  0.00  0.00    +0.000 OA
ATOM      3  N   UNL     1       3.666   5.644  18.161  0.00  0.00    +0.000 N 
ATOM      4  C   UNL     1       4.068   6.891  17.516  0.00  0.00    +0.000 C 
ATOM      5  C   UNL     1       3.231   8.091  17.972  0.00  0.00    +0.000 C 
ATOM      6  C   UNL     1       1.729   7.803  18.144  0.00  0.00    +0.000 C 
ATOM      7  C   UNL     1       1.405   6.425  18.723  0.00  0.00    +0.000 C 
ATOM      8  C   UNL     1       1.527   6.335  20.249  0.00  0.00    +0.000 C 
ATOM      9  C   UNL     1       1.504   7.633  21.040  0.00  0.00    +0.000 C 
ATOM     10  C   UNL     1       1.353   8.936  20.293  0.00  0.00    +0.000 C 
ATOM     11  O   UNL     1       1.387  10.008  20.895  0.00  0.00    +0.000 OA
ATOM     12  N   UNL     1       1.042   8.828  18.948  0.00  0.00    +0.000 N 
ATOM     13  C   UNL     1       2.246   5.336  18.056  0.00  0.00    +0.000 C 
ENDROOT
BRANCH   1  19
ATOM     14  C   UNL     1       6.337   4.166  16.016  0.00  0.00    +0.000 C 
ATOM     15  C   UNL     1       6.672   4.627  17.377  0.00  0.00    +0.000 A 
ATOM     16  O   UNL     1       7.995   4.887  17.617  0.00  0.00    +0.000 OA
ATOM     17  C   UNL     1       8.025   5.312  18.904  0.00  0.00    +0.000 A 
ATOM     18  N   UNL     1       6.861   5.345  19.505  0.00  0.00    +0.000 NA
ATOM     19  C   UNL     1       5.973   4.864  18.550  0.00  0.00    +0.000 A 
ENDBRANCH   1  19
BRANCH  12  20
ATOM     20  C   UNL     1       0.350   9.967  18.329  0.00  0.00    +0.000 C 
BRANCH  20  21
ATOM     21  C   UNL     1      -1.090  10.140  18.817  0.00  0.00    +0.000 C 
BRANCH  21  22
ATOM     22  C   UNL     1      -2.077  10.328  17.708  0.00  0.00    +0.000 A 
ATOM     23  C   UNL     1      -2.060   9.768  16.445  0.00  0.00    +0.000 A 
ATOM     24  C   UNL     1      -3.124  10.251  15.629  0.00  0.00    +0.000 A 
ATOM     25  C   UNL     1      -3.922  11.150  16.300  0.00  0.00    +0.000 A 
ATOM     26  S   UNL     1      -3.396  11.402  17.905  0.00  0.00    +0.000 S 
ENDBRANCH  21  22
ENDBRANCH  20  21
ENDBRANCH  12  20
TORSDOF 4
ENDMDL
MODEL 3
REMARK VINA RESULT:      -6.4      2.794      7.885
REMARK  Name = 
REMARK  5 active torsions:
REMARK  status: ('A' for Active; 'I' for Inactive)
REMARK    1  A    between atoms: C_1  and  C_2
REMARK    2  A    between atoms: C_6  and  C_7
REMARK    3  A    between atoms: N_18  and  C_19
REMARK    4  A    between atoms: C_19  and  C_20
REMARK    5  A    between atoms: C_20  and  C_21
REMARK                            x       y       z     vdW  Elec       q    Type
REMARK                         _______ _______ _______ _____ _____    ______ ____
ROOT
ATOM      1  C   UNL     1       4.504   4.223  17.829  0.00  0.00    +0.000 C 
ATOM      2  O   UNL     1       4.019   3.167  18.221  0.00  0.00    +0.000 OA
ATOM      3  N   UNL     1       3.700   5.352  17.578  0.00  0.00    +0.000 N 
ATOM      4  C   UNL     1       4.179   6.709  17.332  0.00  0.00    +0.000 C 
ATOM      5  C   UNL     1       3.448   7.758  18.175  0.00  0.00    +0.000 C 
ATOM      6  C   UNL     1       1.933   7.529  18.322  0.00  0.00    +0.000 C 
ATOM      7  C   UNL     1       1.519   6.063  18.461  0.00  0.00    +0.000 C 
ATOM      8  C   UNL     1       1.672   5.495  19.876  0.00  0.00    +0.000 C 
ATOM      9  C   UNL     1       1.768   6.481  21.030  0.00  0.00    +0.000 C 
ATOM     10  C   UNL     1       1.698   7.958  20.731  0.00  0.00    +0.000 C 
ATOM     11  O   UNL     1       1.829   8.785  21.632  0.00  0.00    +0.000 OA
ATOM     12  N   UNL     1       1.346   8.295  19.434  0.00  0.00    +0.000 N 
ATOM     13  C   UNL     1       2.258   5.184  17.451  0.00  0.00    +0.000 C 
ENDROOT
BRANCH   1  19
ATOM     14  C   UNL     1       6.224   4.120  14.967  0.00  0.00    +0.000 C 
ATOM     15  C   UNL     1       6.610   4.297  16.380  0.00  0.00    +0.000 A 
ATOM     16  O   UNL     1       7.950   4.441  16.625  0.00  0.00    +0.000 OA
ATOM     17  C   UNL     1       8.029   4.612  17.968  0.00  0.00    +0.000 A 
ATOM     18  N   UNL     1       6.880   4.588  18.599  0.00  0.00    +0.000 NA
ATOM     19  C   UNL     1       5.949   4.342  17.597  0.00  0.00    +0.000 A 
ENDBRANCH   1  19
BRANCH  12  20
ATOM     20  C   UNL     1       0.728   9.612  19.231  0.00  0.00    +0.000 C 
BRANCH  20  21
ATOM     21  C   UNL     1       0.049   9.759  17.868  0.00  0.00    +0.000 C 
BRANCH  21  22
ATOM     22  C   UNL     1      -1.292  10.422  17.939  0.00  0.00    +0.000 A 
ATOM     23  C   UNL     1      -1.736  11.357  18.853  0.00  0.00    +0.000 A 
ATOM     24  C   UNL     1      -3.105  11.695  18.655  0.00  0.00    +0.000 A 
ATOM     25  C   UNL     1      -3.655  11.019  17.589  0.00  0.00    +0.000 A 
ATOM     26  S   UNL     1      -2.522   9.990  16.829  0.00  0.00    +0.000 S 
ENDBRANCH  21  22
ENDBRANCH  20  21
ENDBRANCH  12  20
TORSDOF 4
ENDMDL
MODEL 4
REMARK VINA RESULT:      -6.3      2.900      7.978
REMARK  Name = 
REMARK  5 active torsions:
REMARK  status: ('A' for Active; 'I' for Inactive)
REMARK    1  A    between atoms: C_1  and  C_2
REMARK    2  A    between atoms: C_6  and  C_7
REMARK    3  A    between atoms: N_18  and  C_19
REMARK    4  A    between atoms: C_19  and  C_20
REMARK    5  A    between atoms: C_20  and  C_21
REMARK                            x       y       z     vdW  Elec       q    Type
REMARK                         _______ _______ _______ _____ _____    ______ ____
ROOT
ATOM      1  C   UNL     1       4.602   4.741  18.806  0.00  0.00    +0.000 C 
ATOM      2  O   UNL     1       4.145   3.822  19.475  0.00  0.00    +0.000 OA
ATOM      3  N   UNL     1       3.760   5.670  18.163  0.00  0.00    +0.000 N 
ATOM      4  C   UNL     1       4.183   6.920  17.536  0.00  0.00    +0.000 C 
ATOM      5  C   UNL     1       3.323   8.116  17.959  0.00  0.00    +0.000 C 
ATOM      6  C   UNL     1       1.817   7.821  18.071  0.00  0.00    +0.000 C 
ATOM      7  C   UNL     1       1.475   6.441  18.634  0.00  0.00    +0.000 C 
ATOM      8  C   UNL     1       1.536   6.350  20.163  0.00  0.00    +0.000 C 
ATOM      9  C   UNL     1       1.476   7.647  20.955  0.00  0.00    +0.000 C 
ATOM     10  C   UNL     1       1.350   8.950  20.204  0.00  0.00    +0.000 C 
ATOM     11  O   UNL     1       1.356  10.021  20.808  0.00  0.00    +0.000 OA
ATOM     12  N   UNL     1       1.094   8.843  18.848  0.00  0.00    +0.000 N 
ATOM     13  C   UNL     1       2.347   5.357  18.000  0.00  0.00    +0.000 C 
ENDROOT
BRANCH   1  19
ATOM     14  C   UNL     1       6.532   4.128  16.149  0.00  0.00    +0.000 C 
ATOM     15  C   UNL     1       6.804   4.633  17.509  0.00  0.00    +0.000 A 
ATOM     16  O   UNL     1       8.113   4.911  17.799  0.00  0.00    +0.000 OA
ATOM     17  C   UNL     1       8.084   5.375  19.072  0.00  0.00    +0.000 A 
ATOM     18  N   UNL     1       6.894   5.416  19.620  0.00  0.00    +0.000 NA
ATOM     19  C   UNL     1       6.052   4.899  18.643  0.00  0.00    +0.000 A 
ENDBRANCH   1  19
BRANCH  12  20
ATOM     20  C   UNL     1       0.423   9.980  18.203  0.00  0.00    +0.000 C 
BRANCH  20  21
ATOM     21  C   UNL     1      -0.941   9.622  17.610  0.00  0.00    +0.000 C 
BRANCH  21  22
ATOM     22  C   UNL     1      -2.057  10.479  18.122  0.00  0.00    +0.000 A 
ATOM     23  C   UNL     1      -3.379  10.490  17.723  0.00  0.00    +0.000 A 
ATOM     24  C   UNL     1      -4.130  11.507  18.380  0.00  0.00    +0.000 A 
ATOM     25  C   UNL     1      -3.361  12.226  19.267  0.00  0.00    +0.000 A 
ATOM     26  S   UNL     1      -1.746  11.672  19.311  0.00  0.00    +0.000 S 
ENDBRANCH  21  22
ENDBRANCH  20  21
ENDBRANCH  12  20
TORSDOF 4
ENDMDL
MODEL 5
REMARK VINA RESULT:      -6.3      4.383      8.530
REMARK  Name = 
REMARK  5 active torsions:
REMARK  status: ('A' for Active; 'I' for Inactive)
REMARK    1  A    between atoms: C_1  and  C_2
REMARK    2  A    between atoms: C_6  and  C_7
REMARK    3  A    between atoms: N_18  and  C_19
REMARK    4  A    between atoms: C_19  and  C_20
REMARK    5  A    between atoms: C_20  and  C_21
REMARK                            x       y       z     vdW  Elec       q    Type
REMARK                         _______ _______ _______ _____ _____    ______ ____
ROOT
ATOM      1  C   UNL     1       6.617   4.386  13.540  0.00  0.00    +0.000 C 
ATOM      2  O   UNL     1       7.358   5.302  13.200  0.00  0.00    +0.000 OA
ATOM      3  N   UNL     1       6.463   4.032  14.895  0.00  0.00    +0.000 N 
ATOM      4  C   UNL     1       5.454   3.125  15.434  0.00  0.00    +0.000 C 
ATOM      5  C   UNL     1       4.730   3.701  16.655  0.00  0.00    +0.000 C 
ATOM      6  C   UNL     1       5.632   4.466  17.640  0.00  0.00    +0.000 C 
ATOM      7  C   UNL     1       6.732   5.301  16.982  0.00  0.00    +0.000 C 
ATOM      8  C   UNL     1       6.264   6.664  16.459  0.00  0.00    +0.000 C 
ATOM      9  C   UNL     1       4.963   7.226  17.009  0.00  0.00    +0.000 C 
ATOM     10  C   UNL     1       4.206   6.428  18.042  0.00  0.00    +0.000 C 
ATOM     11  O   UNL     1       3.122   6.825  18.466  0.00  0.00    +0.000 OA
ATOM     12  N   UNL     1       4.869   5.328  18.559  0.00  0.00    +0.000 N 
ATOM     13  C   UNL     1       7.430   4.514  15.872  0.00  0.00    +0.000 C 
ENDROOT
BRANCH   1  19
ATOM     14  C   UNL     1       7.675   2.001  11.455  0.00  0.00    +0.000 C 
ATOM     15  C   UNL     1       6.363   2.629  11.699  0.00  0.00    +0.000 A 
ATOM     16  O   UNL     1       5.327   2.184  10.922  0.00  0.00    +0.000 OA
ATOM     17  C   UNL     1       4.253   2.887  11.359  0.00  0.00    +0.000 A 
ATOM     18  N   UNL     1       4.501   3.733  12.328  0.00  0.00    +0.000 NA
ATOM     19  C   UNL     1       5.870   3.617  12.538  0.00  0.00    +0.000 A 
ENDBRANCH   1  19
BRANCH  12  20
ATOM     20  C   UNL     1       4.465   4.873  19.896  0.00  0.00    +0.000 C 
BRANCH  20  21
ATOM     21  C   UNL     1       4.154   3.376  19.959  0.00  0.00    +0.000 C 
BRANCH  21  22
ATOM     22  C   UNL     1       2.716   3.055  19.699  0.00  0.00    +0.000 A 
ATOM     23  C   UNL     1       2.190   2.157  18.791  0.00  0.00    +0.000 A 
ATOM     24  C   UNL     1       0.766   2.187  18.767  0.00  0.00    +0.000 A 
ATOM     25  C   UNL     1       0.254   3.095  19.666  0.00  0.00    +0.000 A 
ATOM     26  S   UNL     1       1.484   3.899  20.538  0.00  0.00    +0.000 S 
ENDBRANCH  21  22
ENDBRANCH  20  21
ENDBRANCH  12  20
TORSDOF 4
ENDMDL
MODEL 6
REMARK VINA RESULT:      -6.2      1.417      1.847
REMARK  Name = 
REMARK  5 active torsions:
REMARK  status: ('A' for Active; 'I' for Inactive)
REMARK    1  A    between atoms: C_1  and  C_2
REMARK    2  A    between atoms: C_6  and  C_7
REMARK    3  A    between atoms: N_18  and  C_19
REMARK    4  A    between atoms: C_19  and  C_20
REMARK    5  A    between atoms: C_20  and  C_21
REMARK                            x       y       z     vdW  Elec       q    Type
REMARK                         _______ _______ _______ _____ _____    ______ ____
ROOT
ATOM      1  C   UNL     1       0.341   8.875  20.471  0.00  0.00    +0.000 C 
ATOM      2  O   UNL     1      -0.227   8.614  21.525  0.00  0.00    +0.000 OA
ATOM      3  N   UNL     1       1.508   8.190  20.077  0.00  0.00    +0.000 N 
ATOM      4  C   UNL     1       2.135   8.252  18.760  0.00  0.00    +0.000 C 
ATOM      5  C   UNL     1       2.471   6.867  18.197  0.00  0.00    +0.000 C 
ATOM      6  C   UNL     1       3.023   5.867  19.228  0.00  0.00    +0.000 C 
ATOM      7  C   UNL     1       2.380   5.956  20.612  0.00  0.00    +0.000 C 
ATOM      8  C   UNL     1       1.035   5.231  20.732  0.00  0.00    +0.000 C 
ATOM      9  C   UNL     1       0.703   4.175  19.690  0.00  0.00    +0.000 C 
ATOM     10  C   UNL     1       1.709   3.886  18.603  0.00  0.00    +0.000 C 
ATOM     11  O   UNL     1       1.449   3.080  17.710  0.00  0.00    +0.000 OA
ATOM     12  N   UNL     1       2.953   4.472  18.761  0.00  0.00    +0.000 N 
ATOM     13  C   UNL     1       2.243   7.411  21.064  0.00  0.00    +0.000 C 
ENDROOT
BRANCH   1  19
ATOM     14  C   UNL     1       1.266  12.072  20.182  0.00  0.00    +0.000 C 
ATOM     15  C   UNL     1       0.255  11.240  19.502  0.00  0.00    +0.000 A 
ATOM     16  O   UNL     1      -0.503  11.870  18.550  0.00  0.00    +0.000 OA
ATOM     17  C   UNL     1      -1.316  10.897  18.071  0.00  0.00    +0.000 A 
ATOM     18  N   UNL     1      -1.156   9.718  18.621  0.00  0.00    +0.000 NA
ATOM     19  C   UNL     1      -0.173   9.924  19.583  0.00  0.00    +0.000 A 
ENDBRANCH   1  19
BRANCH  12  20
ATOM     20  C   UNL     1       4.089   3.814  18.101  0.00  0.00    +0.000 C 
BRANCH  20  21
ATOM     21  C   UNL     1       5.250   4.766  17.802  0.00  0.00    +0.000 C 
BRANCH  21  22
ATOM     22  C   UNL     1       5.725   4.700  16.384  0.00  0.00    +0.000 A 
ATOM     23  C   UNL     1       5.045   4.237  15.276  0.00  0.00    +0.000 A 
ATOM     24  C   UNL     1       5.856   4.248  14.104  0.00  0.00    +0.000 A 
ATOM     25  C   UNL     1       7.120   4.730  14.355  0.00  0.00    +0.000 A 
ATOM     26  S   UNL     1       7.324   5.175  15.993  0.00  0.00    +0.000 S 
ENDBRANCH  21  22
ENDBRANCH  20  21
ENDBRANCH  12  20
TORSDOF 4
ENDMDL
MODEL 7
REMARK VINA RESULT:      -6.1      4.013      6.530
REMARK  Name = 
REMARK  5 active torsions:
REMARK  status: ('A' for Active; 'I' for Inactive)
REMARK    1  A    between atoms: C_1  and  C_2
REMARK    2  A    between atoms: C_6  and  C_7
REMARK    3  A    between atoms: N_18  and  C_19
REMARK    4  A    between atoms: C_19  and  C_20
REMARK    5  A    between atoms: C_20  and  C_21
REMARK                            x       y       z     vdW  Elec       q    Type
REMARK                         _______ _______ _______ _____ _____    ______ ____
ROOT
ATOM      1  C   UNL     1       2.551   5.203  19.707  0.00  0.00    +0.000 C 
ATOM      2  O   UNL     1       2.596   6.324  20.203  0.00  0.00    +0.000 OA
ATOM      3  N   UNL     1       3.029   4.957  18.405  0.00  0.00    +0.000 N 
ATOM      4  C   UNL     1       3.235   3.644  17.801  0.00  0.00    +0.000 C 
ATOM      5  C   UNL     1       4.606   3.507  17.131  0.00  0.00    +0.000 C 
ATOM      6  C   UNL     1       5.074   4.753  16.359  0.00  0.00    +0.000 C 
ATOM      7  C   UNL     1       4.712   6.086  17.016  0.00  0.00    +0.000 C 
ATOM      8  C   UNL     1       5.660   6.513  18.143  0.00  0.00    +0.000 C 
ATOM      9  C   UNL     1       7.035   5.867  18.197  0.00  0.00    +0.000 C 
ATOM     10  C   UNL     1       7.403   4.852  17.142  0.00  0.00    +0.000 C 
ATOM     11  O   UNL     1       8.484   4.268  17.187  0.00  0.00    +0.000 OA
ATOM     12  N   UNL     1       6.521   4.740  16.080  0.00  0.00    +0.000 N 
ATOM     13  C   UNL     1       3.265   6.081  17.509  0.00  0.00    +0.000 C 
ENDROOT
BRANCH   1  19
ATOM     14  C   UNL     1       0.285   2.937  18.765  0.00  0.00    +0.000 C 
ATOM     15  C   UNL     1       1.044   3.159  20.010  0.00  0.00    +0.000 A 
ATOM     16  O   UNL     1       0.792   2.284  21.034  0.00  0.00    +0.000 OA
ATOM     17  C   UNL     1       1.622   2.685  22.028  0.00  0.00    +0.000 A 
ATOM     18  N   UNL     1       2.370   3.722  21.744  0.00  0.00    +0.000 NA
ATOM     19  C   UNL     1       1.983   4.076  20.456  0.00  0.00    +0.000 A 
ENDBRANCH   1  19
BRANCH  12  20
ATOM     20  C   UNL     1       7.064   4.234  14.812  0.00  0.00    +0.000 C 
BRANCH  20  21
ATOM     21  C   UNL     1       6.226   4.629  13.594  0.00  0.00    +0.000 C 
BRANCH  21  22
ATOM     22  C   UNL     1       6.043   3.516  12.610  0.00  0.00    +0.000 A 
ATOM     23  C   UNL     1       7.000   2.661  12.099  0.00  0.00    +0.000 A 
ATOM     24  C   UNL     1       6.464   1.780  11.115  0.00  0.00    +0.000 A 
ATOM     25  C   UNL     1       5.117   1.984  10.919  0.00  0.00    +0.000 A 
ATOM     26  S   UNL     1       4.502   3.223  11.922  0.00  0.00    +0.000 S 
ENDBRANCH  21  22
ENDBRANCH  20  21
ENDBRANCH  12  20
TORSDOF 4
ENDMDL
MODEL 8
REMARK VINA RESULT:      -6.0      5.912      7.884
REMARK  Name = 
REMARK  5 active torsions:
REMARK  status: ('A' for Active; 'I' for Inactive)
REMARK    1  A    between atoms: C_1  and  C_2
REMARK    2  A    between atoms: C_6  and  C_7
REMARK    3  A    between atoms: N_18  and  C_19
REMARK    4  A    between atoms: C_19  and  C_20
REMARK    5  A    between atoms: C_20  and  C_21
REMARK                            x       y       z     vdW  Elec       q    Type
REMARK                         _______ _______ _______ _____ _____    ______ ____
ROOT
ATOM      1  C   UNL     1      -4.284  12.683  23.278  0.00  0.00    +0.000 C 
ATOM      2  O   UNL     1      -4.192  12.182  24.394  0.00  0.00    +0.000 OA
ATOM      3  N   UNL     1      -3.145  13.127  22.578  0.00  0.00    +0.000 N 
ATOM      4  C   UNL     1      -3.103  13.524  21.173  0.00  0.00    +0.000 C 
ATOM      5  C   UNL     1      -1.949  12.871  20.406  0.00  0.00    +0.000 C 
ATOM      6  C   UNL     1      -0.624  12.782  21.185  0.00  0.00    +0.000 C 
ATOM      7  C   UNL     1      -0.779  12.472  22.675  0.00  0.00    +0.000 C 
ATOM      8  C   UNL     1      -0.986  10.987  22.993  0.00  0.00    +0.000 C 
ATOM      9  C   UNL     1      -0.585   9.972  21.936  0.00  0.00    +0.000 C 
ATOM     10  C   UNL     1       0.003  10.469  20.638  0.00  0.00    +0.000 C 
ATOM     11  O   UNL     1       0.285   9.680  19.737  0.00  0.00    +0.000 OA
ATOM     12  N   UNL     1       0.319  11.816  20.596  0.00  0.00    +0.000 N 
ATOM     13  C   UNL     1      -1.893  13.313  23.299  0.00  0.00    +0.000 C 
ENDROOT
BRANCH   1  19
ATOM     14  C   UNL     1      -6.514  15.152  23.573  0.00  0.00    +0.000 C 
ATOM     15  C   UNL     1      -6.480  13.900  22.792  0.00  0.00    +0.000 A 
ATOM     16  O   UNL     1      -7.580  13.642  22.017  0.00  0.00    +0.000 OA
ATOM     17  C   UNL     1      -7.285  12.474  21.397  0.00  0.00    +0.000 A 
ATOM     18  N   UNL     1      -6.117  11.962  21.700  0.00  0.00    +0.000 NA
ATOM     19  C   UNL     1      -5.594  12.846  22.636  0.00  0.00    +0.000 A 
ENDBRANCH   1  19
BRANCH  12  20
ATOM     20  C   UNL     1       1.361  12.228  19.645  0.00  0.00    +0.000 C 
BRANCH  20  21
ATOM     21  C   UNL     1       2.284  13.319  20.193  0.00  0.00    +0.000 C 
BRANCH  21  22
ATOM     22  C   UNL     1       2.597  14.390  19.195  0.00  0.00    +0.000 A 
ATOM     23  C   UNL     1       3.609  14.414  18.257  0.00  0.00    +0.000 A 
ATOM     24  C   UNL     1       3.648  15.645  17.539  0.00  0.00    +0.000 A 
ATOM     25  C   UNL     1       2.657  16.510  17.944  0.00  0.00    +0.000 A 
ATOM     26  S   UNL     1       1.683  15.838  19.176  0.00  0.00    +0.000 S 
ENDBRANCH  21  22
ENDBRANCH  20  21
ENDBRANCH  12  20
TORSDOF 4
ENDMDL
MODEL 9
REMARK VINA RESULT:      -6.0      1.553      1.896
REMARK  Name = 
REMARK  5 active torsions:
REMARK  status: ('A' for Active; 'I' for Inactive)
REMARK    1  A    between atoms: C_1  and  C_2
REMARK    2  A    between atoms: C_6  and  C_7
REMARK    3  A    between atoms: N_18  and  C_19
REMARK    4  A    between atoms: C_19  and  C_20
REMARK    5  A    between atoms: C_20  and  C_21
REMARK                            x       y       z     vdW  Elec       q    Type
REMARK                         _______ _______ _______ _____ _____    ______ ____
ROOT
ATOM      1  C   UNL     1       1.201   8.917  20.253  0.00  0.00    +0.000 C 
ATOM      2  O   UNL     1       1.266   8.859  21.476  0.00  0.00    +0.000 OA
ATOM      3  N   UNL     1       1.948   8.047  19.436  0.00  0.00    +0.000 N 
ATOM      4  C   UNL     1       1.784   7.870  17.996  0.00  0.00    +0.000 C 
ATOM      5  C   UNL     1       1.707   6.396  17.584  0.00  0.00    +0.000 C 
ATOM      6  C   UNL     1       2.676   5.464  18.334  0.00  0.00    +0.000 C 
ATOM      7  C   UNL     1       2.869   5.800  19.814  0.00  0.00    +0.000 C 
ATOM      8  C   UNL     1       1.760   5.272  20.731  0.00  0.00    +0.000 C 
ATOM      9  C   UNL     1       0.879   4.150  20.207  0.00  0.00    +0.000 C 
ATOM     10  C   UNL     1       1.141   3.607  18.823  0.00  0.00    +0.000 C 
ATOM     11  O   UNL     1       0.412   2.740  18.344  0.00  0.00    +0.000 OA
ATOM     12  N   UNL     1       2.306   4.043  18.215  0.00  0.00    +0.000 N 
ATOM     13  C   UNL     1       3.059   7.303  20.017  0.00  0.00    +0.000 C 
ENDROOT
BRANCH   1  19
ATOM     14  C   UNL     1       2.033  11.669  18.553  0.00  0.00    +0.000 C 
ATOM     15  C   UNL     1       0.745  11.036  18.896  0.00  0.00    +0.000 A 
ATOM     16  O   UNL     1      -0.381  11.683  18.459  0.00  0.00    +0.000 OA
ATOM     17  C   UNL     1      -1.403  10.895  18.874  0.00  0.00    +0.000 A 
ATOM     18  N   UNL     1      -1.043   9.819  19.530  0.00  0.00    +0.000 NA
ATOM     19  C   UNL     1       0.342   9.910  19.596  0.00  0.00    +0.000 A 
ENDBRANCH   1  19
BRANCH  12  20
ATOM     20  C   UNL     1       2.888   3.172  17.185  0.00  0.00    +0.000 C 
BRANCH  20  21
ATOM     21  C   UNL     1       4.372   2.873  17.412  0.00  0.00    +0.000 C 
BRANCH  21  22
ATOM     22  C   UNL     1       5.286   3.855  16.748  0.00  0.00    +0.000 A 
ATOM     23  C   UNL     1       5.455   4.087  15.398  0.00  0.00    +0.000 A 
ATOM     24  C   UNL     1       6.482   5.041  15.141  0.00  0.00    +0.000 A 
ATOM     25  C   UNL     1       7.050   5.514  16.302  0.00  0.00    +0.000 A 
ATOM     26  S   UNL     1       6.343   4.817  17.692  0.00  0.00    +0.000 S 
ENDBRANCH  21  22
ENDBRANCH  20  21
ENDBRANCH  12  20
TORSDOF 4
ENDMDL
