MODEL 1
REMARK VINA RESULT:      -7.9      0.000      0.000
REMARK  Name = 
REMARK  6 active torsions:
REMARK  status: ('A' for Active; 'I' for Inactive)
REMARK    1  A    between atoms: C_1  and  C_2
REMARK    2  A    between atoms: C_2  and  O_3
REMARK    3  A    between atoms: O_3  and  C_4
REMARK    4  A    between atoms: C_4  and  C_6
REMARK    5  A    between atoms: C_7  and  C_8
REMARK    6  A    between atoms: C_13  and  O_14
REMARK                            x       y       z     vdW  Elec       q    Type
REMARK                         _______ _______ _______ _____ _____    ______ ____
ROOT
ATOM      1  C   UNL     1       5.812   5.116  16.538  0.00  0.00    +0.000 A 
ATOM      2  C   UNL     1       5.990   6.269  17.285  0.00  0.00    +0.000 A 
ATOM      3  C   UNL     1       6.950   7.397  17.225  0.00  0.00    +0.000 C 
ATOM      4  O   UNL     1       5.045   6.349  18.269  0.00  0.00    +0.000 OA
ATOM      5  C   UNL     1       4.233   5.254  18.156  0.00  0.00    +0.000 A 
ATOM      6  C   UNL     1       4.664   4.462  17.098  0.00  0.00    +0.000 A 
ATOM      7  C   UNL     1       3.941   3.288  16.802  0.00  0.00    +0.000 A 
ATOM      8  C   UNL     1       2.832   2.953  17.577  0.00  0.00    +0.000 A 
ATOM      9  C   UNL     1       2.408   3.747  18.654  0.00  0.00    +0.000 A 
ATOM     10  C   UNL     1       1.299   3.407  19.449  0.00  0.00    +0.000 A 
ATOM     11  C   UNL     1       0.900   4.212  20.516  0.00  0.00    +0.000 A 
ATOM     12  C   UNL     1       1.599   5.384  20.805  0.00  0.00    +0.000 A 
ATOM     13  C   UNL     1       2.704   5.756  20.035  0.00  0.00    +0.000 A 
ATOM     14  C   UNL     1       3.112   4.939  18.963  0.00  0.00    +0.000 A 
ENDROOT
BRANCH   1  15
ATOM     15  C   UNL     1       6.603   4.713  15.385  0.00  0.00    +0.000 C 
ATOM     16  O   UNL     1       7.826   4.657  15.372  0.00  0.00    +0.000 OA
BRANCH  15  17
ATOM     17  O   UNL     1       5.820   4.497  14.290  0.00  0.00    +0.000 OA
BRANCH  17  19
ATOM     18  C   UNL     1       5.342   3.365  12.244  0.00  0.00    +0.000 C 
ATOM     19  C   UNL     1       6.436   3.808  13.198  0.00  0.00    +0.000 C 
ENDBRANCH  17  19
ENDBRANCH  15  17
ENDBRANCH   1  15
BRANCH   8  20
ATOM     20  O   UNL     1       2.134   1.809  17.276  0.00  0.00    +0.000 OA
ATOM     21  H   UNL     1       2.254   1.167  17.995  0.00  0.00    +0.000 HD
ENDBRANCH   8  20
TORSDOF 4
ENDMDL
MODEL 2
REMARK VINA RESULT:      -7.9      1.722      3.569
REMARK  Name = 
REMARK  6 active torsions:
REMARK  status: ('A' for Active; 'I' for Inactive)
REMARK    1  A    between atoms: C_1  and  C_2
REMARK    2  A    between atoms: C_2  and  O_3
REMARK    3  A    between atoms: O_3  and  C_4
REMARK    4  A    between atoms: C_4  and  C_6
REMARK    5  A    between atoms: C_7  and  C_8
REMARK    6  A    between atoms: C_13  and  O_14
REMARK                            x       y       z     vdW  Elec       q    Type
REMARK                         _______ _______ _______ _____ _____    ______ ____
ROOT
ATOM      1  C   UNL     1       4.965   5.425  16.548  0.00  0.00    +0.000 A 
ATOM      2  C   UNL     1       5.101   4.092  16.196  0.00  0.00    +0.000 A 
ATOM      3  C   UNL     1       5.887   3.375  15.163  0.00  0.00    +0.000 C 
ATOM      4  O   UNL     1       4.341   3.304  17.013  0.00  0.00    +0.000 OA
ATOM      5  C   UNL     1       3.717   4.119  17.916  0.00  0.00    +0.000 A 
ATOM      6  C   UNL     1       4.072   5.442  17.672  0.00  0.00    +0.000 A 
ATOM      7  C   UNL     1       3.546   6.442  18.514  0.00  0.00    +0.000 A 
ATOM      8  C   UNL     1       2.685   6.083  19.550  0.00  0.00    +0.000 A 
ATOM      9  C   UNL     1       2.317   4.749  19.784  0.00  0.00    +0.000 A 
ATOM     10  C   UNL     1       1.437   4.382  20.819  0.00  0.00    +0.000 A 
ATOM     11  C   UNL     1       1.085   3.049  21.028  0.00  0.00    +0.000 A 
ATOM     12  C   UNL     1       1.614   2.050  20.211  0.00  0.00    +0.000 A 
ATOM     13  C   UNL     1       2.494   2.377  19.176  0.00  0.00    +0.000 A 
ATOM     14  C   UNL     1       2.844   3.724  18.958  0.00  0.00    +0.000 A 
ENDROOT
BRANCH   1  15
ATOM     15  C   UNL     1       5.650   6.548  15.928  0.00  0.00    +0.000 C 
ATOM     16  O   UNL     1       5.138   7.304  15.111  0.00  0.00    +0.000 OA
BRANCH  15  17
ATOM     17  O   UNL     1       6.962   6.600  16.296  0.00  0.00    +0.000 OA
BRANCH  17  19
ATOM     18  C   UNL     1       7.768   6.425  18.536  0.00  0.00    +0.000 C 
ATOM     19  C   UNL     1       7.260   7.372  17.464  0.00  0.00    +0.000 C 
ENDBRANCH  17  19
ENDBRANCH  15  17
ENDBRANCH   1  15
BRANCH   8  20
ATOM     20  O   UNL     1       2.183   7.068  20.366  0.00  0.00    +0.000 OA
ATOM     21  H   UNL     1       2.905   7.666  20.620  0.00  0.00    +0.000 HD
ENDBRANCH   8  20
TORSDOF 4
ENDMDL
MODEL 3
REMARK VINA RESULT:      -7.8      1.755      2.106
REMARK  Name = 
REMARK  6 active torsions:
REMARK  status: ('A' for Active; 'I' for Inactive)
REMARK    1  A    between atoms: C_1  and  C_2
REMARK    2  A    between atoms: C_2  and  O_3
REMARK    3  A    between atoms: O_3  and  C_4
REMARK    4  A    between atoms: C_4  and  C_6
REMARK    5  A    between atoms: C_7  and  C_8
REMARK    6  A    between atoms: C_13  and  O_14
REMARK                            x       y       z     vdW  Elec       q    Type
REMARK                         _______ _______ _______ _____ _____    ______ ____
ROOT
ATOM      1  C   UNL     1       5.806   5.667  17.832  0.00  0.00    +0.000 A 
ATOM      2  C   UNL     1       6.511   5.370  18.987  0.00  0.00    +0.000 A 
ATOM      3  C   UNL     1       7.889   5.654  19.454  0.00  0.00    +0.000 C 
ATOM      4  O   UNL     1       5.722   4.677  19.861  0.00  0.00    +0.000 OA
ATOM      5  C   UNL     1       4.489   4.534  19.287  0.00  0.00    +0.000 A 
ATOM      6  C   UNL     1       4.488   5.133  18.031  0.00  0.00    +0.000 A 
ATOM      7  C   UNL     1       3.296   5.112  17.280  0.00  0.00    +0.000 A 
ATOM      8  C   UNL     1       2.165   4.490  17.807  0.00  0.00    +0.000 A 
ATOM      9  C   UNL     1       2.173   3.874  19.069  0.00  0.00    +0.000 A 
ATOM     10  C   UNL     1       1.039   3.232  19.599  0.00  0.00    +0.000 A 
ATOM     11  C   UNL     1       1.074   2.625  20.855  0.00  0.00    +0.000 A 
ATOM     12  C   UNL     1       2.245   2.656  21.613  0.00  0.00    +0.000 A 
ATOM     13  C   UNL     1       3.389   3.288  21.119  0.00  0.00    +0.000 A 
ATOM     14  C   UNL     1       3.357   3.894  19.848  0.00  0.00    +0.000 A 
ENDROOT
BRANCH   1  15
ATOM     15  C   UNL     1       6.305   6.425  16.696  0.00  0.00    +0.000 C 
ATOM     16  O   UNL     1       6.837   7.525  16.779  0.00  0.00    +0.000 OA
BRANCH  15  17
ATOM     17  O   UNL     1       6.022   5.804  15.515  0.00  0.00    +0.000 OA
BRANCH  17  19
ATOM     18  C   UNL     1       6.167   3.901  14.081  0.00  0.00    +0.000 C 
ATOM     19  C   UNL     1       6.867   4.704  15.162  0.00  0.00    +0.000 C 
ENDBRANCH  17  19
ENDBRANCH  15  17
ENDBRANCH   1  15
BRANCH   8  20
ATOM     20  O   UNL     1       1.008   4.481  17.067  0.00  0.00    +0.000 OA
ATOM     21  H   UNL     1       0.247   4.474  17.670  0.00  0.00    +0.000 HD
ENDBRANCH   8  20
TORSDOF 4
ENDMDL
MODEL 4
REMARK VINA RESULT:      -7.6      1.683      1.836
REMARK  Name = 
REMARK  6 active torsions:
REMARK  status: ('A' for Active; 'I' for Inactive)
REMARK    1  A    between atoms: C_1  and  C_2
REMARK    2  A    between atoms: C_2  and  O_3
REMARK    3  A    between atoms: O_3  and  C_4
REMARK    4  A    between atoms: C_4  and  C_6
REMARK    5  A    between atoms: C_7  and  C_8
REMARK    6  A    between atoms: C_13  and  O_14
REMARK                            x       y       z     vdW  Elec       q    Type
REMARK                         _______ _______ _______ _____ _____    ______ ____
ROOT
ATOM      1  C   UNL     1       5.438   4.697  16.893  0.00  0.00    +0.000 A 
ATOM      2  C   UNL     1       6.355   4.458  17.903  0.00  0.00    +0.000 A 
ATOM      3  C   UNL     1       7.824   4.623  18.019  0.00  0.00    +0.000 C 
ATOM      4  O   UNL     1       5.724   3.983  19.017  0.00  0.00    +0.000 OA
ATOM      5  C   UNL     1       4.385   3.925  18.746  0.00  0.00    +0.000 A 
ATOM      6  C   UNL     1       4.156   4.360  17.444  0.00  0.00    +0.000 A 
ATOM      7  C   UNL     1       2.827   4.396  16.975  0.00  0.00    +0.000 A 
ATOM      8  C   UNL     1       1.792   3.990  17.816  0.00  0.00    +0.000 A 
ATOM      9  C   UNL     1       2.028   3.538  19.124  0.00  0.00    +0.000 A 
ATOM     10  C   UNL     1       0.990   3.113  19.972  0.00  0.00    +0.000 A 
ATOM     11  C   UNL     1       1.252   2.666  21.267  0.00  0.00    +0.000 A 
ATOM     12  C   UNL     1       2.563   2.643  21.746  0.00  0.00    +0.000 A 
ATOM     13  C   UNL     1       3.619   3.061  20.933  0.00  0.00    +0.000 A 
ATOM     14  C   UNL     1       3.356   3.505  19.622  0.00  0.00    +0.000 A 
ENDROOT
BRANCH   1  15
ATOM     15  C   UNL     1       5.735   5.240  15.577  0.00  0.00    +0.000 C 
ATOM     16  O   UNL     1       6.123   6.384  15.374  0.00  0.00    +0.000 OA
BRANCH  15  17
ATOM     17  O   UNL     1       5.436   4.351  14.588  0.00  0.00    +0.000 OA
BRANCH  17  19
ATOM     18  C   UNL     1       5.900   3.402  12.447  0.00  0.00    +0.000 C 
ATOM     19  C   UNL     1       6.504   4.013  13.698  0.00  0.00    +0.000 C 
ENDBRANCH  17  19
ENDBRANCH  15  17
ENDBRANCH   1  15
BRANCH   8  20
ATOM     20  O   UNL     1       0.501   4.034  17.348  0.00  0.00    +0.000 OA
ATOM     21  H   UNL     1       0.508   3.878  16.389  0.00  0.00    +0.000 HD
ENDBRANCH   8  20
TORSDOF 4
ENDMDL
MODEL 5
REMARK VINA RESULT:      -7.3      2.796      4.623
REMARK  Name = 
REMARK  6 active torsions:
REMARK  status: ('A' for Active; 'I' for Inactive)
REMARK    1  A    between atoms: C_1  and  C_2
REMARK    2  A    between atoms: C_2  and  O_3
REMARK    3  A    between atoms: O_3  and  C_4
REMARK    4  A    between atoms: C_4  and  C_6
REMARK    5  A    between atoms: C_7  and  C_8
REMARK    6  A    between atoms: C_13  and  O_14
REMARK                            x       y       z     vdW  Elec       q    Type
REMARK                         _______ _______ _______ _____ _____    ______ ____
ROOT
ATOM      1  C   UNL     1       4.128   5.914  17.812  0.00  0.00    +0.000 A 
ATOM      2  C   UNL     1       3.984   5.079  18.908  0.00  0.00    +0.000 A 
ATOM      3  C   UNL     1       4.573   3.773  19.291  0.00  0.00    +0.000 C 
ATOM      4  O   UNL     1       3.116   5.623  19.810  0.00  0.00    +0.000 OA
ATOM      5  C   UNL     1       2.700   6.828  19.315  0.00  0.00    +0.000 A 
ATOM      6  C   UNL     1       3.300   7.055  18.081  0.00  0.00    +0.000 A 
ATOM      7  C   UNL     1       3.016   8.262  17.410  0.00  0.00    +0.000 A 
ATOM      8  C   UNL     1       2.141   9.179  17.991  0.00  0.00    +0.000 A 
ATOM      9  C   UNL     1       1.525   8.940  19.230  0.00  0.00    +0.000 A 
ATOM     10  C   UNL     1       0.631   9.855  19.814  0.00  0.00    +0.000 A 
ATOM     11  C   UNL     1       0.030   9.592  21.045  0.00  0.00    +0.000 A 
ATOM     12  C   UNL     1       0.319   8.408  21.724  0.00  0.00    +0.000 A 
ATOM     13  C   UNL     1       1.206   7.478  21.176  0.00  0.00    +0.000 A 
ATOM     14  C   UNL     1       1.806   7.739  19.929  0.00  0.00    +0.000 A 
ENDROOT
BRANCH   1  15
ATOM     15  C   UNL     1       4.997   5.684  16.669  0.00  0.00    +0.000 C 
ATOM     16  O   UNL     1       4.967   4.680  15.968  0.00  0.00    +0.000 OA
BRANCH  15  17
ATOM     17  O   UNL     1       5.916   6.682  16.529  0.00  0.00    +0.000 OA
BRANCH  17  19
ATOM     18  C   UNL     1       7.681   7.819  17.666  0.00  0.00    +0.000 C 
ATOM     19  C   UNL     1       7.177   6.474  17.174  0.00  0.00    +0.000 C 
ENDBRANCH  17  19
ENDBRANCH  15  17
ENDBRANCH   1  15
BRANCH   8  20
ATOM     20  O   UNL     1       1.875  10.353  17.329  0.00  0.00    +0.000 OA
ATOM     21  H   UNL     1       2.299  11.086  17.803  0.00  0.00    +0.000 HD
ENDBRANCH   8  20
TORSDOF 4
ENDMDL
MODEL 6
REMARK VINA RESULT:      -7.3      1.139      1.197
REMARK  Name = 
REMARK  6 active torsions:
REMARK  status: ('A' for Active; 'I' for Inactive)
REMARK    1  A    between atoms: C_1  and  C_2
REMARK    2  A    between atoms: C_2  and  O_3
REMARK    3  A    between atoms: O_3  and  C_4
REMARK    4  A    between atoms: C_4  and  C_6
REMARK    5  A    between atoms: C_7  and  C_8
REMARK    6  A    between atoms: C_13  and  O_14
REMARK                            x       y       z     vdW  Elec       q    Type
REMARK                         _______ _______ _______ _____ _____    ______ ____
ROOT
ATOM      1  C   UNL     1       5.222   4.763  16.331  0.00  0.00    +0.000 A 
ATOM      2  C   UNL     1       4.752   6.037  16.606  0.00  0.00    +0.000 A 
ATOM      3  C   UNL     1       5.040   7.382  16.054  0.00  0.00    +0.000 C 
ATOM      4  O   UNL     1       3.809   5.993  17.593  0.00  0.00    +0.000 OA
ATOM      5  C   UNL     1       3.647   4.685  17.958  0.00  0.00    +0.000 A 
ATOM      6  C   UNL     1       4.497   3.883  17.203  0.00  0.00    +0.000 A 
ATOM      7  C   UNL     1       4.467   2.490  17.415  0.00  0.00    +0.000 A 
ATOM      8  C   UNL     1       3.601   1.961  18.371  0.00  0.00    +0.000 A 
ATOM      9  C   UNL     1       2.755   2.774  19.141  0.00  0.00    +0.000 A 
ATOM     10  C   UNL     1       1.890   2.247  20.118  0.00  0.00    +0.000 A 
ATOM     11  C   UNL     1       1.060   3.078  20.872  0.00  0.00    +0.000 A 
ATOM     12  C   UNL     1       1.072   4.457  20.657  0.00  0.00    +0.000 A 
ATOM     13  C   UNL     1       1.915   5.014  19.693  0.00  0.00    +0.000 A 
ATOM     14  C   UNL     1       2.759   4.177  18.937  0.00  0.00    +0.000 A 
ENDROOT
BRANCH   1  15
ATOM     15  C   UNL     1       6.203   4.413  15.316  0.00  0.00    +0.000 C 
ATOM     16  O   UNL     1       7.397   4.675  15.390  0.00  0.00    +0.000 OA
BRANCH  15  17
ATOM     17  O   UNL     1       5.615   3.843  14.226  0.00  0.00    +0.000 OA
BRANCH  17  19
ATOM     18  C   UNL     1       5.578   3.137  11.946  0.00  0.00    +0.000 C 
ATOM     19  C   UNL     1       6.417   3.767  13.043  0.00  0.00    +0.000 C 
ENDBRANCH  17  19
ENDBRANCH  15  17
ENDBRANCH   1  15
BRANCH   8  20
ATOM     20  O   UNL     1       3.578   0.601  18.564  0.00  0.00    +0.000 OA
ATOM     21  H   UNL     1       2.654   0.304  18.606  0.00  0.00    +0.000 HD
ENDBRANCH   8  20
TORSDOF 4
ENDMDL
MODEL 7
REMARK VINA RESULT:      -7.3      2.695      4.221
REMARK  Name = 
REMARK  6 active torsions:
REMARK  status: ('A' for Active; 'I' for Inactive)
REMARK    1  A    between atoms: C_1  and  C_2
REMARK    2  A    between atoms: C_2  and  O_3
REMARK    3  A    between atoms: O_3  and  C_4
REMARK    4  A    between atoms: C_4  and  C_6
REMARK    5  A    between atoms: C_7  and  C_8
REMARK    6  A    between atoms: C_13  and  O_14
REMARK                            x       y       z     vdW  Elec       q    Type
REMARK                         _______ _______ _______ _____ _____    ______ ____
ROOT
ATOM      1  C   UNL     1       6.348   4.025  13.334  0.00  0.00    +0.000 A 
ATOM      2  C   UNL     1       7.324   4.996  13.181  0.00  0.00    +0.000 A 
ATOM      3  C   UNL     1       8.053   5.549  12.015  0.00  0.00    +0.000 C 
ATOM      4  O   UNL     1       7.641   5.546  14.391  0.00  0.00    +0.000 OA
ATOM      5  C   UNL     1       6.859   4.947  15.339  0.00  0.00    +0.000 A 
ATOM      6  C   UNL     1       6.039   4.000  14.735  0.00  0.00    +0.000 A 
ATOM      7  C   UNL     1       5.135   3.282  15.545  0.00  0.00    +0.000 A 
ATOM      8  C   UNL     1       5.098   3.532  16.916  0.00  0.00    +0.000 A 
ATOM      9  C   UNL     1       5.937   4.477  17.525  0.00  0.00    +0.000 A 
ATOM     10  C   UNL     1       5.914   4.723  18.910  0.00  0.00    +0.000 A 
ATOM     11  C   UNL     1       6.761   5.667  19.490  0.00  0.00    +0.000 A 
ATOM     12  C   UNL     1       7.645   6.395  18.694  0.00  0.00    +0.000 A 
ATOM     13  C   UNL     1       7.694   6.180  17.315  0.00  0.00    +0.000 A 
ATOM     14  C   UNL     1       6.845   5.221  16.728  0.00  0.00    +0.000 A 
ENDROOT
BRANCH   1  15
ATOM     15  C   UNL     1       5.735   3.253  12.264  0.00  0.00    +0.000 C 
ATOM     16  O   UNL     1       6.321   2.407  11.600  0.00  0.00    +0.000 OA
BRANCH  15  17
ATOM     17  O   UNL     1       4.454   3.654  12.027  0.00  0.00    +0.000 OA
BRANCH  17  19
ATOM     18  C   UNL     1       3.216   4.036  10.022  0.00  0.00    +0.000 C 
ATOM     19  C   UNL     1       3.768   2.983  10.965  0.00  0.00    +0.000 C 
ENDBRANCH  17  19
ENDBRANCH  15  17
ENDBRANCH   1  15
BRANCH   8  20
ATOM     20  O   UNL     1       4.210   2.828  17.693  0.00  0.00    +0.000 OA
ATOM     21  H   UNL     1       3.926   2.035  17.209  0.00  0.00    +0.000 HD
ENDBRANCH   8  20
TORSDOF 4
ENDMDL
MODEL 8
REMARK VINA RESULT:      -7.2      1.304      1.340
REMARK  Name = 
REMARK  6 active torsions:
REMARK  status: ('A' for Active; 'I' for Inactive)
REMARK    1  A    between atoms: C_1  and  C_2
REMARK    2  A    between atoms: C_2  and  O_3
REMARK    3  A    between atoms: O_3  and  C_4
REMARK    4  A    between atoms: C_4  and  C_6
REMARK    5  A    between atoms: C_7  and  C_8
REMARK    6  A    between atoms: C_13  and  O_14
REMARK                            x       y       z     vdW  Elec       q    Type
REMARK                         _______ _______ _______ _____ _____    ______ ____
ROOT
ATOM      1  C   UNL     1       6.097   4.736  17.414  0.00  0.00    +0.000 A 
ATOM      2  C   UNL     1       6.492   5.361  18.585  0.00  0.00    +0.000 A 
ATOM      3  C   UNL     1       7.635   6.231  18.953  0.00  0.00    +0.000 C 
ATOM      4  O   UNL     1       5.599   5.104  19.586  0.00  0.00    +0.000 OA
ATOM      5  C   UNL     1       4.604   4.323  19.067  0.00  0.00    +0.000 A 
ATOM      6  C   UNL     1       4.865   4.069  17.724  0.00  0.00    +0.000 A 
ATOM      7  C   UNL     1       3.939   3.293  16.997  0.00  0.00    +0.000 A 
ATOM      8  C   UNL     1       2.807   2.797  17.641  0.00  0.00    +0.000 A 
ATOM      9  C   UNL     1       2.554   3.042  18.999  0.00  0.00    +0.000 A 
ATOM     10  C   UNL     1       1.420   2.532  19.657  0.00  0.00    +0.000 A 
ATOM     11  C   UNL     1       1.194   2.788  21.010  0.00  0.00    +0.000 A 
ATOM     12  C   UNL     1       2.095   3.569  21.733  0.00  0.00    +0.000 A 
ATOM     13  C   UNL     1       3.230   4.096  21.111  0.00  0.00    +0.000 A 
ATOM     14  C   UNL     1       3.464   3.831  19.748  0.00  0.00    +0.000 A 
ENDROOT
BRANCH   1  15
ATOM     15  C   UNL     1       6.778   4.814  16.130  0.00  0.00    +0.000 C 
ATOM     16  O   UNL     1       7.557   5.704  15.815  0.00  0.00    +0.000 OA
BRANCH  15  17
ATOM     17  O   UNL     1       6.369   3.826  15.285  0.00  0.00    +0.000 OA
BRANCH  17  19
ATOM     18  C   UNL     1       6.183   3.515  12.925  0.00  0.00    +0.000 C 
ATOM     19  C   UNL     1       5.628   4.246  14.134  0.00  0.00    +0.000 C 
ENDBRANCH  17  19
ENDBRANCH  15  17
ENDBRANCH   1  15
BRANCH   8  20
ATOM     20  O   UNL     1       1.911   2.046  16.919  0.00  0.00    +0.000 OA
ATOM     21  H   UNL     1       1.743   1.214  17.393  0.00  0.00    +0.000 HD
ENDBRANCH   8  20
TORSDOF 4
ENDMDL
MODEL 9
REMARK VINA RESULT:      -7.2      1.957      6.348
REMARK  Name = 
REMARK  6 active torsions:
REMARK  status: ('A' for Active; 'I' for Inactive)
REMARK    1  A    between atoms: C_1  and  C_2
REMARK    2  A    between atoms: C_2  and  O_3
REMARK    3  A    between atoms: O_3  and  C_4
REMARK    4  A    between atoms: C_4  and  C_6
REMARK    5  A    between atoms: C_7  and  C_8
REMARK    6  A    between atoms: C_13  and  O_14
REMARK                            x       y       z     vdW  Elec       q    Type
REMARK                         _______ _______ _______ _____ _____    ______ ____
ROOT
ATOM      1  C   UNL     1       3.037   3.503  19.689  0.00  0.00    +0.000 A 
ATOM      2  C   UNL     1       2.307   2.913  18.671  0.00  0.00    +0.000 A 
ATOM      3  C   UNL     1       1.001   2.212  18.612  0.00  0.00    +0.000 C 
ATOM      4  O   UNL     1       2.962   3.041  17.479  0.00  0.00    +0.000 OA
ATOM      5  C   UNL     1       4.119   3.732  17.712  0.00  0.00    +0.000 A 
ATOM      6  C   UNL     1       4.210   4.044  19.064  0.00  0.00    +0.000 A 
ATOM      7  C   UNL     1       5.328   4.780  19.508  0.00  0.00    +0.000 A 
ATOM      8  C   UNL     1       6.305   5.161  18.589  0.00  0.00    +0.000 A 
ATOM      9  C   UNL     1       6.218   4.832  17.228  0.00  0.00    +0.000 A 
ATOM     10  C   UNL     1       7.208   5.201  16.299  0.00  0.00    +0.000 A 
ATOM     11  C   UNL     1       7.098   4.859  14.951  0.00  0.00    +0.000 A 
ATOM     12  C   UNL     1       5.986   4.146  14.500  0.00  0.00    +0.000 A 
ATOM     13  C   UNL     1       4.981   3.766  15.393  0.00  0.00    +0.000 A 
ATOM     14  C   UNL     1       5.096   4.104  16.756  0.00  0.00    +0.000 A 
ENDROOT
BRANCH   1  15
ATOM     15  C   UNL     1       2.639   3.596  21.085  0.00  0.00    +0.000 C 
ATOM     16  O   UNL     1       2.467   2.632  21.820  0.00  0.00    +0.000 OA
BRANCH  15  17
ATOM     17  O   UNL     1       2.386   4.886  21.449  0.00  0.00    +0.000 OA
BRANCH  17  19
ATOM     18  C   UNL     1       2.008   6.917  20.253  0.00  0.00    +0.000 C 
ATOM     19  C   UNL     1       1.412   5.584  20.667  0.00  0.00    +0.000 C 
ENDBRANCH  17  19
ENDBRANCH  15  17
ENDBRANCH   1  15
BRANCH   8  20
ATOM     20  O   UNL     1       7.388   5.881  19.034  0.00  0.00    +0.000 OA
ATOM     21  H   UNL     1       8.096   5.265  19.285  0.00  0.00    +0.000 HD
ENDBRANCH   8  20
TORSDOF 4
ENDMDL
