MODEL 1
REMARK VINA RESULT:      -8.6      0.000      0.000
REMARK  Name = 
REMARK  8 active torsions:
REMARK  status: ('A' for Active; 'I' for Inactive)
REMARK    1  A    between atoms: C_1  and  C_2
REMARK    2  A    between atoms: C_2  and  C_3
REMARK    3  A    between atoms: C_2  and  C_4
REMARK    4  A    between atoms: C_2  and  C_5
REMARK    5  A    between atoms: C_8  and  C_9
REMARK    6  A    between atoms: C_9  and  C_24
REMARK    7  A    between atoms: C_10  and  C_11
REMARK    8  A    between atoms: N_13  and  C_14
REMARK                            x       y       z     vdW  Elec       q    Type
REMARK                         _______ _______ _______ _____ _____    ______ ____
ROOT
ATOM      1  C   UNL     1       1.017   8.978  20.446  0.00  0.00    +0.000 C 
ATOM      2  C   UNL     1       0.715   8.696  21.731  0.00  0.00    +0.000 C 
ENDROOT
BRANCH   1   6
ATOM      3  C   UNL     1       3.422   6.028  18.377  0.00  0.00    +0.000 A 
ATOM      4  C   UNL     1       2.860   5.762  19.637  0.00  0.00    +0.000 A 
ATOM      5  C   UNL     1       2.062   6.704  20.304  0.00  0.00    +0.000 A 
ATOM      6  C   UNL     1       1.798   7.944  19.727  0.00  0.00    +0.000 A 
ATOM      7  C   UNL     1       2.326   8.221  18.462  0.00  0.00    +0.000 A 
ATOM      8  C   UNL     1       3.125   7.276  17.797  0.00  0.00    +0.000 A 
BRANCH   3  10
ATOM      9  C   UNL     1       5.012   5.609  16.387  0.00  0.00    +0.000 C 
ATOM     10  C   UNL     1       4.336   5.022  17.647  0.00  0.00    +0.000 C 
ATOM     11  C   UNL     1       3.514   3.795  17.187  0.00  0.00    +0.000 C 
ATOM     12  C   UNL     1       5.458   4.540  18.590  0.00  0.00    +0.000 C 
ENDBRANCH   3  10
ENDBRANCH   1   6
BRANCH   1  13
ATOM     13  C   UNL     1       0.621  10.268  19.832  0.00  0.00    +0.000 A 
ATOM     14  C   UNL     1       1.410  11.412  19.996  0.00  0.00    +0.000 A 
ATOM     15  C   UNL     1       0.992  12.642  19.479  0.00  0.00    +0.000 A 
ATOM     16  C   UNL     1      -0.215  12.737  18.787  0.00  0.00    +0.000 A 
ATOM     17  C   UNL     1      -0.998  11.597  18.601  0.00  0.00    +0.000 A 
ATOM     18  C   UNL     1      -0.583  10.368  19.121  0.00  0.00    +0.000 A 
ENDBRANCH   1  13
BRANCH   2  19
ATOM     19  C   UNL     1       0.178   9.711  22.675  0.00  0.00    +0.000 C 
ATOM     20  O   UNL     1       0.687   9.825  23.781  0.00  0.00    +0.000 OA
ATOM     21  N   UNL     1      -0.882  10.433  22.157  0.00  0.00    +0.000 N 
ATOM     22  H   UNL     1      -1.114  10.282  21.185  0.00  0.00    +0.000 HD
BRANCH  21  23
ATOM     23  C   UNL     1      -1.435  11.592  22.763  0.00  0.00    +0.000 A 
ATOM     24  C   UNL     1      -0.883  12.869  22.605  0.00  0.00    +0.000 A 
ATOM     25  C   UNL     1      -1.607  14.009  22.959  0.00  0.00    +0.000 A 
ATOM     26  C   UNL     1      -2.891  13.877  23.467  0.00  0.00    +0.000 A 
ATOM     27  C   UNL     1      -3.383  12.606  23.760  0.00  0.00    +0.000 A 
ATOM     28  C   UNL     1      -2.648  11.462  23.448  0.00  0.00    +0.000 A 
ATOM     29  O   UNL     1      -4.640  12.430  24.282  0.00  0.00    +0.000 OA
ATOM     30  C   UNL     1      -5.504  13.380  23.653  0.00  0.00    +0.000 C 
ATOM     31  C   UNL     1      -5.013  14.809  23.865  0.00  0.00    +0.000 C 
ATOM     32  O   UNL     1      -3.626  15.022  23.586  0.00  0.00    +0.000 OA
ENDBRANCH  21  23
ENDBRANCH   2  19
TORSDOF 5
ENDMDL
MODEL 2
REMARK VINA RESULT:      -8.6      1.256      1.755
REMARK  Name = 
REMARK  8 active torsions:
REMARK  status: ('A' for Active; 'I' for Inactive)
REMARK    1  A    between atoms: C_1  and  C_2
REMARK    2  A    between atoms: C_2  and  C_3
REMARK    3  A    between atoms: C_2  and  C_4
REMARK    4  A    between atoms: C_2  and  C_5
REMARK    5  A    between atoms: C_8  and  C_9
REMARK    6  A    between atoms: C_9  and  C_24
REMARK    7  A    between atoms: C_10  and  C_11
REMARK    8  A    between atoms: N_13  and  C_14
REMARK                            x       y       z     vdW  Elec       q    Type
REMARK                         _______ _______ _______ _____ _____    ______ ____
ROOT
ATOM      1  C   UNL     1       0.600   9.801  19.835  0.00  0.00    +0.000 C 
ATOM      2  C   UNL     1       0.767  10.184  21.120  0.00  0.00    +0.000 C 
ENDROOT
BRANCH   1   6
ATOM      3  C   UNL     1       3.209   6.659  18.392  0.00  0.00    +0.000 A 
ATOM      4  C   UNL     1       2.923   7.791  17.609  0.00  0.00    +0.000 A 
ATOM      5  C   UNL     1       2.097   8.823  18.078  0.00  0.00    +0.000 A 
ATOM      6  C   UNL     1       1.532   8.756  19.350  0.00  0.00    +0.000 A 
ATOM      7  C   UNL     1       1.824   7.651  20.156  0.00  0.00    +0.000 A 
ATOM      8  C   UNL     1       2.651   6.619  19.683  0.00  0.00    +0.000 A 
BRANCH   3  10
ATOM      9  C   UNL     1       4.859   5.835  16.586  0.00  0.00    +0.000 C 
ATOM     10  C   UNL     1       4.082   5.495  17.878  0.00  0.00    +0.000 C 
ATOM     11  C   UNL     1       3.197   4.267  17.563  0.00  0.00    +0.000 C 
ATOM     12  C   UNL     1       5.119   5.095  18.948  0.00  0.00    +0.000 C 
ENDBRANCH   3  10
ENDBRANCH   1   6
BRANCH   1  13
ATOM     13  C   UNL     1      -0.426  10.437  18.974  0.00  0.00    +0.000 A 
ATOM     14  C   UNL     1      -0.304  11.774  18.582  0.00  0.00    +0.000 A 
ATOM     15  C   UNL     1      -1.312  12.388  17.833  0.00  0.00    +0.000 A 
ATOM     16  C   UNL     1      -2.448  11.668  17.465  0.00  0.00    +0.000 A 
ATOM     17  C   UNL     1      -2.569  10.328  17.835  0.00  0.00    +0.000 A 
ATOM     18  C   UNL     1      -1.563   9.714  18.587  0.00  0.00    +0.000 A 
ENDBRANCH   1  13
BRANCH   2  19
ATOM     19  C   UNL     1       0.113  11.389  21.693  0.00  0.00    +0.000 C 
ATOM     20  O   UNL     1       0.741  12.437  21.753  0.00  0.00    +0.000 OA
ATOM     21  N   UNL     1      -1.187  11.162  22.107  0.00  0.00    +0.000 N 
ATOM     22  H   UNL     1      -1.591  10.261  21.892  0.00  0.00    +0.000 HD
BRANCH  21  23
ATOM     23  C   UNL     1      -2.097  12.183  22.491  0.00  0.00    +0.000 A 
ATOM     24  C   UNL     1      -2.217  13.393  21.798  0.00  0.00    +0.000 A 
ATOM     25  C   UNL     1      -3.310  14.236  22.016  0.00  0.00    +0.000 A 
ATOM     26  C   UNL     1      -4.291  13.866  22.924  0.00  0.00    +0.000 A 
ATOM     27  C   UNL     1      -4.099  12.736  23.717  0.00  0.00    +0.000 A 
ATOM     28  C   UNL     1      -2.988  11.912  23.535  0.00  0.00    +0.000 A 
ATOM     29  O   UNL     1      -5.034  12.346  24.642  0.00  0.00    +0.000 OA
ATOM     30  C   UNL     1      -6.324  12.583  24.076  0.00  0.00    +0.000 C 
ATOM     31  C   UNL     1      -6.507  14.048  23.690  0.00  0.00    +0.000 C 
ATOM     32  O   UNL     1      -5.434  14.614  22.931  0.00  0.00    +0.000 OA
ENDBRANCH  21  23
ENDBRANCH   2  19
TORSDOF 5
ENDMDL
MODEL 3
REMARK VINA RESULT:      -8.6      0.372      1.204
REMARK  Name = 
REMARK  8 active torsions:
REMARK  status: ('A' for Active; 'I' for Inactive)
REMARK    1  A    between atoms: C_1  and  C_2
REMARK    2  A    between atoms: C_2  and  C_3
REMARK    3  A    between atoms: C_2  and  C_4
REMARK    4  A    between atoms: C_2  and  C_5
REMARK    5  A    between atoms: C_8  and  C_9
REMARK    6  A    between atoms: C_9  and  C_24
REMARK    7  A    between atoms: C_10  and  C_11
REMARK    8  A    between atoms: N_13  and  C_14
REMARK                            x       y       z     vdW  Elec       q    Type
REMARK                         _______ _______ _______ _____ _____    ______ ____
ROOT
ATOM      1  C   UNL     1       1.090   9.042  20.216  0.00  0.00    +0.000 C 
ATOM      2  C   UNL     1       0.887   8.740  21.517  0.00  0.00    +0.000 C 
ENDROOT
BRANCH   1   6
ATOM      3  C   UNL     1       3.651   6.318  18.029  0.00  0.00    +0.000 A 
ATOM      4  C   UNL     1       3.119   5.975  19.285  0.00  0.00    +0.000 A 
ATOM      5  C   UNL     1       2.272   6.843  19.989  0.00  0.00    +0.000 A 
ATOM      6  C   UNL     1       1.925   8.083  19.456  0.00  0.00    +0.000 A 
ATOM      7  C   UNL     1       2.422   8.433  18.197  0.00  0.00    +0.000 A 
ATOM      8  C   UNL     1       3.271   7.563  17.494  0.00  0.00    +0.000 A 
BRANCH   3  10
ATOM      9  C   UNL     1       5.874   5.007  18.070  0.00  0.00    +0.000 C 
ATOM     10  C   UNL     1       4.618   5.395  17.258  0.00  0.00    +0.000 C 
ATOM     11  C   UNL     1       5.110   6.097  15.972  0.00  0.00    +0.000 C 
ATOM     12  C   UNL     1       3.902   4.086  16.863  0.00  0.00    +0.000 C 
ENDBRANCH   3  10
ENDBRANCH   1   6
BRANCH   1  13
ATOM     13  C   UNL     1       0.539  10.284  19.624  0.00  0.00    +0.000 A 
ATOM     14  C   UNL     1      -0.692  10.277  18.959  0.00  0.00    +0.000 A 
ATOM     15  C   UNL     1      -1.169  11.435  18.338  0.00  0.00    +0.000 A 
ATOM     16  C   UNL     1      -0.423  12.612  18.382  0.00  0.00    +0.000 A 
ATOM     17  C   UNL     1       0.796  12.634  19.061  0.00  0.00    +0.000 A 
ATOM     18  C   UNL     1       1.276  11.475  19.679  0.00  0.00    +0.000 A 
ENDBRANCH   1  13
BRANCH   2  19
ATOM     19  C   UNL     1       0.308   9.705  22.487  0.00  0.00    +0.000 C 
ATOM     20  O   UNL     1       0.764   9.757  23.621  0.00  0.00    +0.000 OA
ATOM     21  N   UNL     1      -0.726  10.458  21.960  0.00  0.00    +0.000 N 
ATOM     22  H   UNL     1      -0.912  10.361  20.972  0.00  0.00    +0.000 HD
BRANCH  21  23
ATOM     23  C   UNL     1      -1.305  11.586  22.601  0.00  0.00    +0.000 A 
ATOM     24  C   UNL     1      -0.816  12.887  22.437  0.00  0.00    +0.000 A 
ATOM     25  C   UNL     1      -1.574  13.991  22.833  0.00  0.00    +0.000 A 
ATOM     26  C   UNL     1      -2.831  13.796  23.388  0.00  0.00    +0.000 A 
ATOM     27  C   UNL     1      -3.255  12.502  23.684  0.00  0.00    +0.000 A 
ATOM     28  C   UNL     1      -2.483  11.395  23.330  0.00  0.00    +0.000 A 
ATOM     29  O   UNL     1      -4.482  12.265  24.252  0.00  0.00    +0.000 OA
ATOM     30  C   UNL     1      -5.410  13.182  23.669  0.00  0.00    +0.000 C 
ATOM     31  C   UNL     1      -4.974  14.629  23.879  0.00  0.00    +0.000 C 
ATOM     32  O   UNL     1      -3.610  14.906  23.550  0.00  0.00    +0.000 OA
ENDBRANCH  21  23
ENDBRANCH   2  19
TORSDOF 5
ENDMDL
MODEL 4
REMARK VINA RESULT:      -8.5      0.183      1.447
REMARK  Name = 
REMARK  8 active torsions:
REMARK  status: ('A' for Active; 'I' for Inactive)
REMARK    1  A    between atoms: C_1  and  C_2
REMARK    2  A    between atoms: C_2  and  C_3
REMARK    3  A    between atoms: C_2  and  C_4
REMARK    4  A    between atoms: C_2  and  C_5
REMARK    5  A    between atoms: C_8  and  C_9
REMARK    6  A    between atoms: C_9  and  C_24
REMARK    7  A    between atoms: C_10  and  C_11
REMARK    8  A    between atoms: N_13  and  C_14
REMARK                            x       y       z     vdW  Elec       q    Type
REMARK                         _______ _______ _______ _____ _____    ______ ____
ROOT
ATOM      1  C   UNL     1       0.985   8.997  20.466  0.00  0.00    +0.000 C 
ATOM      2  C   UNL     1       0.696   8.727  21.758  0.00  0.00    +0.000 C 
ENDROOT
BRANCH   1   6
ATOM      3  C   UNL     1       3.314   5.984  18.402  0.00  0.00    +0.000 A 
ATOM      4  C   UNL     1       3.054   7.237  17.819  0.00  0.00    +0.000 A 
ATOM      5  C   UNL     1       2.319   8.225  18.489  0.00  0.00    +0.000 A 
ATOM      6  C   UNL     1       1.823   7.993  19.771  0.00  0.00    +0.000 A 
ATOM      7  C   UNL     1       2.092   6.763  20.380  0.00  0.00    +0.000 A 
ATOM      8  C   UNL     1       2.827   5.776  19.706  0.00  0.00    +0.000 A 
BRANCH   3  10
ATOM      9  C   UNL     1       3.172   3.739  17.137  0.00  0.00    +0.000 C 
ATOM     10  C   UNL     1       4.085   4.870  17.665  0.00  0.00    +0.000 C 
ATOM     11  C   UNL     1       5.111   4.214  18.617  0.00  0.00    +0.000 C 
ATOM     12  C   UNL     1       4.839   5.456  16.453  0.00  0.00    +0.000 C 
ENDBRANCH   3  10
ENDBRANCH   1   6
BRANCH   1  13
ATOM     13  C   UNL     1       0.519  10.250  19.824  0.00  0.00    +0.000 A 
ATOM     14  C   UNL     1      -0.677  10.284  19.100  0.00  0.00    +0.000 A 
ATOM     15  C   UNL     1      -1.071  11.448  18.435  0.00  0.00    +0.000 A 
ATOM     16  C   UNL     1      -0.276  12.591  18.493  0.00  0.00    +0.000 A 
ATOM     17  C   UNL     1       0.909  12.574  19.231  0.00  0.00    +0.000 A 
ATOM     18  C   UNL     1       1.306  11.409  19.893  0.00  0.00    +0.000 A 
ENDBRANCH   1  13
BRANCH   2  19
ATOM     19  C   UNL     1       0.103   9.731  22.678  0.00  0.00    +0.000 C 
ATOM     20  O   UNL     1       0.505   9.794  23.832  0.00  0.00    +0.000 OA
ATOM     21  N   UNL     1      -0.879  10.505  22.085  0.00  0.00    +0.000 N 
ATOM     22  H   UNL     1      -1.020  10.391  21.091  0.00  0.00    +0.000 HD
BRANCH  21  23
ATOM     23  C   UNL     1      -1.451  11.664  22.674  0.00  0.00    +0.000 A 
ATOM     24  C   UNL     1      -0.949  12.952  22.458  0.00  0.00    +0.000 A 
ATOM     25  C   UNL     1      -1.700  14.079  22.801  0.00  0.00    +0.000 A 
ATOM     26  C   UNL     1      -2.962  13.920  23.356  0.00  0.00    +0.000 A 
ATOM     27  C   UNL     1      -3.400  12.643  23.704  0.00  0.00    +0.000 A 
ATOM     28  C   UNL     1      -2.636  11.515  23.403  0.00  0.00    +0.000 A 
ATOM     29  O   UNL     1      -4.632  12.442  24.274  0.00  0.00    +0.000 OA
ATOM     30  C   UNL     1      -5.548  13.342  23.646  0.00  0.00    +0.000 C 
ATOM     31  C   UNL     1      -5.100  14.793  23.797  0.00  0.00    +0.000 C 
ATOM     32  O   UNL     1      -3.731  15.043  23.465  0.00  0.00    +0.000 OA
ENDBRANCH  21  23
ENDBRANCH   2  19
TORSDOF 5
ENDMDL
MODEL 5
REMARK VINA RESULT:      -8.5      1.245      1.695
REMARK  Name = 
REMARK  8 active torsions:
REMARK  status: ('A' for Active; 'I' for Inactive)
REMARK    1  A    between atoms: C_1  and  C_2
REMARK    2  A    between atoms: C_2  and  C_3
REMARK    3  A    between atoms: C_2  and  C_4
REMARK    4  A    between atoms: C_2  and  C_5
REMARK    5  A    between atoms: C_8  and  C_9
REMARK    6  A    between atoms: C_9  and  C_24
REMARK    7  A    between atoms: C_10  and  C_11
REMARK    8  A    between atoms: N_13  and  C_14
REMARK                            x       y       z     vdW  Elec       q    Type
REMARK                         _______ _______ _______ _____ _____    ______ ____
ROOT
ATOM      1  C   UNL     1       0.618   9.714  19.758  0.00  0.00    +0.000 C 
ATOM      2  C   UNL     1       0.804  10.081  21.045  0.00  0.00    +0.000 C 
ENDROOT
BRANCH   1   6
ATOM      3  C   UNL     1       3.388   6.717  18.307  0.00  0.00    +0.000 A 
ATOM      4  C   UNL     1       2.764   6.593  19.560  0.00  0.00    +0.000 A 
ATOM      5  C   UNL     1       1.849   7.548  20.028  0.00  0.00    +0.000 A 
ATOM      6  C   UNL     1       1.527   8.660  19.252  0.00  0.00    +0.000 A 
ATOM      7  C   UNL     1       2.116   8.790  17.991  0.00  0.00    +0.000 A 
ATOM      8  C   UNL     1       3.032   7.833  17.526  0.00  0.00    +0.000 A 
BRANCH   3  10
ATOM      9  C   UNL     1       5.497   5.331  18.846  0.00  0.00    +0.000 C 
ATOM     10  C   UNL     1       4.427   5.700  17.793  0.00  0.00    +0.000 C 
ATOM     11  C   UNL     1       5.177   6.277  16.571  0.00  0.00    +0.000 C 
ATOM     12  C   UNL     1       3.727   4.391  17.370  0.00  0.00    +0.000 C 
ENDBRANCH   3  10
ENDBRANCH   1   6
BRANCH   1  13
ATOM     13  C   UNL     1      -0.406  10.376  18.915  0.00  0.00    +0.000 A 
ATOM     14  C   UNL     1      -0.277  11.720  18.551  0.00  0.00    +0.000 A 
ATOM     15  C   UNL     1      -1.283  12.358  17.820  0.00  0.00    +0.000 A 
ATOM     16  C   UNL     1      -2.425  11.654  17.440  0.00  0.00    +0.000 A 
ATOM     17  C   UNL     1      -2.554  10.307  17.780  0.00  0.00    +0.000 A 
ATOM     18  C   UNL     1      -1.550   9.670  18.515  0.00  0.00    +0.000 A 
ENDBRANCH   1  13
BRANCH   2  19
ATOM     19  C   UNL     1       0.176  11.291  21.637  0.00  0.00    +0.000 C 
ATOM     20  O   UNL     1       0.837  12.315  21.744  0.00  0.00    +0.000 OA
ATOM     21  N   UNL     1      -1.141  11.096  22.013  0.00  0.00    +0.000 N 
ATOM     22  H   UNL     1      -1.569  10.216  21.761  0.00  0.00    +0.000 HD
BRANCH  21  23
ATOM     23  C   UNL     1      -2.025  12.136  22.404  0.00  0.00    +0.000 A 
ATOM     24  C   UNL     1      -2.156  13.332  21.689  0.00  0.00    +0.000 A 
ATOM     25  C   UNL     1      -3.231  14.192  21.925  0.00  0.00    +0.000 A 
ATOM     26  C   UNL     1      -4.185  13.854  22.873  0.00  0.00    +0.000 A 
ATOM     27  C   UNL     1      -3.978  12.740  23.685  0.00  0.00    +0.000 A 
ATOM     28  C   UNL     1      -2.883  11.899  23.483  0.00  0.00    +0.000 A 
ATOM     29  O   UNL     1      -4.886  12.380  24.649  0.00  0.00    +0.000 OA
ATOM     30  C   UNL     1      -6.192  12.620  24.121  0.00  0.00    +0.000 C 
ATOM     31  C   UNL     1      -6.371  14.079  23.710  0.00  0.00    +0.000 C 
ATOM     32  O   UNL     1      -5.318  14.616  22.903  0.00  0.00    +0.000 OA
ENDBRANCH  21  23
ENDBRANCH   2  19
TORSDOF 5
ENDMDL
MODEL 6
REMARK VINA RESULT:      -8.5      0.459      1.267
REMARK  Name = 
REMARK  8 active torsions:
REMARK  status: ('A' for Active; 'I' for Inactive)
REMARK    1  A    between atoms: C_1  and  C_2
REMARK    2  A    between atoms: C_2  and  C_3
REMARK    3  A    between atoms: C_2  and  C_4
REMARK    4  A    between atoms: C_2  and  C_5
REMARK    5  A    between atoms: C_8  and  C_9
REMARK    6  A    between atoms: C_9  and  C_24
REMARK    7  A    between atoms: C_10  and  C_11
REMARK    8  A    between atoms: N_13  and  C_14
REMARK                            x       y       z     vdW  Elec       q    Type
REMARK                         _______ _______ _______ _____ _____    ______ ____
ROOT
ATOM      1  C   UNL     1       0.957   8.949  20.593  0.00  0.00    +0.000 C 
ATOM      2  C   UNL     1       0.553   8.693  21.856  0.00  0.00    +0.000 C 
ENDROOT
BRANCH   1   6
ATOM      3  C   UNL     1       2.988   5.691  18.588  0.00  0.00    +0.000 A 
ATOM      4  C   UNL     1       2.899   6.968  18.007  0.00  0.00    +0.000 A 
ATOM      5  C   UNL     1       2.262   8.033  18.659  0.00  0.00    +0.000 A 
ATOM      6  C   UNL     1       1.695   7.856  19.919  0.00  0.00    +0.000 A 
ATOM      7  C   UNL     1       1.795   6.601  20.528  0.00  0.00    +0.000 A 
ATOM      8  C   UNL     1       2.433   5.536  19.872  0.00  0.00    +0.000 A 
BRANCH   3  10
ATOM      9  C   UNL     1       4.541   3.640  18.796  0.00  0.00    +0.000 C 
ATOM     10  C   UNL     1       3.648   4.496  17.869  0.00  0.00    +0.000 C 
ATOM     11  C   UNL     1       4.546   5.000  16.716  0.00  0.00    +0.000 C 
ATOM     12  C   UNL     1       2.567   3.565  17.282  0.00  0.00    +0.000 C 
ENDBRANCH   3  10
ENDBRANCH   1   6
BRANCH   1  13
ATOM     13  C   UNL     1       0.706  10.268  19.962  0.00  0.00    +0.000 A 
ATOM     14  C   UNL     1       1.561  11.350  20.198  0.00  0.00    +0.000 A 
ATOM     15  C   UNL     1       1.276  12.608  19.661  0.00  0.00    +0.000 A 
ATOM     16  C   UNL     1       0.137  12.795  18.879  0.00  0.00    +0.000 A 
ATOM     17  C   UNL     1      -0.711  11.717  18.621  0.00  0.00    +0.000 A 
ATOM     18  C   UNL     1      -0.428  10.458  19.161  0.00  0.00    +0.000 A 
ENDBRANCH   1  13
BRANCH   2  19
ATOM     19  C   UNL     1       0.042   9.748  22.769  0.00  0.00    +0.000 C 
ATOM     20  O   UNL     1       0.514   9.844  23.893  0.00  0.00    +0.000 OA
ATOM     21  N   UNL     1      -0.953  10.526  22.204  0.00  0.00    +0.000 N 
ATOM     22  H   UNL     1      -1.157  10.378  21.226  0.00  0.00    +0.000 HD
BRANCH  21  23
ATOM     23  C   UNL     1      -1.459  11.722  22.779  0.00  0.00    +0.000 A 
ATOM     24  C   UNL     1      -0.841  12.966  22.609  0.00  0.00    +0.000 A 
ATOM     25  C   UNL     1      -1.514  14.148  22.928  0.00  0.00    +0.000 A 
ATOM     26  C   UNL     1      -2.813  14.089  23.412  0.00  0.00    +0.000 A 
ATOM     27  C   UNL     1      -3.373  12.850  23.718  0.00  0.00    +0.000 A 
ATOM     28  C   UNL     1      -2.690  11.665  23.441  0.00  0.00    +0.000 A 
ATOM     29  O   UNL     1      -4.646  12.746  24.218  0.00  0.00    +0.000 OA
ATOM     30  C   UNL     1      -5.450  13.725  23.556  0.00  0.00    +0.000 C 
ATOM     31  C   UNL     1      -4.893  15.132  23.751  0.00  0.00    +0.000 C 
ATOM     32  O   UNL     1      -3.491  15.271  23.496  0.00  0.00    +0.000 OA
ENDBRANCH  21  23
ENDBRANCH   2  19
TORSDOF 5
ENDMDL
MODEL 7
REMARK VINA RESULT:      -8.5      1.234      1.688
REMARK  Name = 
REMARK  8 active torsions:
REMARK  status: ('A' for Active; 'I' for Inactive)
REMARK    1  A    between atoms: C_1  and  C_2
REMARK    2  A    between atoms: C_2  and  C_3
REMARK    3  A    between atoms: C_2  and  C_4
REMARK    4  A    between atoms: C_2  and  C_5
REMARK    5  A    between atoms: C_8  and  C_9
REMARK    6  A    between atoms: C_9  and  C_24
REMARK    7  A    between atoms: C_10  and  C_11
REMARK    8  A    between atoms: N_13  and  C_14
REMARK                            x       y       z     vdW  Elec       q    Type
REMARK                         _______ _______ _______ _____ _____    ______ ____
ROOT
ATOM      1  C   UNL     1       0.571   9.730  19.816  0.00  0.00    +0.000 C 
ATOM      2  C   UNL     1       0.774  10.099  21.100  0.00  0.00    +0.000 C 
ENDROOT
BRANCH   1   6
ATOM      3  C   UNL     1       3.312   6.717  18.341  0.00  0.00    +0.000 A 
ATOM      4  C   UNL     1       2.700   6.598  19.601  0.00  0.00    +0.000 A 
ATOM      5  C   UNL     1       1.796   7.558  20.077  0.00  0.00    +0.000 A 
ATOM      6  C   UNL     1       1.470   8.670  19.303  0.00  0.00    +0.000 A 
ATOM      7  C   UNL     1       2.047   8.796  18.035  0.00  0.00    +0.000 A 
ATOM      8  C   UNL     1       2.953   7.833  17.562  0.00  0.00    +0.000 A 
BRANCH   3  10
ATOM      9  C   UNL     1       5.121   6.187  16.578  0.00  0.00    +0.000 C 
ATOM     10  C   UNL     1       4.341   5.694  17.818  0.00  0.00    +0.000 C 
ATOM     11  C   UNL     1       3.628   4.384  17.411  0.00  0.00    +0.000 C 
ATOM     12  C   UNL     1       5.377   5.372  18.916  0.00  0.00    +0.000 C 
ENDBRANCH   3  10
ENDBRANCH   1   6
BRANCH   1  13
ATOM     13  C   UNL     1      -0.459  10.394  18.983  0.00  0.00    +0.000 A 
ATOM     14  C   UNL     1      -1.580   9.690  18.531  0.00  0.00    +0.000 A 
ATOM     15  C   UNL     1      -2.508  10.301  17.684  0.00  0.00    +0.000 A 
ATOM     16  C   UNL     1      -2.327  11.625  17.286  0.00  0.00    +0.000 A 
ATOM     17  C   UNL     1      -1.223  12.342  17.747  0.00  0.00    +0.000 A 
ATOM     18  C   UNL     1      -0.292  11.730  18.592  0.00  0.00    +0.000 A 
ENDBRANCH   1  13
BRANCH   2  19
ATOM     19  C   UNL     1       0.158  11.312  21.697  0.00  0.00    +0.000 C 
ATOM     20  O   UNL     1       0.821  12.337  21.785  0.00  0.00    +0.000 OA
ATOM     21  N   UNL     1      -1.152  11.121  22.098  0.00  0.00    +0.000 N 
ATOM     22  H   UNL     1      -1.585  10.240  21.860  0.00  0.00    +0.000 HD
BRANCH  21  23
ATOM     23  C   UNL     1      -2.029  12.164  22.500  0.00  0.00    +0.000 A 
ATOM     24  C   UNL     1      -2.106  13.391  21.831  0.00  0.00    +0.000 A 
ATOM     25  C   UNL     1      -3.171  14.265  22.062  0.00  0.00    +0.000 A 
ATOM     26  C   UNL     1      -4.167  13.910  22.960  0.00  0.00    +0.000 A 
ATOM     27  C   UNL     1      -4.015  12.759  23.731  0.00  0.00    +0.000 A 
ATOM     28  C   UNL     1      -2.932  11.903  23.536  0.00  0.00    +0.000 A 
ATOM     29  O   UNL     1      -4.966  12.382  24.645  0.00  0.00    +0.000 OA
ATOM     30  C   UNL     1      -6.246  12.673  24.080  0.00  0.00    +0.000 C 
ATOM     31  C   UNL     1      -6.378  14.151  23.724  0.00  0.00    +0.000 C 
ATOM     32  O   UNL     1      -5.284  14.696  22.980  0.00  0.00    +0.000 OA
ENDBRANCH  21  23
ENDBRANCH   2  19
TORSDOF 5
ENDMDL
MODEL 8
REMARK VINA RESULT:      -8.5      2.863      4.255
REMARK  Name = 
REMARK  8 active torsions:
REMARK  status: ('A' for Active; 'I' for Inactive)
REMARK    1  A    between atoms: C_1  and  C_2
REMARK    2  A    between atoms: C_2  and  C_3
REMARK    3  A    between atoms: C_2  and  C_4
REMARK    4  A    between atoms: C_2  and  C_5
REMARK    5  A    between atoms: C_8  and  C_9
REMARK    6  A    between atoms: C_9  and  C_24
REMARK    7  A    between atoms: C_10  and  C_11
REMARK    8  A    between atoms: N_13  and  C_14
REMARK                            x       y       z     vdW  Elec       q    Type
REMARK                         _______ _______ _______ _____ _____    ______ ____
ROOT
ATOM      1  C   UNL     1       1.117   9.287  19.293  0.00  0.00    +0.000 C 
ATOM      2  C   UNL     1       0.770  10.027  18.218  0.00  0.00    +0.000 C 
ENDROOT
BRANCH   1   6
ATOM      3  C   UNL     1       3.762   5.952  18.486  0.00  0.00    +0.000 A 
ATOM      4  C   UNL     1       3.668   7.044  17.605  0.00  0.00    +0.000 A 
ATOM      5  C   UNL     1       2.831   8.137  17.870  0.00  0.00    +0.000 A 
ATOM      6  C   UNL     1       2.060   8.175  19.030  0.00  0.00    +0.000 A 
ATOM      7  C   UNL     1       2.157   7.112  19.934  0.00  0.00    +0.000 A 
ATOM      8  C   UNL     1       2.996   6.018  19.665  0.00  0.00    +0.000 A 
BRANCH   3  10
ATOM      9  C   UNL     1       4.245   3.471  19.008  0.00  0.00    +0.000 C 
ATOM     10  C   UNL     1       4.646   4.723  18.193  0.00  0.00    +0.000 C 
ATOM     11  C   UNL     1       6.120   5.033  18.538  0.00  0.00    +0.000 C 
ATOM     12  C   UNL     1       4.556   4.347  16.699  0.00  0.00    +0.000 C 
ENDBRANCH   3  10
ENDBRANCH   1   6
BRANCH   1  13
ATOM     13  C   UNL     1       0.538   9.561  20.630  0.00  0.00    +0.000 A 
ATOM     14  C   UNL     1      -0.084   8.546  21.364  0.00  0.00    +0.000 A 
ATOM     15  C   UNL     1      -0.693   8.829  22.590  0.00  0.00    +0.000 A 
ATOM     16  C   UNL     1      -0.680  10.128  23.095  0.00  0.00    +0.000 A 
ATOM     17  C   UNL     1      -0.044  11.143  22.380  0.00  0.00    +0.000 A 
ATOM     18  C   UNL     1       0.562  10.862  21.152  0.00  0.00    +0.000 A 
ENDBRANCH   1  13
BRANCH   2  19
ATOM     19  C   UNL     1      -0.353  11.001  18.238  0.00  0.00    +0.000 C 
ATOM     20  O   UNL     1      -0.104  12.197  18.297  0.00  0.00    +0.000 OA
ATOM     21  N   UNL     1      -1.599  10.401  18.187  0.00  0.00    +0.000 N 
ATOM     22  H   UNL     1      -1.625   9.402  18.038  0.00  0.00    +0.000 HD
BRANCH  21  23
ATOM     23  C   UNL     1      -2.818  11.101  17.982  0.00  0.00    +0.000 A 
ATOM     24  C   UNL     1      -3.497  11.102  16.759  0.00  0.00    +0.000 A 
ATOM     25  C   UNL     1      -4.820  11.542  16.676  0.00  0.00    +0.000 A 
ATOM     26  C   UNL     1      -5.472  11.975  17.821  0.00  0.00    +0.000 A 
ATOM     27  C   UNL     1      -4.752  12.112  19.008  0.00  0.00    +0.000 A 
ATOM     28  C   UNL     1      -3.418  11.714  19.087  0.00  0.00    +0.000 A 
ATOM     29  O   UNL     1      -5.352  12.557  20.159  0.00  0.00    +0.000 OA
ATOM     30  C   UNL     1      -6.665  11.994  20.205  0.00  0.00    +0.000 C 
ATOM     31  C   UNL     1      -7.482  12.375  18.974  0.00  0.00    +0.000 C 
ATOM     32  O   UNL     1      -6.818  12.182  17.721  0.00  0.00    +0.000 OA
ENDBRANCH  21  23
ENDBRANCH   2  19
TORSDOF 5
ENDMDL
MODEL 9
REMARK VINA RESULT:      -8.4      2.855      4.100
REMARK  Name = 
REMARK  8 active torsions:
REMARK  status: ('A' for Active; 'I' for Inactive)
REMARK    1  A    between atoms: C_1  and  C_2
REMARK    2  A    between atoms: C_2  and  C_3
REMARK    3  A    between atoms: C_2  and  C_4
REMARK    4  A    between atoms: C_2  and  C_5
REMARK    5  A    between atoms: C_8  and  C_9
REMARK    6  A    between atoms: C_9  and  C_24
REMARK    7  A    between atoms: C_10  and  C_11
REMARK    8  A    between atoms: N_13  and  C_14
REMARK                            x       y       z     vdW  Elec       q    Type
REMARK                         _______ _______ _______ _____ _____    ______ ____
ROOT
ATOM      1  C   UNL     1       1.124   9.212  19.246  0.00  0.00    +0.000 C 
ATOM      2  C   UNL     1       0.767   9.959  18.179  0.00  0.00    +0.000 C 
ENDROOT
BRANCH   1   6
ATOM      3  C   UNL     1       3.943   6.017  18.463  0.00  0.00    +0.000 A 
ATOM      4  C   UNL     1       3.117   6.004  19.601  0.00  0.00    +0.000 A 
ATOM      5  C   UNL     1       2.187   7.024  19.850  0.00  0.00    +0.000 A 
ATOM      6  C   UNL     1       2.050   8.091  18.964  0.00  0.00    +0.000 A 
ATOM      7  C   UNL     1       2.843   8.111  17.812  0.00  0.00    +0.000 A 
ATOM      8  C   UNL     1       3.774   7.089  17.566  0.00  0.00    +0.000 A 
BRANCH   3  10
ATOM      9  C   UNL     1       4.978   4.398  16.741  0.00  0.00    +0.000 C 
ATOM     10  C   UNL     1       5.000   4.927  18.193  0.00  0.00    +0.000 C 
ATOM     11  C   UNL     1       4.761   3.713  19.120  0.00  0.00    +0.000 C 
ATOM     12  C   UNL     1       6.416   5.481  18.459  0.00  0.00    +0.000 C 
ENDBRANCH   3  10
ENDBRANCH   1   6
BRANCH   1  13
ATOM     13  C   UNL     1       0.572   9.490  20.593  0.00  0.00    +0.000 A 
ATOM     14  C   UNL     1      -0.080   8.490  21.321  0.00  0.00    +0.000 A 
ATOM     15  C   UNL     1      -0.664   8.778  22.558  0.00  0.00    +0.000 A 
ATOM     16  C   UNL     1      -0.594  10.068  23.081  0.00  0.00    +0.000 A 
ATOM     17  C   UNL     1       0.073  11.068  22.372  0.00  0.00    +0.000 A 
ATOM     18  C   UNL     1       0.653  10.781  21.133  0.00  0.00    +0.000 A 
ENDBRANCH   1  13
BRANCH   2  19
ATOM     19  C   UNL     1      -0.345  10.945  18.221  0.00  0.00    +0.000 C 
ATOM     20  O   UNL     1      -0.082  12.137  18.306  0.00  0.00    +0.000 OA
ATOM     21  N   UNL     1      -1.597  10.361  18.157  0.00  0.00    +0.000 N 
ATOM     22  H   UNL     1      -1.636   9.366  17.987  0.00  0.00    +0.000 HD
BRANCH  21  23
ATOM     23  C   UNL     1      -2.808  11.080  17.969  0.00  0.00    +0.000 A 
ATOM     24  C   UNL     1      -3.488  11.115  16.746  0.00  0.00    +0.000 A 
ATOM     25  C   UNL     1      -4.806  11.572  16.674  0.00  0.00    +0.000 A 
ATOM     26  C   UNL     1      -5.452  11.989  17.829  0.00  0.00    +0.000 A 
ATOM     27  C   UNL     1      -4.730  12.092  19.017  0.00  0.00    +0.000 A 
ATOM     28  C   UNL     1      -3.400  11.677  19.087  0.00  0.00    +0.000 A 
ATOM     29  O   UNL     1      -5.323  12.519  20.178  0.00  0.00    +0.000 OA
ATOM     30  C   UNL     1      -6.643  11.972  20.214  0.00  0.00    +0.000 C 
ATOM     31  C   UNL     1      -7.456  12.389  18.992  0.00  0.00    +0.000 C 
ATOM     32  O   UNL     1      -6.795  12.214  17.734  0.00  0.00    +0.000 OA
ENDBRANCH  21  23
ENDBRANCH   2  19
TORSDOF 5
ENDMDL
