MODEL 1
REMARK VINA RESULT:      -8.8      0.000      0.000
REMARK  Name = 
REMARK  9 active torsions:
REMARK  status: ('A' for Active; 'I' for Inactive)
REMARK    1  A    between atoms: C_1  and  O_2
REMARK    2  A    between atoms: O_2  and  C_3
REMARK    3  A    between atoms: C_3  and  C_5
REMARK    4  A    between atoms: C_6  and  C_7
REMARK    5  A    between atoms: C_10  and  C_11
REMARK    6  A    between atoms: C_16  and  N_17
REMARK    7  A    between atoms: C_18  and  C_20
REMARK    8  A    between atoms: C_21  and  C_22
REMARK    9  A    between atoms: C_30  and  C_31
REMARK                            x       y       z     vdW  Elec       q    Type
REMARK                         _______ _______ _______ _____ _____    ______ ____
ROOT
ATOM      1  C   UNL     1       0.888   8.640  20.065  0.00  0.00    +0.000 A 
ATOM      2  C   UNL     1       0.416   9.659  19.127  0.00  0.00    +0.000 A 
ATOM      3  C   UNL     1       1.219   9.707  17.999  0.00  0.00    +0.000 A 
ATOM      4  S   UNL     1       2.531   8.619  18.069  0.00  0.00    +0.000 S 
ATOM      5  C   UNL     1       1.949   7.939  19.511  0.00  0.00    +0.000 A 
ENDROOT
BRANCH   2   6
ATOM      6  C   UNL     1      -0.773  10.522  19.234  0.00  0.00    +0.000 A 
ATOM      7  C   UNL     1      -1.813  10.460  18.294  0.00  0.00    +0.000 A 
ATOM      8  C   UNL     1      -2.955  11.262  18.428  0.00  0.00    +0.000 A 
ATOM      9  C   UNL     1      -3.075  12.155  19.497  0.00  0.00    +0.000 A 
ATOM     10  C   UNL     1      -4.295  13.009  19.673  0.00  0.00    +0.000 C 
ATOM     11  C   UNL     1      -2.035  12.236  20.425  0.00  0.00    +0.000 A 
ATOM     12  C   UNL     1      -0.909  11.415  20.305  0.00  0.00    +0.000 A 
ENDBRANCH   2   6
BRANCH   5  13
ATOM     13  N   UNL     1       2.652   6.808  19.900  0.00  0.00    +0.000 N 
ATOM     14  C   UNL     1       2.429   5.635  19.186  0.00  0.00    +0.000 C 
ATOM     15  O   UNL     1       1.673   5.562  18.225  0.00  0.00    +0.000 OA
ATOM     16  H   UNL     1       3.618   6.959  20.165  0.00  0.00    +0.000 HD
BRANCH  14  17
ATOM     17  C   UNL     1       3.244   4.501  19.580  0.00  0.00    +0.000 A 
ATOM     18  C   UNL     1       4.638   4.293  19.304  0.00  0.00    +0.000 A 
ATOM     19  N   UNL     1       5.020   3.081  19.741  0.00  0.00    +0.000 NA
ATOM     20  O   UNL     1       3.912   2.500  20.307  0.00  0.00    +0.000 OA
ATOM     21  C   UNL     1       2.850   3.341  20.218  0.00  0.00    +0.000 A 
ATOM     22  C   UNL     1       1.582   2.806  20.753  0.00  0.00    +0.000 C 
BRANCH  18  23
ATOM     23  C   UNL     1       5.609   5.192  18.665  0.00  0.00    +0.000 A 
ATOM     24  C   UNL     1       5.346   5.777  17.417  0.00  0.00    +0.000 A 
ATOM     25  C   UNL     1       6.291   6.593  16.791  0.00  0.00    +0.000 A 
ATOM     26  C   UNL     1       7.498   6.869  17.425  0.00  0.00    +0.000 A 
ATOM     27  C   UNL     1       7.761   6.328  18.682  0.00  0.00    +0.000 A 
ATOM     28  C   UNL     1       6.824   5.490  19.297  0.00  0.00    +0.000 A 
ENDBRANCH  18  23
ENDBRANCH  14  17
ENDBRANCH   5  13
BRANCH   1  29
ATOM     29  C   UNL     1       0.344   8.427  21.415  0.00  0.00    +0.000 C 
ATOM     30  O   UNL     1      -0.652   7.745  21.635  0.00  0.00    +0.000 OA
BRANCH  29  32
ATOM     31  C   UNL     1       0.271   9.562  23.483  0.00  0.00    +0.000 C 
ATOM     32  O   UNL     1       1.041   9.050  22.395  0.00  0.00    +0.000 OA
ENDBRANCH  29  32
ENDBRANCH   1  29
TORSDOF 6
ENDMDL
MODEL 2
REMARK VINA RESULT:      -8.6      0.767      1.247
REMARK  Name = 
REMARK  9 active torsions:
REMARK  status: ('A' for Active; 'I' for Inactive)
REMARK    1  A    between atoms: C_1  and  O_2
REMARK    2  A    between atoms: O_2  and  C_3
REMARK    3  A    between atoms: C_3  and  C_5
REMARK    4  A    between atoms: C_6  and  C_7
REMARK    5  A    between atoms: C_10  and  C_11
REMARK    6  A    between atoms: C_16  and  N_17
REMARK    7  A    between atoms: C_18  and  C_20
REMARK    8  A    between atoms: C_21  and  C_22
REMARK    9  A    between atoms: C_30  and  C_31
REMARK                            x       y       z     vdW  Elec       q    Type
REMARK                         _______ _______ _______ _____ _____    ______ ____
ROOT
ATOM      1  C   UNL     1       1.328   8.590  20.051  0.00  0.00    +0.000 A 
ATOM      2  C   UNL     1       0.777   9.525  19.071  0.00  0.00    +0.000 A 
ATOM      3  C   UNL     1       1.358   9.343  17.827  0.00  0.00    +0.000 A 
ATOM      4  S   UNL     1       2.568   8.139  17.828  0.00  0.00    +0.000 S 
ATOM      5  C   UNL     1       2.207   7.715  19.431  0.00  0.00    +0.000 A 
ENDROOT
BRANCH   2   6
ATOM      6  C   UNL     1      -0.298  10.517  19.254  0.00  0.00    +0.000 A 
ATOM      7  C   UNL     1      -1.539  10.382  18.613  0.00  0.00    +0.000 A 
ATOM      8  C   UNL     1      -2.564  11.314  18.825  0.00  0.00    +0.000 A 
ATOM      9  C   UNL     1      -2.366  12.410  19.669  0.00  0.00    +0.000 A 
ATOM     10  C   UNL     1      -3.454  13.410  19.927  0.00  0.00    +0.000 C 
ATOM     11  C   UNL     1      -1.127  12.560  20.295  0.00  0.00    +0.000 A 
ATOM     12  C   UNL     1      -0.115  11.614  20.105  0.00  0.00    +0.000 A 
ENDBRANCH   2   6
BRANCH   5  13
ATOM     13  N   UNL     1       2.876   6.575  19.854  0.00  0.00    +0.000 N 
ATOM     14  C   UNL     1       2.404   5.347  19.398  0.00  0.00    +0.000 C 
ATOM     15  O   UNL     1       1.457   5.230  18.629  0.00  0.00    +0.000 OA
ATOM     16  H   UNL     1       3.885   6.645  19.896  0.00  0.00    +0.000 HD
BRANCH  14  17
ATOM     17  C   UNL     1       3.182   4.192  19.804  0.00  0.00    +0.000 A 
ATOM     18  C   UNL     1       4.478   3.802  19.325  0.00  0.00    +0.000 A 
ATOM     19  N   UNL     1       4.833   2.621  19.858  0.00  0.00    +0.000 NA
ATOM     20  O   UNL     1       3.805   2.238  20.683  0.00  0.00    +0.000 OA
ATOM     21  C   UNL     1       2.818   3.170  20.659  0.00  0.00    +0.000 A 
ATOM     22  C   UNL     1       1.630   2.844  21.475  0.00  0.00    +0.000 C 
BRANCH  18  23
ATOM     23  C   UNL     1       5.384   4.505  18.406  0.00  0.00    +0.000 A 
ATOM     24  C   UNL     1       6.452   5.280  18.886  0.00  0.00    +0.000 A 
ATOM     25  C   UNL     1       7.281   5.983  18.011  0.00  0.00    +0.000 A 
ATOM     26  C   UNL     1       7.080   5.890  16.638  0.00  0.00    +0.000 A 
ATOM     27  C   UNL     1       6.050   5.095  16.140  0.00  0.00    +0.000 A 
ATOM     28  C   UNL     1       5.203   4.410  17.018  0.00  0.00    +0.000 A 
ENDBRANCH  18  23
ENDBRANCH  14  17
ENDBRANCH   5  13
BRANCH   1  29
ATOM     29  C   UNL     1       1.027   8.610  21.491  0.00  0.00    +0.000 C 
ATOM     30  O   UNL     1       1.893   8.721  22.354  0.00  0.00    +0.000 OA
BRANCH  29  32
ATOM     31  C   UNL     1      -0.777   9.340  22.825  0.00  0.00    +0.000 C 
ATOM     32  O   UNL     1      -0.290   8.496  21.782  0.00  0.00    +0.000 OA
ENDBRANCH  29  32
ENDBRANCH   1  29
TORSDOF 6
ENDMDL
MODEL 3
REMARK VINA RESULT:      -8.4      0.873      1.361
REMARK  Name = 
REMARK  9 active torsions:
REMARK  status: ('A' for Active; 'I' for Inactive)
REMARK    1  A    between atoms: C_1  and  O_2
REMARK    2  A    between atoms: O_2  and  C_3
REMARK    3  A    between atoms: C_3  and  C_5
REMARK    4  A    between atoms: C_6  and  C_7
REMARK    5  A    between atoms: C_10  and  C_11
REMARK    6  A    between atoms: C_16  and  N_17
REMARK    7  A    between atoms: C_18  and  C_20
REMARK    8  A    between atoms: C_21  and  C_22
REMARK    9  A    between atoms: C_30  and  C_31
REMARK                            x       y       z     vdW  Elec       q    Type
REMARK                         _______ _______ _______ _____ _____    ______ ____
ROOT
ATOM      1  C   UNL     1       1.385   8.580  20.114  0.00  0.00    +0.000 A 
ATOM      2  C   UNL     1       0.816   9.521  19.149  0.00  0.00    +0.000 A 
ATOM      3  C   UNL     1       1.369   9.340  17.892  0.00  0.00    +0.000 A 
ATOM      4  S   UNL     1       2.573   8.130  17.862  0.00  0.00    +0.000 S 
ATOM      5  C   UNL     1       2.247   7.703  19.472  0.00  0.00    +0.000 A 
ENDROOT
BRANCH   2   6
ATOM      6  C   UNL     1      -0.249  10.517  19.359  0.00  0.00    +0.000 A 
ATOM      7  C   UNL     1      -0.066  11.622  20.204  0.00  0.00    +0.000 A 
ATOM      8  C   UNL     1      -1.076  12.581  20.366  0.00  0.00    +0.000 A 
ATOM      9  C   UNL     1      -2.296  12.447  19.699  0.00  0.00    +0.000 A 
ATOM     10  C   UNL     1      -3.385  13.469  19.840  0.00  0.00    +0.000 C 
ATOM     11  C   UNL     1      -2.493  11.339  18.871  0.00  0.00    +0.000 A 
ATOM     12  C   UNL     1      -1.474  10.399  18.689  0.00  0.00    +0.000 A 
ENDBRANCH   2   6
BRANCH   5  13
ATOM     13  N   UNL     1       2.919   6.559  19.877  0.00  0.00    +0.000 N 
ATOM     14  C   UNL     1       2.452   5.337  19.402  0.00  0.00    +0.000 C 
ATOM     15  O   UNL     1       1.505   5.229  18.631  0.00  0.00    +0.000 OA
ATOM     16  H   UNL     1       3.928   6.633  19.920  0.00  0.00    +0.000 HD
BRANCH  14  17
ATOM     17  C   UNL     1       3.234   4.178  19.789  0.00  0.00    +0.000 A 
ATOM     18  C   UNL     1       4.471   3.730  19.213  0.00  0.00    +0.000 A 
ATOM     19  N   UNL     1       4.843   2.563  19.767  0.00  0.00    +0.000 NA
ATOM     20  O   UNL     1       3.885   2.247  20.699  0.00  0.00    +0.000 OA
ATOM     21  C   UNL     1       2.924   3.206  20.721  0.00  0.00    +0.000 A 
ATOM     22  C   UNL     1       1.808   2.953  21.654  0.00  0.00    +0.000 C 
BRANCH  18  23
ATOM     23  C   UNL     1       5.306   4.364  18.185  0.00  0.00    +0.000 A 
ATOM     24  C   UNL     1       5.048   4.176  16.818  0.00  0.00    +0.000 A 
ATOM     25  C   UNL     1       5.873   4.742  15.845  0.00  0.00    +0.000 A 
ATOM     26  C   UNL     1       6.947   5.541  16.224  0.00  0.00    +0.000 A 
ATOM     27  C   UNL     1       7.197   5.771  17.575  0.00  0.00    +0.000 A 
ATOM     28  C   UNL     1       6.385   5.183  18.551  0.00  0.00    +0.000 A 
ENDBRANCH  18  23
ENDBRANCH  14  17
ENDBRANCH   5  13
BRANCH   1  29
ATOM     29  C   UNL     1       1.117   8.598  21.561  0.00  0.00    +0.000 C 
ATOM     30  O   UNL     1       2.004   8.678  22.404  0.00  0.00    +0.000 OA
BRANCH  29  32
ATOM     31  C   UNL     1      -0.634   9.358  22.947  0.00  0.00    +0.000 C 
ATOM     32  O   UNL     1      -0.196   8.518  21.879  0.00  0.00    +0.000 OA
ENDBRANCH  29  32
ENDBRANCH   1  29
TORSDOF 6
ENDMDL
MODEL 4
REMARK VINA RESULT:      -7.6      4.291     10.349
REMARK  Name = 
REMARK  9 active torsions:
REMARK  status: ('A' for Active; 'I' for Inactive)
REMARK    1  A    between atoms: C_1  and  O_2
REMARK    2  A    between atoms: O_2  and  C_3
REMARK    3  A    between atoms: C_3  and  C_5
REMARK    4  A    between atoms: C_6  and  C_7
REMARK    5  A    between atoms: C_10  and  C_11
REMARK    6  A    between atoms: C_16  and  N_17
REMARK    7  A    between atoms: C_18  and  C_20
REMARK    8  A    between atoms: C_21  and  C_22
REMARK    9  A    between atoms: C_30  and  C_31
REMARK                            x       y       z     vdW  Elec       q    Type
REMARK                         _______ _______ _______ _____ _____    ______ ____
ROOT
ATOM      1  C   UNL     1      -0.792  11.517  19.027  0.00  0.00    +0.000 A 
ATOM      2  C   UNL     1       0.565  11.103  19.385  0.00  0.00    +0.000 A 
ATOM      3  C   UNL     1       1.212  12.089  20.112  0.00  0.00    +0.000 A 
ATOM      4  S   UNL     1       0.264  13.493  20.318  0.00  0.00    +0.000 S 
ATOM      5  C   UNL     1      -1.082  12.743  19.606  0.00  0.00    +0.000 A 
ENDROOT
BRANCH   2   6
ATOM      6  C   UNL     1       1.229   9.814  19.121  0.00  0.00    +0.000 A 
ATOM      7  C   UNL     1       1.827   9.536  17.882  0.00  0.00    +0.000 A 
ATOM      8  C   UNL     1       2.487   8.320  17.658  0.00  0.00    +0.000 A 
ATOM      9  C   UNL     1       2.549   7.349  18.661  0.00  0.00    +0.000 A 
ATOM     10  C   UNL     1       3.266   6.048  18.452  0.00  0.00    +0.000 C 
ATOM     11  C   UNL     1       1.940   7.612  19.890  0.00  0.00    +0.000 A 
ATOM     12  C   UNL     1       1.307   8.837  20.121  0.00  0.00    +0.000 A 
ENDBRANCH   2   6
BRANCH   5  13
ATOM     13  N   UNL     1      -2.241  13.501  19.707  0.00  0.00    +0.000 N 
ATOM     14  C   UNL     1      -3.031  13.318  20.838  0.00  0.00    +0.000 C 
ATOM     15  O   UNL     1      -2.741  12.552  21.749  0.00  0.00    +0.000 OA
ATOM     16  H   UNL     1      -2.167  14.462  19.399  0.00  0.00    +0.000 HD
BRANCH  14  17
ATOM     17  C   UNL     1      -4.189  14.187  20.935  0.00  0.00    +0.000 A 
ATOM     18  C   UNL     1      -5.545  13.874  20.578  0.00  0.00    +0.000 A 
ATOM     19  N   UNL     1      -6.321  14.963  20.711  0.00  0.00    +0.000 NA
ATOM     20  O   UNL     1      -5.507  15.974  21.160  0.00  0.00    +0.000 OA
ATOM     21  C   UNL     1      -4.235  15.519  21.299  0.00  0.00    +0.000 A 
ATOM     22  C   UNL     1      -3.251  16.532  21.731  0.00  0.00    +0.000 C 
BRANCH  18  23
ATOM     23  C   UNL     1      -6.124  12.598  20.135  0.00  0.00    +0.000 A 
ATOM     24  C   UNL     1      -7.031  11.892  20.941  0.00  0.00    +0.000 A 
ATOM     25  C   UNL     1      -7.542  10.658  20.536  0.00  0.00    +0.000 A 
ATOM     26  C   UNL     1      -7.185  10.130  19.300  0.00  0.00    +0.000 A 
ATOM     27  C   UNL     1      -6.316  10.834  18.470  0.00  0.00    +0.000 A 
ATOM     28  C   UNL     1      -5.784  12.060  18.886  0.00  0.00    +0.000 A 
ENDBRANCH  18  23
ENDBRANCH  14  17
ENDBRANCH   5  13
BRANCH   1  29
ATOM     29  C   UNL     1      -1.693  10.763  18.143  0.00  0.00    +0.000 C 
ATOM     30  O   UNL     1      -1.922   9.566  18.285  0.00  0.00    +0.000 OA
BRANCH  29  32
ATOM     31  C   UNL     1      -2.652  10.795  15.987  0.00  0.00    +0.000 C 
ATOM     32  O   UNL     1      -2.249  11.506  17.158  0.00  0.00    +0.000 OA
ENDBRANCH  29  32
ENDBRANCH   1  29
TORSDOF 6
ENDMDL
MODEL 5
REMARK VINA RESULT:      -7.5      4.447     10.438
REMARK  Name = 
REMARK  9 active torsions:
REMARK  status: ('A' for Active; 'I' for Inactive)
REMARK    1  A    between atoms: C_1  and  O_2
REMARK    2  A    between atoms: O_2  and  C_3
REMARK    3  A    between atoms: C_3  and  C_5
REMARK    4  A    between atoms: C_6  and  C_7
REMARK    5  A    between atoms: C_10  and  C_11
REMARK    6  A    between atoms: C_16  and  N_17
REMARK    7  A    between atoms: C_18  and  C_20
REMARK    8  A    between atoms: C_21  and  C_22
REMARK    9  A    between atoms: C_30  and  C_31
REMARK                            x       y       z     vdW  Elec       q    Type
REMARK                         _______ _______ _______ _____ _____    ______ ____
ROOT
ATOM      1  C   UNL     1      -1.316  11.470  19.646  0.00  0.00    +0.000 A 
ATOM      2  C   UNL     1       0.043  11.100  20.040  0.00  0.00    +0.000 A 
ATOM      3  C   UNL     1       0.516  11.934  21.041  0.00  0.00    +0.000 A 
ATOM      4  S   UNL     1      -0.594  13.160  21.464  0.00  0.00    +0.000 S 
ATOM      5  C   UNL     1      -1.786  12.490  20.459  0.00  0.00    +0.000 A 
ENDROOT
BRANCH   2   6
ATOM      6  C   UNL     1       0.864   9.976  19.558  0.00  0.00    +0.000 A 
ATOM      7  C   UNL     1       1.113   8.851  20.359  0.00  0.00    +0.000 A 
ATOM      8  C   UNL     1       1.866   7.773  19.873  0.00  0.00    +0.000 A 
ATOM      9  C   UNL     1       2.399   7.802  18.582  0.00  0.00    +0.000 A 
ATOM     10  C   UNL     1       3.191   6.653  18.032  0.00  0.00    +0.000 C 
ATOM     11  C   UNL     1       2.171   8.927  17.786  0.00  0.00    +0.000 A 
ATOM     12  C   UNL     1       1.396   9.989  18.262  0.00  0.00    +0.000 A 
ENDBRANCH   2   6
BRANCH   5  13
ATOM     13  N   UNL     1      -3.025  13.098  20.608  0.00  0.00    +0.000 N 
ATOM     14  C   UNL     1      -3.742  12.817  21.767  0.00  0.00    +0.000 C 
ATOM     15  O   UNL     1      -3.324  12.092  22.663  0.00  0.00    +0.000 OA
ATOM     16  H   UNL     1      -3.083  14.061  20.303  0.00  0.00    +0.000 HD
BRANCH  14  17
ATOM     17  C   UNL     1      -4.995  13.535  21.914  0.00  0.00    +0.000 A 
ATOM     18  C   UNL     1      -6.289  13.135  21.438  0.00  0.00    +0.000 A 
ATOM     19  N   UNL     1      -7.189  14.105  21.672  0.00  0.00    +0.000 NA
ATOM     20  O   UNL     1      -6.515  15.122  22.302  0.00  0.00    +0.000 OA
ATOM     21  C   UNL     1      -5.207  14.789  22.452  0.00  0.00    +0.000 A 
ATOM     22  C   UNL     1      -4.364  15.829  23.077  0.00  0.00    +0.000 C 
BRANCH  18  23
ATOM     23  C   UNL     1      -6.700  11.881  20.792  0.00  0.00    +0.000 A 
ATOM     24  C   UNL     1      -7.566  10.982  21.432  0.00  0.00    +0.000 A 
ATOM     25  C   UNL     1      -7.916   9.770  20.834  0.00  0.00    +0.000 A 
ATOM     26  C   UNL     1      -7.437   9.457  19.566  0.00  0.00    +0.000 A 
ATOM     27  C   UNL     1      -6.607  10.354  18.898  0.00  0.00    +0.000 A 
ATOM     28  C   UNL     1      -6.236  11.558  19.508  0.00  0.00    +0.000 A 
ENDBRANCH  18  23
ENDBRANCH  14  17
ENDBRANCH   5  13
BRANCH   1  29
ATOM     29  C   UNL     1      -2.053  10.876  18.520  0.00  0.00    +0.000 C 
ATOM     30  O   UNL     1      -2.121   9.666  18.329  0.00  0.00    +0.000 OA
BRANCH  29  32
ATOM     31  C   UNL     1      -3.546  11.256  16.733  0.00  0.00    +0.000 C 
ATOM     32  O   UNL     1      -2.650  11.783  17.712  0.00  0.00    +0.000 OA
ENDBRANCH  29  32
ENDBRANCH   1  29
TORSDOF 6
ENDMDL
MODEL 6
REMARK VINA RESULT:      -7.5      1.554      1.735
REMARK  Name = 
REMARK  9 active torsions:
REMARK  status: ('A' for Active; 'I' for Inactive)
REMARK    1  A    between atoms: C_1  and  O_2
REMARK    2  A    between atoms: O_2  and  C_3
REMARK    3  A    between atoms: C_3  and  C_5
REMARK    4  A    between atoms: C_6  and  C_7
REMARK    5  A    between atoms: C_10  and  C_11
REMARK    6  A    between atoms: C_16  and  N_17
REMARK    7  A    between atoms: C_18  and  C_20
REMARK    8  A    between atoms: C_21  and  C_22
REMARK    9  A    between atoms: C_30  and  C_31
REMARK                            x       y       z     vdW  Elec       q    Type
REMARK                         _______ _______ _______ _____ _____    ______ ____
ROOT
ATOM      1  C   UNL     1       1.673   8.118  19.571  0.00  0.00    +0.000 A 
ATOM      2  C   UNL     1       1.446   9.391  18.887  0.00  0.00    +0.000 A 
ATOM      3  C   UNL     1       2.210   9.480  17.734  0.00  0.00    +0.000 A 
ATOM      4  S   UNL     1       3.215   8.122  17.495  0.00  0.00    +0.000 S 
ATOM      5  C   UNL     1       2.516   7.316  18.815  0.00  0.00    +0.000 A 
ENDROOT
BRANCH   2   6
ATOM      6  C   UNL     1       0.509  10.469  19.246  0.00  0.00    +0.000 A 
ATOM      7  C   UNL     1      -0.865  10.369  18.976  0.00  0.00    +0.000 A 
ATOM      8  C   UNL     1      -1.750  11.387  19.356  0.00  0.00    +0.000 A 
ATOM      9  C   UNL     1      -1.279  12.535  19.999  0.00  0.00    +0.000 A 
ATOM     10  C   UNL     1      -2.209  13.630  20.433  0.00  0.00    +0.000 C 
ATOM     11  C   UNL     1       0.089  12.651  20.253  0.00  0.00    +0.000 A 
ATOM     12  C   UNL     1       0.967  11.621  19.899  0.00  0.00    +0.000 A 
ENDBRANCH   2   6
BRANCH   5  13
ATOM     13  N   UNL     1       2.929   5.996  18.925  0.00  0.00    +0.000 N 
ATOM     14  C   UNL     1       2.194   5.034  18.238  0.00  0.00    +0.000 C 
ATOM     15  O   UNL     1       1.231   5.299  17.527  0.00  0.00    +0.000 OA
ATOM     16  H   UNL     1       3.929   5.844  18.914  0.00  0.00    +0.000 HD
BRANCH  14  17
ATOM     17  C   UNL     1       2.709   3.680  18.320  0.00  0.00    +0.000 A 
ATOM     18  C   UNL     1       3.940   3.182  17.773  0.00  0.00    +0.000 A 
ATOM     19  N   UNL     1       4.027   1.855  17.964  0.00  0.00    +0.000 NA
ATOM     20  O   UNL     1       2.890   1.478  18.634  0.00  0.00    +0.000 OA
ATOM     21  C   UNL     1       2.100   2.561  18.853  0.00  0.00    +0.000 A 
ATOM     22  C   UNL     1       0.817   2.274  19.527  0.00  0.00    +0.000 C 
BRANCH  18  23
ATOM     23  C   UNL     1       5.025   3.909  17.100  0.00  0.00    +0.000 A 
ATOM     24  C   UNL     1       5.035   4.075  15.706  0.00  0.00    +0.000 A 
ATOM     25  C   UNL     1       6.092   4.725  15.067  0.00  0.00    +0.000 A 
ATOM     26  C   UNL     1       7.136   5.257  15.817  0.00  0.00    +0.000 A 
ATOM     27  C   UNL     1       7.125   5.135  17.204  0.00  0.00    +0.000 A 
ATOM     28  C   UNL     1       6.078   4.462  17.843  0.00  0.00    +0.000 A 
ENDBRANCH  18  23
ENDBRANCH  14  17
ENDBRANCH   5  13
BRANCH   1  29
ATOM     29  C   UNL     1       1.125   7.765  20.890  0.00  0.00    +0.000 C 
ATOM     30  O   UNL     1       1.106   6.616  21.320  0.00  0.00    +0.000 OA
BRANCH  29  32
ATOM     31  C   UNL     1       1.440   9.261  22.686  0.00  0.00    +0.000 C 
ATOM     32  O   UNL     1       0.643   8.820  21.587  0.00  0.00    +0.000 OA
ENDBRANCH  29  32
ENDBRANCH   1  29
TORSDOF 6
ENDMDL
MODEL 7
REMARK VINA RESULT:      -7.4      1.546      2.060
REMARK  Name = 
REMARK  9 active torsions:
REMARK  status: ('A' for Active; 'I' for Inactive)
REMARK    1  A    between atoms: C_1  and  O_2
REMARK    2  A    between atoms: O_2  and  C_3
REMARK    3  A    between atoms: C_3  and  C_5
REMARK    4  A    between atoms: C_6  and  C_7
REMARK    5  A    between atoms: C_10  and  C_11
REMARK    6  A    between atoms: C_16  and  N_17
REMARK    7  A    between atoms: C_18  and  C_20
REMARK    8  A    between atoms: C_21  and  C_22
REMARK    9  A    between atoms: C_30  and  C_31
REMARK                            x       y       z     vdW  Elec       q    Type
REMARK                         _______ _______ _______ _____ _____    ______ ____
ROOT
ATOM      1  C   UNL     1       1.662   8.119  19.588  0.00  0.00    +0.000 A 
ATOM      2  C   UNL     1       1.425   9.403  18.927  0.00  0.00    +0.000 A 
ATOM      3  C   UNL     1       2.167   9.508  17.762  0.00  0.00    +0.000 A 
ATOM      4  S   UNL     1       3.163   8.150  17.482  0.00  0.00    +0.000 S 
ATOM      5  C   UNL     1       2.487   7.327  18.804  0.00  0.00    +0.000 A 
ENDROOT
BRANCH   2   6
ATOM      6  C   UNL     1       0.499  10.479  19.321  0.00  0.00    +0.000 A 
ATOM      7  C   UNL     1       0.952  11.641  19.965  0.00  0.00    +0.000 A 
ATOM      8  C   UNL     1       0.064  12.671  20.301  0.00  0.00    +0.000 A 
ATOM      9  C   UNL     1      -1.299  12.557  20.015  0.00  0.00    +0.000 A 
ATOM     10  C   UNL     1      -2.266  13.654  20.348  0.00  0.00    +0.000 C 
ATOM     11  C   UNL     1      -1.760  11.395  19.392  0.00  0.00    +0.000 A 
ATOM     12  C   UNL     1      -0.868  10.380  19.032  0.00  0.00    +0.000 A 
ENDBRANCH   2   6
BRANCH   5  13
ATOM     13  N   UNL     1       2.897   6.004  18.885  0.00  0.00    +0.000 N 
ATOM     14  C   UNL     1       2.153   5.056  18.188  0.00  0.00    +0.000 C 
ATOM     15  O   UNL     1       1.184   5.336  17.492  0.00  0.00    +0.000 OA
ATOM     16  H   UNL     1       3.898   5.850  18.861  0.00  0.00    +0.000 HD
BRANCH  14  17
ATOM     17  C   UNL     1       2.666   3.700  18.240  0.00  0.00    +0.000 A 
ATOM     18  C   UNL     1       3.926   3.225  17.740  0.00  0.00    +0.000 A 
ATOM     19  N   UNL     1       4.005   1.891  17.879  0.00  0.00    +0.000 NA
ATOM     20  O   UNL     1       2.834   1.487  18.469  0.00  0.00    +0.000 OA
ATOM     21  C   UNL     1       2.031   2.559  18.691  0.00  0.00    +0.000 A 
ATOM     22  C   UNL     1       0.715   2.244  19.283  0.00  0.00    +0.000 C 
BRANCH  18  23
ATOM     23  C   UNL     1       5.044   3.980  17.157  0.00  0.00    +0.000 A 
ATOM     24  C   UNL     1       6.084   4.474  17.958  0.00  0.00    +0.000 A 
ATOM     25  C   UNL     1       7.120   5.231  17.407  0.00  0.00    +0.000 A 
ATOM     26  C   UNL     1       7.152   5.469  16.037  0.00  0.00    +0.000 A 
ATOM     27  C   UNL     1       6.149   4.953  15.220  0.00  0.00    +0.000 A 
ATOM     28  C   UNL     1       5.098   4.216  15.776  0.00  0.00    +0.000 A 
ENDBRANCH  18  23
ENDBRANCH  14  17
ENDBRANCH   5  13
BRANCH   1  29
ATOM     29  C   UNL     1       1.138   7.748  20.911  0.00  0.00    +0.000 C 
ATOM     30  O   UNL     1       1.149   6.597  21.336  0.00  0.00    +0.000 OA
BRANCH  29  32
ATOM     31  C   UNL     1       1.451   9.251  22.703  0.00  0.00    +0.000 C 
ATOM     32  O   UNL     1       0.643   8.788  21.621  0.00  0.00    +0.000 OA
ENDBRANCH  29  32
ENDBRANCH   1  29
TORSDOF 6
ENDMDL
MODEL 8
REMARK VINA RESULT:      -7.4      4.312     10.274
REMARK  Name = 
REMARK  9 active torsions:
REMARK  status: ('A' for Active; 'I' for Inactive)
REMARK    1  A    between atoms: C_1  and  O_2
REMARK    2  A    between atoms: O_2  and  C_3
REMARK    3  A    between atoms: C_3  and  C_5
REMARK    4  A    between atoms: C_6  and  C_7
REMARK    5  A    between atoms: C_10  and  C_11
REMARK    6  A    between atoms: C_16  and  N_17
REMARK    7  A    between atoms: C_18  and  C_20
REMARK    8  A    between atoms: C_21  and  C_22
REMARK    9  A    between atoms: C_30  and  C_31
REMARK                            x       y       z     vdW  Elec       q    Type
REMARK                         _______ _______ _______ _____ _____    ______ ____
ROOT
ATOM      1  C   UNL     1      -0.827  11.280  18.935  0.00  0.00    +0.000 A 
ATOM      2  C   UNL     1       0.561  10.950  19.260  0.00  0.00    +0.000 A 
ATOM      3  C   UNL     1       1.199  12.022  19.865  0.00  0.00    +0.000 A 
ATOM      4  S   UNL     1       0.204  13.402  19.992  0.00  0.00    +0.000 S 
ATOM      5  C   UNL     1      -1.141  12.542  19.417  0.00  0.00    +0.000 A 
ENDROOT
BRANCH   2   6
ATOM      6  C   UNL     1       1.265   9.669  19.078  0.00  0.00    +0.000 A 
ATOM      7  C   UNL     1       1.344   8.721  20.111  0.00  0.00    +0.000 A 
ATOM      8  C   UNL     1       1.986   7.491  19.912  0.00  0.00    +0.000 A 
ATOM      9  C   UNL     1       2.578   7.189  18.682  0.00  0.00    +0.000 A 
ATOM     10  C   UNL     1       3.254   5.872  18.438  0.00  0.00    +0.000 C 
ATOM     11  C   UNL     1       2.520   8.135  17.657  0.00  0.00    +0.000 A 
ATOM     12  C   UNL     1       1.854   9.350  17.848  0.00  0.00    +0.000 A 
ENDBRANCH   2   6
BRANCH   5  13
ATOM     13  N   UNL     1      -2.325  13.261  19.508  0.00  0.00    +0.000 N 
ATOM     14  C   UNL     1      -3.044  13.167  20.695  0.00  0.00    +0.000 C 
ATOM     15  O   UNL     1      -2.672  12.511  21.662  0.00  0.00    +0.000 OA
ATOM     16  H   UNL     1      -2.310  14.187  19.100  0.00  0.00    +0.000 HD
BRANCH  14  17
ATOM     17  C   UNL     1      -4.232  13.996  20.771  0.00  0.00    +0.000 A 
ATOM     18  C   UNL     1      -5.581  13.616  20.460  0.00  0.00    +0.000 A 
ATOM     19  N   UNL     1      -6.395  14.682  20.552  0.00  0.00    +0.000 NA
ATOM     20  O   UNL     1      -5.611  15.744  20.929  0.00  0.00    +0.000 OA
ATOM     21  C   UNL     1      -4.321  15.343  21.065  0.00  0.00    +0.000 A 
ATOM     22  C   UNL     1      -3.368  16.413  21.423  0.00  0.00    +0.000 C 
BRANCH  18  23
ATOM     23  C   UNL     1      -6.121  12.298  20.098  0.00  0.00    +0.000 A 
ATOM     24  C   UNL     1      -5.725  11.648  18.919  0.00  0.00    +0.000 A 
ATOM     25  C   UNL     1      -6.276  10.418  18.556  0.00  0.00    +0.000 A 
ATOM     26  C   UNL     1      -7.202   9.799  19.388  0.00  0.00    +0.000 A 
ATOM     27  C   UNL     1      -7.578  10.410  20.582  0.00  0.00    +0.000 A 
ATOM     28  C   UNL     1      -7.045  11.655  20.934  0.00  0.00    +0.000 A 
ENDBRANCH  18  23
ENDBRANCH  14  17
ENDBRANCH   5  13
BRANCH   1  29
ATOM     29  C   UNL     1      -1.736  10.416  18.166  0.00  0.00    +0.000 C 
ATOM     30  O   UNL     1      -2.604   9.724  18.690  0.00  0.00    +0.000 OA
BRANCH  29  32
ATOM     31  C   UNL     1      -2.649  10.841  16.032  0.00  0.00    +0.000 C 
ATOM     32  O   UNL     1      -1.530  10.450  16.829  0.00  0.00    +0.000 OA
ENDBRANCH  29  32
ENDBRANCH   1  29
TORSDOF 6
ENDMDL
MODEL 9
REMARK VINA RESULT:      -7.3      0.909      1.719
REMARK  Name = 
REMARK  9 active torsions:
REMARK  status: ('A' for Active; 'I' for Inactive)
REMARK    1  A    between atoms: C_1  and  O_2
REMARK    2  A    between atoms: O_2  and  C_3
REMARK    3  A    between atoms: C_3  and  C_5
REMARK    4  A    between atoms: C_6  and  C_7
REMARK    5  A    between atoms: C_10  and  C_11
REMARK    6  A    between atoms: C_16  and  N_17
REMARK    7  A    between atoms: C_18  and  C_20
REMARK    8  A    between atoms: C_21  and  C_22
REMARK    9  A    between atoms: C_30  and  C_31
REMARK                            x       y       z     vdW  Elec       q    Type
REMARK                         _______ _______ _______ _____ _____    ______ ____
ROOT
ATOM      1  C   UNL     1       1.373   9.174  20.524  0.00  0.00    +0.000 A 
ATOM      2  C   UNL     1       0.796  10.171  19.623  0.00  0.00    +0.000 A 
ATOM      3  C   UNL     1       1.149   9.918  18.307  0.00  0.00    +0.000 A 
ATOM      4  S   UNL     1       2.184   8.571  18.143  0.00  0.00    +0.000 S 
ATOM      5  C   UNL     1       2.029   8.195  19.791  0.00  0.00    +0.000 A 
ENDROOT
BRANCH   2   6
ATOM      6  C   UNL     1      -0.105  11.290  19.952  0.00  0.00    +0.000 A 
ATOM      7  C   UNL     1       0.358  12.434  20.621  0.00  0.00    +0.000 A 
ATOM      8  C   UNL     1      -0.502  13.506  20.895  0.00  0.00    +0.000 A 
ATOM      9  C   UNL     1      -1.848  13.452  20.520  0.00  0.00    +0.000 A 
ATOM     10  C   UNL     1      -2.784  14.593  20.785  0.00  0.00    +0.000 C 
ATOM     11  C   UNL     1      -2.319  12.308  19.871  0.00  0.00    +0.000 A 
ATOM     12  C   UNL     1      -1.453  11.252  19.573  0.00  0.00    +0.000 A 
ENDBRANCH   2   6
BRANCH   5  13
ATOM     13  N   UNL     1       2.609   6.980  20.127  0.00  0.00    +0.000 N 
ATOM     14  C   UNL     1       2.438   5.921  19.241  0.00  0.00    +0.000 C 
ATOM     15  O   UNL     1       1.834   6.018  18.179  0.00  0.00    +0.000 OA
ATOM     16  H   UNL     1       3.529   7.031  20.546  0.00  0.00    +0.000 HD
BRANCH  14  17
ATOM     17  C   UNL     1       3.127   4.694  19.596  0.00  0.00    +0.000 A 
ATOM     18  C   UNL     1       4.489   4.344  19.305  0.00  0.00    +0.000 A 
ATOM     19  N   UNL     1       4.738   3.085  19.704  0.00  0.00    +0.000 NA
ATOM     20  O   UNL     1       3.576   2.612  20.261  0.00  0.00    +0.000 OA
ATOM     21  C   UNL     1       2.611   3.565  20.203  0.00  0.00    +0.000 A 
ATOM     22  C   UNL     1       1.294   3.155  20.731  0.00  0.00    +0.000 C 
BRANCH  18  23
ATOM     23  C   UNL     1       5.549   5.151  18.685  0.00  0.00    +0.000 A 
ATOM     24  C   UNL     1       6.757   5.403  19.353  0.00  0.00    +0.000 A 
ATOM     25  C   UNL     1       7.741   6.210  18.779  0.00  0.00    +0.000 A 
ATOM     26  C   UNL     1       7.549   6.742  17.509  0.00  0.00    +0.000 A 
ATOM     27  C   UNL     1       6.373   6.471  16.814  0.00  0.00    +0.000 A 
ATOM     28  C   UNL     1       5.375   5.684  17.400  0.00  0.00    +0.000 A 
ENDBRANCH  18  23
ENDBRANCH  14  17
ENDBRANCH   5  13
BRANCH   1  29
ATOM     29  C   UNL     1       1.307   9.231  21.992  0.00  0.00    +0.000 C 
ATOM     30  O   UNL     1       2.295   9.394  22.701  0.00  0.00    +0.000 OA
BRANCH  29  32
ATOM     31  C   UNL     1      -0.763   8.106  21.863  0.00  0.00    +0.000 C 
ATOM     32  O   UNL     1       0.058   9.088  22.494  0.00  0.00    +0.000 OA
ENDBRANCH  29  32
ENDBRANCH   1  29
TORSDOF 6
ENDMDL
