MODEL 1
REMARK VINA RESULT:      -8.9      0.000      0.000
REMARK  Name = 
REMARK  5 active torsions:
REMARK  status: ('A' for Active; 'I' for Inactive)
REMARK    1  A    between atoms: C_4  and  C_5
REMARK    2  A    between atoms: N_9  and  C_10
REMARK    3  A    between atoms: C_13  and  C_14
REMARK    4  A    between atoms: C_14  and  C_15
REMARK    5  A    between atoms: C_15  and  N_16
REMARK                            x       y       z     vdW  Elec       q    Type
REMARK                         _______ _______ _______ _____ _____    ______ ____
ROOT
ATOM      1  C   UNL     1       1.876   7.971  19.693  0.00  0.00    +0.000 A 
ATOM      2  C   UNL     1       1.039   8.517  20.670  0.00  0.00    +0.000 A 
ATOM      3  C   UNL     1       0.280   9.664  20.420  0.00  0.00    +0.000 A 
ATOM      4  C   UNL     1       0.341  10.311  19.181  0.00  0.00    +0.000 A 
ATOM      5  C   UNL     1       1.157   9.754  18.189  0.00  0.00    +0.000 A 
ATOM      6  C   UNL     1       1.902   8.594  18.441  0.00  0.00    +0.000 A 
ENDROOT
BRANCH   1  11
ATOM      7  C   UNL     1       3.838   3.672  18.170  0.00  0.00    +0.000 C 
ATOM      8  C   UNL     1       2.451   4.048  17.642  0.00  0.00    +0.000 C 
ATOM      9  N   UNL     1       2.065   5.390  18.116  0.00  0.00    +0.000 NA
ATOM     10  C   UNL     1       2.697   5.684  19.202  0.00  0.00    +0.000 C 
ATOM     11  N   UNL     1       2.573   6.790  19.985  0.00  0.00    +0.000 N 
ATOM     12  S   UNL     1       3.871   4.514  19.775  0.00  0.00    +0.000 S 
ATOM     13  H   UNL     1       3.073   6.774  20.863  0.00  0.00    +0.000 HD
BRANCH   7  17
ATOM     14  C   UNL     1       7.222   4.799  15.713  0.00  0.00    +0.000 A 
ATOM     15  C   UNL     1       6.026   4.435  15.104  0.00  0.00    +0.000 A 
ATOM     16  C   UNL     1       4.924   4.081  15.886  0.00  0.00    +0.000 A 
ATOM     17  C   UNL     1       5.003   4.078  17.289  0.00  0.00    +0.000 A 
ATOM     18  C   UNL     1       6.215   4.468  17.886  0.00  0.00    +0.000 A 
ATOM     19  C   UNL     1       7.317   4.821  17.102  0.00  0.00    +0.000 A 
ENDBRANCH   7  17
ENDBRANCH   1  11
BRANCH   4  20
ATOM     20  C   UNL     1      -0.422  11.581  18.864  0.00  0.00    +0.000 C 
BRANCH  20  21
ATOM     21  C   UNL     1      -1.133  12.244  20.053  0.00  0.00    +0.000 C 
BRANCH  21  22
ATOM     22  N   UNL     1      -2.450  12.721  19.666  0.00  0.00    +0.000 N 
ATOM     23  C   UNL     1      -3.487  12.701  20.540  0.00  0.00    +0.000 A 
ATOM     24  N   UNL     1      -4.714  12.552  20.105  0.00  0.00    +0.000 NA
ATOM     25  C   UNL     1      -5.618  12.646  21.149  0.00  0.00    +0.000 A 
ATOM     26  C   UNL     1      -7.020  12.567  21.032  0.00  0.00    +0.000 A 
ATOM     27  C   UNL     1      -7.822  12.717  22.168  0.00  0.00    +0.000 A 
ATOM     28  C   UNL     1      -7.241  12.929  23.416  0.00  0.00    +0.000 A 
ATOM     29  C   UNL     1      -5.851  12.988  23.561  0.00  0.00    +0.000 A 
ATOM     30  C   UNL     1      -5.057  12.848  22.408  0.00  0.00    +0.000 A 
ATOM     31  S   UNL     1      -3.346  12.894  22.247  0.00  0.00    +0.000 S 
ATOM     32  H   UNL     1      -2.739  12.445  18.732  0.00  0.00    +0.000 HD
ENDBRANCH  21  22
ENDBRANCH  20  21
ENDBRANCH   4  20
TORSDOF 5
ENDMDL
MODEL 2
REMARK VINA RESULT:      -8.7      1.559      2.143
REMARK  Name = 
REMARK  5 active torsions:
REMARK  status: ('A' for Active; 'I' for Inactive)
REMARK    1  A    between atoms: C_4  and  C_5
REMARK    2  A    between atoms: N_9  and  C_10
REMARK    3  A    between atoms: C_13  and  C_14
REMARK    4  A    between atoms: C_14  and  C_15
REMARK    5  A    between atoms: C_15  and  N_16
REMARK                            x       y       z     vdW  Elec       q    Type
REMARK                         _______ _______ _______ _____ _____    ______ ____
ROOT
ATOM      1  C   UNL     1       2.110   7.192  20.048  0.00  0.00    +0.000 A 
ATOM      2  C   UNL     1       2.172   8.025  18.928  0.00  0.00    +0.000 A 
ATOM      3  C   UNL     1       1.457   9.226  18.874  0.00  0.00    +0.000 A 
ATOM      4  C   UNL     1       0.644   9.628  19.939  0.00  0.00    +0.000 A 
ATOM      5  C   UNL     1       0.599   8.810  21.075  0.00  0.00    +0.000 A 
ATOM      6  C   UNL     1       1.332   7.617  21.130  0.00  0.00    +0.000 A 
ENDROOT
BRANCH   1  11
ATOM      7  C   UNL     1       4.064   3.312  17.642  0.00  0.00    +0.000 C 
ATOM      8  C   UNL     1       2.607   3.676  17.343  0.00  0.00    +0.000 C 
ATOM      9  N   UNL     1       2.221   4.901  18.067  0.00  0.00    +0.000 NA
ATOM     10  C   UNL     1       2.968   5.065  19.107  0.00  0.00    +0.000 C 
ATOM     11  N   UNL     1       2.891   6.028  20.066  0.00  0.00    +0.000 N 
ATOM     12  S   UNL     1       4.255   3.898  19.347  0.00  0.00    +0.000 S 
ATOM     13  H   UNL     1       3.495   5.908  20.867  0.00  0.00    +0.000 HD
BRANCH   7  17
ATOM     14  C   UNL     1       7.066   5.027  15.033  0.00  0.00    +0.000 A 
ATOM     15  C   UNL     1       5.877   4.552  14.489  0.00  0.00    +0.000 A 
ATOM     16  C   UNL     1       4.897   4.008  15.321  0.00  0.00    +0.000 A 
ATOM     17  C   UNL     1       5.092   3.923  16.710  0.00  0.00    +0.000 A 
ATOM     18  C   UNL     1       6.291   4.427  17.243  0.00  0.00    +0.000 A 
ATOM     19  C   UNL     1       7.272   4.970  16.409  0.00  0.00    +0.000 A 
ENDBRANCH   7  17
ENDBRANCH   1  11
BRANCH   4  20
ATOM     20  C   UNL     1      -0.189  10.893  19.922  0.00  0.00    +0.000 C 
BRANCH  20  21
ATOM     21  C   UNL     1       0.028  11.816  18.714  0.00  0.00    +0.000 C 
BRANCH  21  22
ATOM     22  N   UNL     1      -1.137  11.812  17.846  0.00  0.00    +0.000 N 
ATOM     23  C   UNL     1      -2.393  11.854  18.357  0.00  0.00    +0.000 A 
ATOM     24  N   UNL     1      -3.385  11.285  17.718  0.00  0.00    +0.000 NA
ATOM     25  C   UNL     1      -4.584  11.521  18.368  0.00  0.00    +0.000 A 
ATOM     26  C   UNL     1      -5.853  11.084  17.937  0.00  0.00    +0.000 A 
ATOM     27  C   UNL     1      -6.992  11.426  18.672  0.00  0.00    +0.000 A 
ATOM     28  C   UNL     1      -6.878  12.183  19.834  0.00  0.00    +0.000 A 
ATOM     29  C   UNL     1      -5.628  12.608  20.296  0.00  0.00    +0.000 A 
ATOM     30  C   UNL     1      -4.491  12.268  19.540  0.00  0.00    +0.000 A 
ATOM     31  S   UNL     1      -2.838  12.650  19.819  0.00  0.00    +0.000 S 
ATOM     32  H   UNL     1      -1.071  11.172  17.058  0.00  0.00    +0.000 HD
ENDBRANCH  21  22
ENDBRANCH  20  21
ENDBRANCH   4  20
TORSDOF 5
ENDMDL
MODEL 3
REMARK VINA RESULT:      -8.7      1.543      2.139
REMARK  Name = 
REMARK  5 active torsions:
REMARK  status: ('A' for Active; 'I' for Inactive)
REMARK    1  A    between atoms: C_4  and  C_5
REMARK    2  A    between atoms: N_9  and  C_10
REMARK    3  A    between atoms: C_13  and  C_14
REMARK    4  A    between atoms: C_14  and  C_15
REMARK    5  A    between atoms: C_15  and  N_16
REMARK                            x       y       z     vdW  Elec       q    Type
REMARK                         _______ _______ _______ _____ _____    ______ ____
ROOT
ATOM      1  C   UNL     1       2.167   7.299  20.002  0.00  0.00    +0.000 A 
ATOM      2  C   UNL     1       1.355   7.625  21.091  0.00  0.00    +0.000 A 
ATOM      3  C   UNL     1       0.551   8.770  21.084  0.00  0.00    +0.000 A 
ATOM      4  C   UNL     1       0.543   9.635  19.985  0.00  0.00    +0.000 A 
ATOM      5  C   UNL     1       1.335   9.300  18.879  0.00  0.00    +0.000 A 
ATOM      6  C   UNL     1       2.123   8.142  18.887  0.00  0.00    +0.000 A 
ENDROOT
BRANCH   1  11
ATOM      7  C   UNL     1       4.057   3.343  17.672  0.00  0.00    +0.000 C 
ATOM      8  C   UNL     1       2.619   3.749  17.335  0.00  0.00    +0.000 C 
ATOM      9  N   UNL     1       2.255   4.991  18.041  0.00  0.00    +0.000 NA
ATOM     10  C   UNL     1       2.981   5.140  19.097  0.00  0.00    +0.000 C 
ATOM     11  N   UNL     1       2.910   6.112  20.047  0.00  0.00    +0.000 N 
ATOM     12  S   UNL     1       4.225   3.936  19.377  0.00  0.00    +0.000 S 
ATOM     13  H   UNL     1       3.491   5.980  20.864  0.00  0.00    +0.000 HD
BRANCH   7  17
ATOM     14  C   UNL     1       7.046   5.006  15.014  0.00  0.00    +0.000 A 
ATOM     15  C   UNL     1       7.300   4.950  16.381  0.00  0.00    +0.000 A 
ATOM     16  C   UNL     1       6.349   4.406  17.246  0.00  0.00    +0.000 A 
ATOM     17  C   UNL     1       5.126   3.915  16.761  0.00  0.00    +0.000 A 
ATOM     18  C   UNL     1       4.896   3.962  15.375  0.00  0.00    +0.000 A 
ATOM     19  C   UNL     1       5.847   4.508  14.510  0.00  0.00    +0.000 A 
ENDBRANCH   7  17
ENDBRANCH   1  11
BRANCH   4  20
ATOM     20  C   UNL     1      -0.270  10.912  19.934  0.00  0.00    +0.000 C 
BRANCH  20  21
ATOM     21  C   UNL     1       0.003  11.827  18.731  0.00  0.00    +0.000 C 
BRANCH  21  22
ATOM     22  N   UNL     1      -1.153  11.882  17.852  0.00  0.00    +0.000 N 
ATOM     23  C   UNL     1      -2.414  11.905  18.352  0.00  0.00    +0.000 A 
ATOM     24  N   UNL     1      -3.404  11.381  17.671  0.00  0.00    +0.000 NA
ATOM     25  C   UNL     1      -4.607  11.588  18.322  0.00  0.00    +0.000 A 
ATOM     26  C   UNL     1      -5.875  11.187  17.854  0.00  0.00    +0.000 A 
ATOM     27  C   UNL     1      -7.019  11.495  18.596  0.00  0.00    +0.000 A 
ATOM     28  C   UNL     1      -6.912  12.182  19.802  0.00  0.00    +0.000 A 
ATOM     29  C   UNL     1      -5.663  12.569  20.299  0.00  0.00    +0.000 A 
ATOM     30  C   UNL     1      -4.521  12.265  19.537  0.00  0.00    +0.000 A 
ATOM     31  S   UNL     1      -2.868  12.617  19.854  0.00  0.00    +0.000 S 
ATOM     32  H   UNL     1      -1.084  11.289  17.029  0.00  0.00    +0.000 HD
ENDBRANCH  21  22
ENDBRANCH  20  21
ENDBRANCH   4  20
TORSDOF 5
ENDMDL
MODEL 4
REMARK VINA RESULT:      -8.6      1.195      1.849
REMARK  Name = 
REMARK  5 active torsions:
REMARK  status: ('A' for Active; 'I' for Inactive)
REMARK    1  A    between atoms: C_4  and  C_5
REMARK    2  A    between atoms: N_9  and  C_10
REMARK    3  A    between atoms: C_13  and  C_14
REMARK    4  A    between atoms: C_14  and  C_15
REMARK    5  A    between atoms: C_15  and  N_16
REMARK                            x       y       z     vdW  Elec       q    Type
REMARK                         _______ _______ _______ _____ _____    ______ ____
ROOT
ATOM      1  C   UNL     1       2.120   7.419  19.900  0.00  0.00    +0.000 A 
ATOM      2  C   UNL     1       2.194   8.158  18.717  0.00  0.00    +0.000 A 
ATOM      3  C   UNL     1       1.482   9.351  18.558  0.00  0.00    +0.000 A 
ATOM      4  C   UNL     1       0.662   9.841  19.580  0.00  0.00    +0.000 A 
ATOM      5  C   UNL     1       0.604   9.118  20.778  0.00  0.00    +0.000 A 
ATOM      6  C   UNL     1       1.334   7.933  20.937  0.00  0.00    +0.000 A 
ENDROOT
BRANCH   1  11
ATOM      7  C   UNL     1       4.108   3.368  17.830  0.00  0.00    +0.000 C 
ATOM      8  C   UNL     1       2.658   3.710  17.476  0.00  0.00    +0.000 C 
ATOM      9  N   UNL     1       2.263   4.986  18.099  0.00  0.00    +0.000 NA
ATOM     10  C   UNL     1       2.989   5.226  19.137  0.00  0.00    +0.000 C 
ATOM     11  N   UNL     1       2.896   6.258  20.020  0.00  0.00    +0.000 N 
ATOM     12  S   UNL     1       4.268   4.079  19.489  0.00  0.00    +0.000 S 
ATOM     13  H   UNL     1       3.485   6.198  20.839  0.00  0.00    +0.000 HD
BRANCH   7  17
ATOM     14  C   UNL     1       7.036   4.921  15.041  0.00  0.00    +0.000 A 
ATOM     15  C   UNL     1       7.248   5.067  16.408  0.00  0.00    +0.000 A 
ATOM     16  C   UNL     1       6.318   4.560  17.317  0.00  0.00    +0.000 A 
ATOM     17  C   UNL     1       5.156   3.906  16.874  0.00  0.00    +0.000 A 
ATOM     18  C   UNL     1       4.969   3.750  15.489  0.00  0.00    +0.000 A 
ATOM     19  C   UNL     1       5.900   4.260  14.581  0.00  0.00    +0.000 A 
ENDBRANCH   7  17
ENDBRANCH   1  11
BRANCH   4  20
ATOM     20  C   UNL     1      -0.168  11.102  19.452  0.00  0.00    +0.000 C 
BRANCH  20  21
ATOM     21  C   UNL     1       0.345  12.317  20.240  0.00  0.00    +0.000 C 
BRANCH  21  22
ATOM     22  N   UNL     1      -0.711  13.300  20.417  0.00  0.00    +0.000 N 
ATOM     23  C   UNL     1      -1.727  13.088  21.290  0.00  0.00    +0.000 A 
ATOM     24  N   UNL     1      -2.912  13.601  21.061  0.00  0.00    +0.000 NA
ATOM     25  C   UNL     1      -3.771  13.336  22.113  0.00  0.00    +0.000 A 
ATOM     26  C   UNL     1      -5.108  13.768  22.212  0.00  0.00    +0.000 A 
ATOM     27  C   UNL     1      -5.856  13.460  23.353  0.00  0.00    +0.000 A 
ATOM     28  C   UNL     1      -5.290  12.717  24.385  0.00  0.00    +0.000 A 
ATOM     29  C   UNL     1      -3.972  12.256  24.300  0.00  0.00    +0.000 A 
ATOM     30  C   UNL     1      -3.227  12.583  23.152  0.00  0.00    +0.000 A 
ATOM     31  S   UNL     1      -1.599  12.195  22.757  0.00  0.00    +0.000 S 
ATOM     32  H   UNL     1      -1.038  13.725  19.553  0.00  0.00    +0.000 HD
ENDBRANCH  21  22
ENDBRANCH  20  21
ENDBRANCH   4  20
TORSDOF 5
ENDMDL
MODEL 5
REMARK VINA RESULT:      -8.6      3.417      4.766
REMARK  Name = 
REMARK  5 active torsions:
REMARK  status: ('A' for Active; 'I' for Inactive)
REMARK    1  A    between atoms: C_4  and  C_5
REMARK    2  A    between atoms: N_9  and  C_10
REMARK    3  A    between atoms: C_13  and  C_14
REMARK    4  A    between atoms: C_14  and  C_15
REMARK    5  A    between atoms: C_15  and  N_16
REMARK                            x       y       z     vdW  Elec       q    Type
REMARK                         _______ _______ _______ _____ _____    ______ ____
ROOT
ATOM      1  C   UNL     1       2.072   7.371  19.930  0.00  0.00    +0.000 A 
ATOM      2  C   UNL     1       2.158   8.155  18.777  0.00  0.00    +0.000 A 
ATOM      3  C   UNL     1       1.460   9.362  18.663  0.00  0.00    +0.000 A 
ATOM      4  C   UNL     1       0.641   9.820  19.700  0.00  0.00    +0.000 A 
ATOM      5  C   UNL     1       0.571   9.051  20.869  0.00  0.00    +0.000 A 
ATOM      6  C   UNL     1       1.287   7.853  20.983  0.00  0.00    +0.000 A 
ENDROOT
BRANCH   1  11
ATOM      7  C   UNL     1       4.014   3.376  17.712  0.00  0.00    +0.000 C 
ATOM      8  C   UNL     1       2.568   3.747  17.371  0.00  0.00    +0.000 C 
ATOM      9  N   UNL     1       2.187   5.005  18.041  0.00  0.00    +0.000 NA
ATOM     10  C   UNL     1       2.916   5.198  19.087  0.00  0.00    +0.000 C 
ATOM     11  N   UNL     1       2.835   6.198  20.007  0.00  0.00    +0.000 N 
ATOM     12  S   UNL     1       4.182   4.025  19.396  0.00  0.00    +0.000 S 
ATOM     13  H   UNL     1       3.423   6.102  20.823  0.00  0.00    +0.000 HD
BRANCH   7  17
ATOM     14  C   UNL     1       7.085   4.968  15.104  0.00  0.00    +0.000 A 
ATOM     15  C   UNL     1       6.029   4.246  14.557  0.00  0.00    +0.000 A 
ATOM     16  C   UNL     1       5.027   3.738  15.386  0.00  0.00    +0.000 A 
ATOM     17  C   UNL     1       5.068   3.937  16.776  0.00  0.00    +0.000 A 
ATOM     18  C   UNL     1       6.132   4.687  17.308  0.00  0.00    +0.000 A 
ATOM     19  C   UNL     1       7.135   5.193  16.478  0.00  0.00    +0.000 A 
ENDBRANCH   7  17
ENDBRANCH   1  11
BRANCH   4  20
ATOM     20  C   UNL     1      -0.174  11.094  19.619  0.00  0.00    +0.000 C 
BRANCH  20  21
ATOM     21  C   UNL     1      -0.121  11.997  20.861  0.00  0.00    +0.000 C 
BRANCH  21  22
ATOM     22  N   UNL     1       0.906  13.015  20.715  0.00  0.00    +0.000 N 
ATOM     23  C   UNL     1       0.701  14.111  19.942  0.00  0.00    +0.000 A 
ATOM     24  N   UNL     1       1.710  14.690  19.339  0.00  0.00    +0.000 NA
ATOM     25  C   UNL     1       1.293  15.832  18.677  0.00  0.00    +0.000 A 
ATOM     26  C   UNL     1       2.122  16.714  17.956  0.00  0.00    +0.000 A 
ATOM     27  C   UNL     1       1.575  17.856  17.364  0.00  0.00    +0.000 A 
ATOM     28  C   UNL     1       0.212  18.120  17.473  0.00  0.00    +0.000 A 
ATOM     29  C   UNL     1      -0.636  17.248  18.163  0.00  0.00    +0.000 A 
ATOM     30  C   UNL     1      -0.070  16.109  18.764  0.00  0.00    +0.000 A 
ATOM     31  S   UNL     1      -0.824  14.871  19.689  0.00  0.00    +0.000 S 
ATOM     32  H   UNL     1       1.848  12.649  20.610  0.00  0.00    +0.000 HD
ENDBRANCH  21  22
ENDBRANCH  20  21
ENDBRANCH   4  20
TORSDOF 5
ENDMDL
MODEL 6
REMARK VINA RESULT:      -8.6      2.967      4.480
REMARK  Name = 
REMARK  5 active torsions:
REMARK  status: ('A' for Active; 'I' for Inactive)
REMARK    1  A    between atoms: C_4  and  C_5
REMARK    2  A    between atoms: N_9  and  C_10
REMARK    3  A    between atoms: C_13  and  C_14
REMARK    4  A    between atoms: C_14  and  C_15
REMARK    5  A    between atoms: C_15  and  N_16
REMARK                            x       y       z     vdW  Elec       q    Type
REMARK                         _______ _______ _______ _____ _____    ______ ____
ROOT
ATOM      1  C   UNL     1      -1.032  10.321  17.974  0.00  0.00    +0.000 A 
ATOM      2  C   UNL     1      -2.109   9.752  17.290  0.00  0.00    +0.000 A 
ATOM      3  C   UNL     1      -3.396  10.290  17.384  0.00  0.00    +0.000 A 
ATOM      4  C   UNL     1      -3.650  11.414  18.177  0.00  0.00    +0.000 A 
ATOM      5  C   UNL     1      -2.569  12.004  18.844  0.00  0.00    +0.000 A 
ATOM      6  C   UNL     1      -1.279  11.471  18.731  0.00  0.00    +0.000 A 
ENDROOT
BRANCH   1  11
ATOM      7  C   UNL     1       2.591   7.327  19.576  0.00  0.00    +0.000 C 
ATOM      8  C   UNL     1       1.889   8.211  20.610  0.00  0.00    +0.000 C 
ATOM      9  N   UNL     1       0.784   8.960  19.983  0.00  0.00    +0.000 NA
ATOM     10  C   UNL     1       0.988   9.090  18.716  0.00  0.00    +0.000 C 
ATOM     11  N   UNL     1       0.245   9.768  17.800  0.00  0.00    +0.000 N 
ATOM     12  S   UNL     1       2.414   8.306  18.061  0.00  0.00    +0.000 S 
ATOM     13  H   UNL     1       0.644   9.851  16.875  0.00  0.00    +0.000 HD
BRANCH   7  17
ATOM     14  C   UNL     1       1.030   3.318  19.071  0.00  0.00    +0.000 A 
ATOM     15  C   UNL     1       1.005   3.909  20.330  0.00  0.00    +0.000 A 
ATOM     16  C   UNL     1       1.494   5.205  20.503  0.00  0.00    +0.000 A 
ATOM     17  C   UNL     1       2.024   5.929  19.422  0.00  0.00    +0.000 A 
ATOM     18  C   UNL     1       2.021   5.323  18.153  0.00  0.00    +0.000 A 
ATOM     19  C   UNL     1       1.533   4.026  17.982  0.00  0.00    +0.000 A 
ENDBRANCH   7  17
ENDBRANCH   1  11
BRANCH   4  20
ATOM     20  C   UNL     1      -5.029  12.016  18.354  0.00  0.00    +0.000 C 
BRANCH  20  21
ATOM     21  C   UNL     1      -6.207  11.050  18.160  0.00  0.00    +0.000 C 
BRANCH  21  22
ATOM     22  N   UNL     1      -6.889  10.807  19.420  0.00  0.00    +0.000 N 
ATOM     23  C   UNL     1      -7.047  11.798  20.333  0.00  0.00    +0.000 A 
ATOM     24  N   UNL     1      -7.097  11.515  21.612  0.00  0.00    +0.000 NA
ATOM     25  C   UNL     1      -7.348  12.655  22.355  0.00  0.00    +0.000 A 
ATOM     26  C   UNL     1      -7.498  12.707  23.755  0.00  0.00    +0.000 A 
ATOM     27  C   UNL     1      -7.788  13.925  24.378  0.00  0.00    +0.000 A 
ATOM     28  C   UNL     1      -7.915  15.088  23.624  0.00  0.00    +0.000 A 
ATOM     29  C   UNL     1      -7.747  15.066  22.236  0.00  0.00    +0.000 A 
ATOM     30  C   UNL     1      -7.468  13.833  21.620  0.00  0.00    +0.000 A 
ATOM     31  S   UNL     1      -7.231  13.469  19.957  0.00  0.00    +0.000 S 
ATOM     32  H   UNL     1      -6.654   9.922  19.861  0.00  0.00    +0.000 HD
ENDBRANCH  21  22
ENDBRANCH  20  21
ENDBRANCH   4  20
TORSDOF 5
ENDMDL
MODEL 7
REMARK VINA RESULT:      -8.5      0.953      1.176
REMARK  Name = 
REMARK  5 active torsions:
REMARK  status: ('A' for Active; 'I' for Inactive)
REMARK    1  A    between atoms: C_4  and  C_5
REMARK    2  A    between atoms: N_9  and  C_10
REMARK    3  A    between atoms: C_13  and  C_14
REMARK    4  A    between atoms: C_14  and  C_15
REMARK    5  A    between atoms: C_15  and  N_16
REMARK                            x       y       z     vdW  Elec       q    Type
REMARK                         _______ _______ _______ _____ _____    ______ ____
ROOT
ATOM      1  C   UNL     1       2.026   7.933  19.628  0.00  0.00    +0.000 A 
ATOM      2  C   UNL     1       1.240   8.501  20.634  0.00  0.00    +0.000 A 
ATOM      3  C   UNL     1       0.514   9.676  20.415  0.00  0.00    +0.000 A 
ATOM      4  C   UNL     1       0.560  10.330  19.180  0.00  0.00    +0.000 A 
ATOM      5  C   UNL     1       1.325   9.752  18.159  0.00  0.00    +0.000 A 
ATOM      6  C   UNL     1       2.035   8.565  18.380  0.00  0.00    +0.000 A 
ENDROOT
BRANCH   1  11
ATOM      7  C   UNL     1       3.844   3.608  18.003  0.00  0.00    +0.000 C 
ATOM      8  C   UNL     1       2.465   4.037  17.494  0.00  0.00    +0.000 C 
ATOM      9  N   UNL     1       2.124   5.380  17.999  0.00  0.00    +0.000 NA
ATOM     10  C   UNL     1       2.773   5.633  19.085  0.00  0.00    +0.000 C 
ATOM     11  N   UNL     1       2.689   6.726  19.890  0.00  0.00    +0.000 N 
ATOM     12  S   UNL     1       3.915   4.416  19.624  0.00  0.00    +0.000 S 
ATOM     13  H   UNL     1       3.195   6.677  20.764  0.00  0.00    +0.000 HD
BRANCH   7  17
ATOM     14  C   UNL     1       7.242   4.689  15.543  0.00  0.00    +0.000 A 
ATOM     15  C   UNL     1       6.059   4.281  14.935  0.00  0.00    +0.000 A 
ATOM     16  C   UNL     1       4.953   3.941  15.717  0.00  0.00    +0.000 A 
ATOM     17  C   UNL     1       5.014   3.997  17.120  0.00  0.00    +0.000 A 
ATOM     18  C   UNL     1       6.212   4.431  17.715  0.00  0.00    +0.000 A 
ATOM     19  C   UNL     1       7.318   4.769  16.931  0.00  0.00    +0.000 A 
ENDBRANCH   7  17
ENDBRANCH   1  11
BRANCH   4  20
ATOM     20  C   UNL     1      -0.166  11.629  18.895  0.00  0.00    +0.000 C 
BRANCH  20  21
ATOM     21  C   UNL     1      -1.602  11.485  18.367  0.00  0.00    +0.000 C 
BRANCH  21  22
ATOM     22  N   UNL     1      -2.434  12.582  18.831  0.00  0.00    +0.000 N 
ATOM     23  C   UNL     1      -2.932  12.598  20.093  0.00  0.00    +0.000 A 
ATOM     24  N   UNL     1      -4.076  13.186  20.343  0.00  0.00    +0.000 NA
ATOM     25  C   UNL     1      -4.353  13.160  21.699  0.00  0.00    +0.000 A 
ATOM     26  C   UNL     1      -5.483  13.731  22.319  0.00  0.00    +0.000 A 
ATOM     27  C   UNL     1      -5.620  13.664  23.709  0.00  0.00    +0.000 A 
ATOM     28  C   UNL     1      -4.655  13.025  24.482  0.00  0.00    +0.000 A 
ATOM     29  C   UNL     1      -3.537  12.430  23.887  0.00  0.00    +0.000 A 
ATOM     30  C   UNL     1      -3.404  12.515  22.489  0.00  0.00    +0.000 A 
ATOM     31  S   UNL     1      -2.155  11.916  21.471  0.00  0.00    +0.000 S 
ATOM     32  H   UNL     1      -3.117  12.908  18.152  0.00  0.00    +0.000 HD
ENDBRANCH  21  22
ENDBRANCH  20  21
ENDBRANCH   4  20
TORSDOF 5
ENDMDL
MODEL 8
REMARK VINA RESULT:      -8.4      3.292      5.449
REMARK  Name = 
REMARK  5 active torsions:
REMARK  status: ('A' for Active; 'I' for Inactive)
REMARK    1  A    between atoms: C_4  and  C_5
REMARK    2  A    between atoms: N_9  and  C_10
REMARK    3  A    between atoms: C_13  and  C_14
REMARK    4  A    between atoms: C_14  and  C_15
REMARK    5  A    between atoms: C_15  and  N_16
REMARK                            x       y       z     vdW  Elec       q    Type
REMARK                         _______ _______ _______ _____ _____    ______ ____
ROOT
ATOM      1  C   UNL     1       2.032   7.462  19.911  0.00  0.00    +0.000 A 
ATOM      2  C   UNL     1       2.104   8.229  18.746  0.00  0.00    +0.000 A 
ATOM      3  C   UNL     1       1.338   9.389  18.590  0.00  0.00    +0.000 A 
ATOM      4  C   UNL     1       0.464   9.814  19.596  0.00  0.00    +0.000 A 
ATOM      5  C   UNL     1       0.408   9.063  20.777  0.00  0.00    +0.000 A 
ATOM      6  C   UNL     1       1.191   7.913  20.933  0.00  0.00    +0.000 A 
ENDROOT
BRANCH   1  11
ATOM      7  C   UNL     1       4.127   3.452  17.865  0.00  0.00    +0.000 C 
ATOM      8  C   UNL     1       2.653   3.722  17.553  0.00  0.00    +0.000 C 
ATOM      9  N   UNL     1       2.222   4.995  18.160  0.00  0.00    +0.000 NA
ATOM     10  C   UNL     1       2.971   5.291  19.168  0.00  0.00    +0.000 C 
ATOM     11  N   UNL     1       2.863   6.338  20.030  0.00  0.00    +0.000 N 
ATOM     12  S   UNL     1       4.311   4.209  19.501  0.00  0.00    +0.000 S 
ATOM     13  H   UNL     1       3.480   6.323  20.830  0.00  0.00    +0.000 HD
BRANCH   7  17
ATOM     14  C   UNL     1       7.025   5.020  15.053  0.00  0.00    +0.000 A 
ATOM     15  C   UNL     1       5.793   4.571  14.587  0.00  0.00    +0.000 A 
ATOM     16  C   UNL     1       4.846   4.074  15.485  0.00  0.00    +0.000 A 
ATOM     17  C   UNL     1       5.118   4.011  16.862  0.00  0.00    +0.000 A 
ATOM     18  C   UNL     1       6.360   4.489  17.316  0.00  0.00    +0.000 A 
ATOM     19  C   UNL     1       7.307   4.984  16.416  0.00  0.00    +0.000 A 
ENDBRANCH   7  17
ENDBRANCH   1  11
BRANCH   4  20
ATOM     20  C   UNL     1      -0.424  11.035  19.470  0.00  0.00    +0.000 C 
BRANCH  20  21
ATOM     21  C   UNL     1      -0.548  11.900  20.733  0.00  0.00    +0.000 C 
BRANCH  21  22
ATOM     22  N   UNL     1       0.739  12.468  21.098  0.00  0.00    +0.000 N 
ATOM     23  C   UNL     1       1.352  13.383  20.305  0.00  0.00    +0.000 A 
ATOM     24  N   UNL     1       2.660  13.457  20.273  0.00  0.00    +0.000 NA
ATOM     25  C   UNL     1       3.069  14.508  19.470  0.00  0.00    +0.000 A 
ATOM     26  C   UNL     1       4.405  14.895  19.240  0.00  0.00    +0.000 A 
ATOM     27  C   UNL     1       4.678  16.004  18.434  0.00  0.00    +0.000 A 
ATOM     28  C   UNL     1       3.639  16.719  17.846  0.00  0.00    +0.000 A 
ATOM     29  C   UNL     1       2.306  16.341  18.040  0.00  0.00    +0.000 A 
ATOM     30  C   UNL     1       2.044  15.231  18.863  0.00  0.00    +0.000 A 
ATOM     31  S   UNL     1       0.539  14.534  19.313  0.00  0.00    +0.000 S 
ATOM     32  H   UNL     1       1.400  11.798  21.481  0.00  0.00    +0.000 HD
ENDBRANCH  21  22
ENDBRANCH  20  21
ENDBRANCH   4  20
TORSDOF 5
ENDMDL
MODEL 9
REMARK VINA RESULT:      -8.4      3.239      5.433
REMARK  Name = 
REMARK  5 active torsions:
REMARK  status: ('A' for Active; 'I' for Inactive)
REMARK    1  A    between atoms: C_4  and  C_5
REMARK    2  A    between atoms: N_9  and  C_10
REMARK    3  A    between atoms: C_13  and  C_14
REMARK    4  A    between atoms: C_14  and  C_15
REMARK    5  A    between atoms: C_15  and  N_16
REMARK                            x       y       z     vdW  Elec       q    Type
REMARK                         _______ _______ _______ _____ _____    ______ ____
ROOT
ATOM      1  C   UNL     1       2.018   7.568  19.923  0.00  0.00    +0.000 A 
ATOM      2  C   UNL     1       1.156   7.932  20.961  0.00  0.00    +0.000 A 
ATOM      3  C   UNL     1       0.326   9.054  20.859  0.00  0.00    +0.000 A 
ATOM      4  C   UNL     1       0.341   9.857  19.713  0.00  0.00    +0.000 A 
ATOM      5  C   UNL     1       1.183   9.481  18.659  0.00  0.00    +0.000 A 
ATOM      6  C   UNL     1       1.998   8.347  18.761  0.00  0.00    +0.000 A 
ENDROOT
BRANCH   1  11
ATOM      7  C   UNL     1       4.012   3.490  17.913  0.00  0.00    +0.000 C 
ATOM      8  C   UNL     1       2.569   3.836  17.537  0.00  0.00    +0.000 C 
ATOM      9  N   UNL     1       2.172   5.120  18.144  0.00  0.00    +0.000 NA
ATOM     10  C   UNL     1       2.886   5.365  19.190  0.00  0.00    +0.000 C 
ATOM     11  N   UNL     1       2.787   6.404  20.063  0.00  0.00    +0.000 N 
ATOM     12  S   UNL     1       4.154   4.214  19.568  0.00  0.00    +0.000 S 
ATOM     13  H   UNL     1       3.364   6.348  20.890  0.00  0.00    +0.000 HD
BRANCH   7  17
ATOM     14  C   UNL     1       6.984   5.021  15.158  0.00  0.00    +0.000 A 
ATOM     15  C   UNL     1       7.277   4.961  16.516  0.00  0.00    +0.000 A 
ATOM     16  C   UNL     1       6.332   4.458  17.413  0.00  0.00    +0.000 A 
ATOM     17  C   UNL     1       5.075   4.015  16.967  0.00  0.00    +0.000 A 
ATOM     18  C   UNL     1       4.805   4.065  15.588  0.00  0.00    +0.000 A 
ATOM     19  C   UNL     1       5.752   4.570  14.692  0.00  0.00    +0.000 A 
ENDBRANCH   7  17
ENDBRANCH   1  11
BRANCH   4  20
ATOM     20  C   UNL     1      -0.500  11.107  19.560  0.00  0.00    +0.000 C 
BRANCH  20  21
ATOM     21  C   UNL     1      -0.619  11.986  20.814  0.00  0.00    +0.000 C 
BRANCH  21  22
ATOM     22  N   UNL     1       0.673  12.543  21.179  0.00  0.00    +0.000 N 
ATOM     23  C   UNL     1       1.304  13.435  20.375  0.00  0.00    +0.000 A 
ATOM     24  N   UNL     1       2.613  13.491  20.351  0.00  0.00    +0.000 NA
ATOM     25  C   UNL     1       3.043  14.522  19.533  0.00  0.00    +0.000 A 
ATOM     26  C   UNL     1       4.385  14.886  19.306  0.00  0.00    +0.000 A 
ATOM     27  C   UNL     1       4.679  15.977  18.483  0.00  0.00    +0.000 A 
ATOM     28  C   UNL     1       3.654  16.696  17.874  0.00  0.00    +0.000 A 
ATOM     29  C   UNL     1       2.315  16.339  18.065  0.00  0.00    +0.000 A 
ATOM     30  C   UNL     1       2.032  15.248  18.906  0.00  0.00    +0.000 A 
ATOM     31  S   UNL     1       0.513  14.579  19.356  0.00  0.00    +0.000 S 
ATOM     32  H   UNL     1       1.322  11.871  21.579  0.00  0.00    +0.000 HD
ENDBRANCH  21  22
ENDBRANCH  20  21
ENDBRANCH   4  20
TORSDOF 5
ENDMDL
