MODEL 1
REMARK VINA RESULT:      -7.3      0.000      0.000
REMARK  Name = 
REMARK  5 active torsions:
REMARK  status: ('A' for Active; 'I' for Inactive)
REMARK    1  A    between atoms: C_1  and  C_2
REMARK    2  A    between atoms: C_5  and  C_6
REMARK    3  A    between atoms: C_7  and  C_8
REMARK    4  A    between atoms: N_10  and  C_11
REMARK    5  A    between atoms: C_11  and  C_12
REMARK                            x       y       z     vdW  Elec       q    Type
REMARK                         _______ _______ _______ _____ _____    ______ ____
ROOT
ATOM      1  C   UNL     1       6.962   6.871  17.455  0.00  0.00    +0.000 C 
ATOM      2  O   UNL     1       5.763   7.123  17.471  0.00  0.00    +0.000 OA
ATOM      3  N   UNL     1       7.505   5.751  16.885  0.00  0.00    +0.000 N 
ATOM      4  H   UNL     1       8.489   5.543  16.989  0.00  0.00    +0.000 HD
ENDROOT
BRANCH   1   6
ATOM      5  C   UNL     1       7.933   9.090  17.803  0.00  0.00    +0.000 C 
ATOM      6  C   UNL     1       7.978   7.773  18.049  0.00  0.00    +0.000 C 
BRANCH   5  11
ATOM      7  C   UNL     1      11.526  12.383  17.786  0.00  0.00    +0.000 C 
ATOM      8  C   UNL     1      10.553  11.473  18.422  0.00  0.00    +0.000 A 
ATOM      9  C   UNL     1      10.263  11.162  19.728  0.00  0.00    +0.000 A 
ATOM     10  C   UNL     1       9.219  10.210  19.678  0.00  0.00    +0.000 A 
ATOM     11  C   UNL     1       8.911   9.972  18.343  0.00  0.00    +0.000 A 
ATOM     12  O   UNL     1       9.748  10.766  17.584  0.00  0.00    +0.000 OA
ENDBRANCH   5  11
ENDBRANCH   1   6
BRANCH   3  13
ATOM     13  C   UNL     1       6.693   4.750  16.222  0.00  0.00    +0.000 C 
BRANCH  13  14
ATOM     14  C   UNL     1       6.939   4.679  14.732  0.00  0.00    +0.000 A 
ATOM     15  C   UNL     1       6.202   3.798  13.942  0.00  0.00    +0.000 A 
ATOM     16  C   UNL     1       6.418   3.785  12.566  0.00  0.00    +0.000 A 
ATOM     17  C   UNL     1       7.367   4.638  12.017  0.00  0.00    +0.000 A 
ATOM     18  C   UNL     1       8.070   5.470  12.873  0.00  0.00    +0.000 A 
ATOM     19  N   UNL     1       7.883   5.507  14.213  0.00  0.00    +0.000 NA
ENDBRANCH  13  14
ENDBRANCH   3  13
TORSDOF 4
ENDMDL
MODEL 2
REMARK VINA RESULT:      -7.3      4.307      7.175
REMARK  Name = 
REMARK  5 active torsions:
REMARK  status: ('A' for Active; 'I' for Inactive)
REMARK    1  A    between atoms: C_1  and  C_2
REMARK    2  A    between atoms: C_5  and  C_6
REMARK    3  A    between atoms: C_7  and  C_8
REMARK    4  A    between atoms: N_10  and  C_11
REMARK    5  A    between atoms: C_11  and  C_12
REMARK                            x       y       z     vdW  Elec       q    Type
REMARK                         _______ _______ _______ _____ _____    ______ ____
ROOT
ATOM      1  C   UNL     1       6.366   4.588  18.087  0.00  0.00    +0.000 C 
ATOM      2  O   UNL     1       7.501   4.502  18.539  0.00  0.00    +0.000 OA
ATOM      3  N   UNL     1       6.063   5.123  16.863  0.00  0.00    +0.000 N 
ATOM      4  H   UNL     1       5.102   5.260  16.583  0.00  0.00    +0.000 HD
ENDROOT
BRANCH   1   6
ATOM      5  C   UNL     1       4.003   3.954  18.178  0.00  0.00    +0.000 C 
ATOM      6  C   UNL     1       5.172   4.099  18.819  0.00  0.00    +0.000 C 
BRANCH   5  11
ATOM      7  C   UNL     1       1.274   2.520  21.953  0.00  0.00    +0.000 C 
ATOM      8  C   UNL     1       1.526   2.844  20.535  0.00  0.00    +0.000 A 
ATOM      9  C   UNL     1       0.741   2.825  19.408  0.00  0.00    +0.000 A 
ATOM     10  C   UNL     1       1.575   3.249  18.347  0.00  0.00    +0.000 A 
ATOM     11  C   UNL     1       2.839   3.509  18.865  0.00  0.00    +0.000 A 
ATOM     12  O   UNL     1       2.784   3.254  20.221  0.00  0.00    +0.000 OA
ENDBRANCH   5  11
ENDBRANCH   1   6
BRANCH   3  13
ATOM     13  C   UNL     1       7.083   5.633  15.970  0.00  0.00    +0.000 C 
BRANCH  13  14
ATOM     14  C   UNL     1       7.013   5.033  14.585  0.00  0.00    +0.000 A 
ATOM     15  C   UNL     1       6.097   4.020  14.305  0.00  0.00    +0.000 A 
ATOM     16  C   UNL     1       6.024   3.515  13.009  0.00  0.00    +0.000 A 
ATOM     17  C   UNL     1       6.870   4.023  12.032  0.00  0.00    +0.000 A 
ATOM     18  C   UNL     1       7.765   5.016  12.395  0.00  0.00    +0.000 A 
ATOM     19  N   UNL     1       7.859   5.528  13.644  0.00  0.00    +0.000 NA
ENDBRANCH  13  14
ENDBRANCH   3  13
TORSDOF 4
ENDMDL
MODEL 3
REMARK VINA RESULT:      -7.2      1.252      1.464
REMARK  Name = 
REMARK  5 active torsions:
REMARK  status: ('A' for Active; 'I' for Inactive)
REMARK    1  A    between atoms: C_1  and  C_2
REMARK    2  A    between atoms: C_5  and  C_6
REMARK    3  A    between atoms: C_7  and  C_8
REMARK    4  A    between atoms: N_10  and  C_11
REMARK    5  A    between atoms: C_11  and  C_12
REMARK                            x       y       z     vdW  Elec       q    Type
REMARK                         _______ _______ _______ _____ _____    ______ ____
ROOT
ATOM      1  C   UNL     1       7.576   5.876  18.106  0.00  0.00    +0.000 C 
ATOM      2  O   UNL     1       7.537   4.895  18.838  0.00  0.00    +0.000 OA
ATOM      3  N   UNL     1       7.122   5.890  16.813  0.00  0.00    +0.000 N 
ATOM      4  H   UNL     1       7.270   6.696  16.223  0.00  0.00    +0.000 HD
ENDROOT
BRANCH   1   6
ATOM      5  C   UNL     1       7.933   8.276  17.789  0.00  0.00    +0.000 C 
ATOM      6  C   UNL     1       8.114   7.185  18.547  0.00  0.00    +0.000 C 
BRANCH   5  11
ATOM      7  C   UNL     1      10.463  11.464  20.472  0.00  0.00    +0.000 C 
ATOM      8  C   UNL     1       9.590  11.057  19.353  0.00  0.00    +0.000 A 
ATOM      9  C   UNL     1       8.991  11.744  18.324  0.00  0.00    +0.000 A 
ATOM     10  C   UNL     1       8.275  10.778  17.578  0.00  0.00    +0.000 A 
ATOM     11  C   UNL     1       8.461   9.538  18.181  0.00  0.00    +0.000 A 
ATOM     12  O   UNL     1       9.279   9.735  19.275  0.00  0.00    +0.000 OA
ENDBRANCH   5  11
ENDBRANCH   1   6
BRANCH   3  13
ATOM     13  C   UNL     1       6.529   4.724  16.191  0.00  0.00    +0.000 C 
BRANCH  13  14
ATOM     14  C   UNL     1       6.826   4.625  14.712  0.00  0.00    +0.000 A 
ATOM     15  C   UNL     1       6.105   3.742  13.909  0.00  0.00    +0.000 A 
ATOM     16  C   UNL     1       6.369   3.704  12.542  0.00  0.00    +0.000 A 
ATOM     17  C   UNL     1       7.349   4.535  12.014  0.00  0.00    +0.000 A 
ATOM     18  C   UNL     1       8.033   5.370  12.882  0.00  0.00    +0.000 A 
ATOM     19  N   UNL     1       7.799   5.432  14.213  0.00  0.00    +0.000 NA
ENDBRANCH  13  14
ENDBRANCH   3  13
TORSDOF 4
ENDMDL
MODEL 4
REMARK VINA RESULT:      -7.2      1.326      1.535
REMARK  Name = 
REMARK  5 active torsions:
REMARK  status: ('A' for Active; 'I' for Inactive)
REMARK    1  A    between atoms: C_1  and  C_2
REMARK    2  A    between atoms: C_5  and  C_6
REMARK    3  A    between atoms: C_7  and  C_8
REMARK    4  A    between atoms: N_10  and  C_11
REMARK    5  A    between atoms: C_11  and  C_12
REMARK                            x       y       z     vdW  Elec       q    Type
REMARK                         _______ _______ _______ _____ _____    ______ ____
ROOT
ATOM      1  C   UNL     1       7.770   7.234  17.833  0.00  0.00    +0.000 C 
ATOM      2  O   UNL     1       7.961   6.523  18.812  0.00  0.00    +0.000 OA
ATOM      3  N   UNL     1       7.227   6.795  16.656  0.00  0.00    +0.000 N 
ATOM      4  H   UNL     1       7.185   7.400  15.848  0.00  0.00    +0.000 HD
ENDROOT
BRANCH   1   6
ATOM      5  C   UNL     1       8.840   9.212  18.801  0.00  0.00    +0.000 C 
ATOM      6  C   UNL     1       8.099   8.680  17.818  0.00  0.00    +0.000 C 
BRANCH   5  11
ATOM      7  C   UNL     1      10.715  13.387  20.477  0.00  0.00    +0.000 C 
ATOM      8  C   UNL     1       9.971  12.549  19.516  0.00  0.00    +0.000 A 
ATOM      9  C   UNL     1       9.327  12.813  18.332  0.00  0.00    +0.000 A 
ATOM     10  C   UNL     1       8.806  11.576  17.889  0.00  0.00    +0.000 A 
ATOM     11  C   UNL     1       9.148  10.601  18.820  0.00  0.00    +0.000 A 
ATOM     12  O   UNL     1       9.871  11.226  19.816  0.00  0.00    +0.000 OA
ENDBRANCH   5  11
ENDBRANCH   1   6
BRANCH   3  13
ATOM     13  C   UNL     1       6.806   5.422  16.465  0.00  0.00    +0.000 C 
BRANCH  13  14
ATOM     14  C   UNL     1       6.875   4.974  15.023  0.00  0.00    +0.000 A 
ATOM     15  C   UNL     1       5.951   4.055  14.528  0.00  0.00    +0.000 A 
ATOM     16  C   UNL     1       6.012   3.693  13.184  0.00  0.00    +0.000 A 
ATOM     17  C   UNL     1       6.995   4.247  12.375  0.00  0.00    +0.000 A 
ATOM     18  C   UNL     1       7.887   5.139  12.946  0.00  0.00    +0.000 A 
ATOM     19  N   UNL     1       7.854   5.511  14.247  0.00  0.00    +0.000 NA
ENDBRANCH  13  14
ENDBRANCH   3  13
TORSDOF 4
ENDMDL
MODEL 5
REMARK VINA RESULT:      -7.1      2.242      3.396
REMARK  Name = 
REMARK  5 active torsions:
REMARK  status: ('A' for Active; 'I' for Inactive)
REMARK    1  A    between atoms: C_1  and  C_2
REMARK    2  A    between atoms: C_5  and  C_6
REMARK    3  A    between atoms: C_7  and  C_8
REMARK    4  A    between atoms: N_10  and  C_11
REMARK    5  A    between atoms: C_11  and  C_12
REMARK                            x       y       z     vdW  Elec       q    Type
REMARK                         _______ _______ _______ _____ _____    ______ ____
ROOT
ATOM      1  C   UNL     1       7.302   7.024  17.420  0.00  0.00    +0.000 C 
ATOM      2  O   UNL     1       6.329   7.394  16.775  0.00  0.00    +0.000 OA
ATOM      3  N   UNL     1       7.696   5.717  17.538  0.00  0.00    +0.000 N 
ATOM      4  H   UNL     1       8.446   5.458  18.163  0.00  0.00    +0.000 HD
ENDROOT
BRANCH   1   6
ATOM      5  C   UNL     1       8.209   9.263  17.810  0.00  0.00    +0.000 C 
ATOM      6  C   UNL     1       8.187   7.965  18.147  0.00  0.00    +0.000 C 
BRANCH   5  11
ATOM      7  C   UNL     1      11.571  12.761  18.277  0.00  0.00    +0.000 C 
ATOM      8  C   UNL     1      10.595  11.772  18.777  0.00  0.00    +0.000 A 
ATOM      9  C   UNL     1      10.188  11.399  20.035  0.00  0.00    +0.000 A 
ATOM     10  C   UNL     1       9.216  10.389  19.844  0.00  0.00    +0.000 A 
ATOM     11  C   UNL     1       9.068  10.181  18.477  0.00  0.00    +0.000 A 
ATOM     12  O   UNL     1       9.929  11.049  17.837  0.00  0.00    +0.000 OA
ENDBRANCH   5  11
ENDBRANCH   1   6
BRANCH   3  13
ATOM     13  C   UNL     1       6.989   4.636  16.882  0.00  0.00    +0.000 C 
BRANCH  13  14
ATOM     14  C   UNL     1       5.665   4.310  17.535  0.00  0.00    +0.000 A 
ATOM     15  C   UNL     1       4.502   4.247  16.768  0.00  0.00    +0.000 A 
ATOM     16  C   UNL     1       3.303   3.902  17.388  0.00  0.00    +0.000 A 
ATOM     17  C   UNL     1       3.292   3.642  18.752  0.00  0.00    +0.000 A 
ATOM     18  C   UNL     1       4.487   3.744  19.446  0.00  0.00    +0.000 A 
ATOM     19  N   UNL     1       5.667   4.075  18.874  0.00  0.00    +0.000 NA
ENDBRANCH  13  14
ENDBRANCH   3  13
TORSDOF 4
ENDMDL
MODEL 6
REMARK VINA RESULT:      -7.1      2.962      4.085
REMARK  Name = 
REMARK  5 active torsions:
REMARK  status: ('A' for Active; 'I' for Inactive)
REMARK    1  A    between atoms: C_1  and  C_2
REMARK    2  A    between atoms: C_5  and  C_6
REMARK    3  A    between atoms: C_7  and  C_8
REMARK    4  A    between atoms: N_10  and  C_11
REMARK    5  A    between atoms: C_11  and  C_12
REMARK                            x       y       z     vdW  Elec       q    Type
REMARK                         _______ _______ _______ _____ _____    ______ ____
ROOT
ATOM      1  C   UNL     1       7.410   6.549  17.553  0.00  0.00    +0.000 C 
ATOM      2  O   UNL     1       7.534   6.305  16.359  0.00  0.00    +0.000 OA
ATOM      3  N   UNL     1       6.667   5.793  18.421  0.00  0.00    +0.000 N 
ATOM      4  H   UNL     1       6.518   6.096  19.373  0.00  0.00    +0.000 HD
ENDROOT
BRANCH   1   6
ATOM      5  C   UNL     1       7.979   8.927  17.670  0.00  0.00    +0.000 C 
ATOM      6  C   UNL     1       8.073   7.702  18.209  0.00  0.00    +0.000 C 
BRANCH   5  11
ATOM      7  C   UNL     1       9.434  13.551  18.173  0.00  0.00    +0.000 C 
ATOM      8  C   UNL     1       9.332  12.133  18.571  0.00  0.00    +0.000 A 
ATOM      9  C   UNL     1       9.822  11.412  19.634  0.00  0.00    +0.000 A 
ATOM     10  C   UNL     1       9.372  10.086  19.442  0.00  0.00    +0.000 A 
ATOM     11  C   UNL     1       8.626  10.044  18.269  0.00  0.00    +0.000 A 
ATOM     12  O   UNL     1       8.614  11.322  17.749  0.00  0.00    +0.000 OA
ENDBRANCH   5  11
ENDBRANCH   1   6
BRANCH   3  13
ATOM     13  C   UNL     1       5.959   4.603  17.996  0.00  0.00    +0.000 C 
BRANCH  13  14
ATOM     14  C   UNL     1       4.479   4.654  18.296  0.00  0.00    +0.000 A 
ATOM     15  C   UNL     1       3.561   4.124  17.389  0.00  0.00    +0.000 A 
ATOM     16  C   UNL     1       2.206   4.146  17.711  0.00  0.00    +0.000 A 
ATOM     17  C   UNL     1       1.801   4.701  18.917  0.00  0.00    +0.000 A 
ATOM     18  C   UNL     1       2.774   5.223  19.755  0.00  0.00    +0.000 A 
ATOM     19  N   UNL     1       4.097   5.216  19.472  0.00  0.00    +0.000 NA
ENDBRANCH  13  14
ENDBRANCH   3  13
TORSDOF 4
ENDMDL
MODEL 7
REMARK VINA RESULT:      -7.0      3.097      4.640
REMARK  Name = 
REMARK  5 active torsions:
REMARK  status: ('A' for Active; 'I' for Inactive)
REMARK    1  A    between atoms: C_1  and  C_2
REMARK    2  A    between atoms: C_5  and  C_6
REMARK    3  A    between atoms: C_7  and  C_8
REMARK    4  A    between atoms: N_10  and  C_11
REMARK    5  A    between atoms: C_11  and  C_12
REMARK                            x       y       z     vdW  Elec       q    Type
REMARK                         _______ _______ _______ _____ _____    ______ ____
ROOT
ATOM      1  C   UNL     1       7.331   6.465  17.584  0.00  0.00    +0.000 C 
ATOM      2  O   UNL     1       7.465   6.152  16.407  0.00  0.00    +0.000 OA
ATOM      3  N   UNL     1       6.523   5.803  18.470  0.00  0.00    +0.000 N 
ATOM      4  H   UNL     1       6.373   6.163  19.402  0.00  0.00    +0.000 HD
ENDROOT
BRANCH   1   6
ATOM      5  C   UNL     1       7.900   8.843  17.698  0.00  0.00    +0.000 C 
ATOM      6  C   UNL     1       8.052   7.607  18.196  0.00  0.00    +0.000 C 
BRANCH   5  11
ATOM      7  C   UNL     1       9.603  13.399  18.008  0.00  0.00    +0.000 C 
ATOM      8  C   UNL     1       9.416  12.010  18.470  0.00  0.00    +0.000 A 
ATOM      9  C   UNL     1       9.850  11.315  19.574  0.00  0.00    +0.000 A 
ATOM     10  C   UNL     1       9.329  10.007  19.437  0.00  0.00    +0.000 A 
ATOM     11  C   UNL     1       8.600   9.950  18.254  0.00  0.00    +0.000 A 
ATOM     12  O   UNL     1       8.666  11.201  17.675  0.00  0.00    +0.000 OA
ENDBRANCH   5  11
ENDBRANCH   1   6
BRANCH   3  13
ATOM     13  C   UNL     1       5.751   4.638  18.088  0.00  0.00    +0.000 C 
BRANCH  13  14
ATOM     14  C   UNL     1       4.608   4.348  19.034  0.00  0.00    +0.000 A 
ATOM     15  C   UNL     1       3.734   5.367  19.411  0.00  0.00    +0.000 A 
ATOM     16  C   UNL     1       2.664   5.063  20.249  0.00  0.00    +0.000 A 
ATOM     17  C   UNL     1       2.499   3.759  20.696  0.00  0.00    +0.000 A 
ATOM     18  C   UNL     1       3.421   2.807  20.290  0.00  0.00    +0.000 A 
ATOM     19  N   UNL     1       4.470   3.071  19.477  0.00  0.00    +0.000 NA
ENDBRANCH  13  14
ENDBRANCH   3  13
TORSDOF 4
ENDMDL
MODEL 8
REMARK VINA RESULT:      -6.9      1.294      1.590
REMARK  Name = 
REMARK  5 active torsions:
REMARK  status: ('A' for Active; 'I' for Inactive)
REMARK    1  A    between atoms: C_1  and  C_2
REMARK    2  A    between atoms: C_5  and  C_6
REMARK    3  A    between atoms: C_7  and  C_8
REMARK    4  A    between atoms: N_10  and  C_11
REMARK    5  A    between atoms: C_11  and  C_12
REMARK                            x       y       z     vdW  Elec       q    Type
REMARK                         _______ _______ _______ _____ _____    ______ ____
ROOT
ATOM      1  C   UNL     1       7.781   7.658  17.946  0.00  0.00    +0.000 C 
ATOM      2  O   UNL     1       8.182   6.879  18.801  0.00  0.00    +0.000 OA
ATOM      3  N   UNL     1       6.798   7.366  17.038  0.00  0.00    +0.000 N 
ATOM      4  H   UNL     1       6.576   8.010  16.291  0.00  0.00    +0.000 HD
ENDROOT
BRANCH   1   6
ATOM      5  C   UNL     1       8.977   9.608  18.817  0.00  0.00    +0.000 C 
ATOM      6  C   UNL     1       8.315   9.035  17.802  0.00  0.00    +0.000 C 
BRANCH   5  11
ATOM      7  C   UNL     1      11.270  13.409  16.804  0.00  0.00    +0.000 C 
ATOM      8  C   UNL     1      10.506  12.719  17.862  0.00  0.00    +0.000 A 
ATOM      9  C   UNL     1      10.027  13.108  19.089  0.00  0.00    +0.000 A 
ATOM     10  C   UNL     1       9.372  11.976  19.627  0.00  0.00    +0.000 A 
ATOM     11  C   UNL     1       9.477  10.936  18.711  0.00  0.00    +0.000 A 
ATOM     12  O   UNL     1      10.181  11.419  17.626  0.00  0.00    +0.000 OA
ENDBRANCH   5  11
ENDBRANCH   1   6
BRANCH   3  13
ATOM     13  C   UNL     1       6.118   6.087  17.021  0.00  0.00    +0.000 C 
BRANCH  13  14
ATOM     14  C   UNL     1       6.273   5.350  15.710  0.00  0.00    +0.000 A 
ATOM     15  C   UNL     1       5.280   4.474  15.276  0.00  0.00    +0.000 A 
ATOM     16  C   UNL     1       5.428   3.842  14.044  0.00  0.00    +0.000 A 
ATOM     17  C   UNL     1       6.564   4.090  13.285  0.00  0.00    +0.000 A 
ATOM     18  C   UNL     1       7.514   4.959  13.795  0.00  0.00    +0.000 A 
ATOM     19  N   UNL     1       7.399   5.589  14.987  0.00  0.00    +0.000 NA
ENDBRANCH  13  14
ENDBRANCH   3  13
TORSDOF 4
ENDMDL
MODEL 9
REMARK VINA RESULT:      -6.9      2.608      3.841
REMARK  Name = 
REMARK  5 active torsions:
REMARK  status: ('A' for Active; 'I' for Inactive)
REMARK    1  A    between atoms: C_1  and  C_2
REMARK    2  A    between atoms: C_5  and  C_6
REMARK    3  A    between atoms: C_7  and  C_8
REMARK    4  A    between atoms: N_10  and  C_11
REMARK    5  A    between atoms: C_11  and  C_12
REMARK                            x       y       z     vdW  Elec       q    Type
REMARK                         _______ _______ _______ _____ _____    ______ ____
ROOT
ATOM      1  C   UNL     1       7.545   5.844  18.040  0.00  0.00    +0.000 C 
ATOM      2  O   UNL     1       7.833   4.771  18.557  0.00  0.00    +0.000 OA
ATOM      3  N   UNL     1       6.665   5.986  17.000  0.00  0.00    +0.000 N 
ATOM      4  H   UNL     1       6.540   6.880  16.547  0.00  0.00    +0.000 HD
ENDROOT
BRANCH   1   6
ATOM      5  C   UNL     1       7.920   8.248  17.780  0.00  0.00    +0.000 C 
ATOM      6  C   UNL     1       8.116   7.133  18.499  0.00  0.00    +0.000 C 
BRANCH   5  11
ATOM      7  C   UNL     1      10.315  11.391  20.634  0.00  0.00    +0.000 C 
ATOM      8  C   UNL     1       9.556  10.990  19.433  0.00  0.00    +0.000 A 
ATOM      9  C   UNL     1       9.128  11.666  18.316  0.00  0.00    +0.000 A 
ATOM     10  C   UNL     1       8.445  10.714  17.524  0.00  0.00    +0.000 A 
ATOM     11  C   UNL     1       8.478   9.492  18.188  0.00  0.00    +0.000 A 
ATOM     12  O   UNL     1       9.172   9.687  19.365  0.00  0.00    +0.000 OA
ENDBRANCH   5  11
ENDBRANCH   1   6
BRANCH   3  13
ATOM     13  C   UNL     1       5.969   4.856  16.418  0.00  0.00    +0.000 C 
BRANCH  13  14
ATOM     14  C   UNL     1       4.583   4.656  16.986  0.00  0.00    +0.000 A 
ATOM     15  C   UNL     1       3.883   5.735  17.525  0.00  0.00    +0.000 A 
ATOM     16  C   UNL     1       2.590   5.531  18.001  0.00  0.00    +0.000 A 
ATOM     17  C   UNL     1       2.035   4.260  17.938  0.00  0.00    +0.000 A 
ATOM     18  C   UNL     1       2.802   3.237  17.405  0.00  0.00    +0.000 A 
ATOM     19  N   UNL     1       4.059   3.403  16.933  0.00  0.00    +0.000 NA
ENDBRANCH  13  14
ENDBRANCH   3  13
TORSDOF 4
ENDMDL
