MODEL 1
REMARK VINA RESULT:      -8.1      0.000      0.000
REMARK  Name = 
REMARK  7 active torsions:
REMARK  status: ('A' for Active; 'I' for Inactive)
REMARK    1  A    between atoms: C_1  and  O_2
REMARK    2  A    between atoms: O_2  and  C_3
REMARK    3  A    between atoms: C_6  and  O_7
REMARK    4  A    between atoms: O_7  and  C_8
REMARK    5  A    between atoms: N_13  and  C_14
REMARK    6  A    between atoms: C_17  and  C_18
REMARK    7  A    between atoms: C_19  and  C_20
REMARK                            x       y       z     vdW  Elec       q    Type
REMARK                         _______ _______ _______ _____ _____    ______ ____
ROOT
ATOM      1  C   UNL     1       0.775  10.078  19.235  0.00  0.00    +0.000 A 
ATOM      2  C   UNL     1       0.570   9.825  20.527  0.00  0.00    +0.000 A 
ATOM      3 CL   UNL     1      -0.460  10.738  21.549  0.00  0.00    +0.000 Cl
ATOM      4  C   UNL     1       1.180   8.611  21.077  0.00  0.00    +0.000 A 
ATOM      5  N   UNL     1       1.833   7.725  20.400  0.00  0.00    +0.000 NA
ATOM      6  N   UNL     1       2.063   7.997  19.063  0.00  0.00    +0.000 N 
ATOM      7  C   UNL     1       1.800   9.257  18.508  0.00  0.00    +0.000 A 
ATOM      8  O   UNL     1       2.316   9.715  17.489  0.00  0.00    +0.000 OA
ENDROOT
BRANCH   6   9
ATOM      9  C   UNL     1       2.735   6.955  18.339  0.00  0.00    +0.000 A 
ATOM     10  C   UNL     1       3.932   7.184  17.650  0.00  0.00    +0.000 A 
ATOM     11  C   UNL     1       4.601   6.147  16.991  0.00  0.00    +0.000 A 
ATOM     12  C   UNL     1       4.088   4.844  16.989  0.00  0.00    +0.000 A 
ATOM     13  C   UNL     1       4.884   3.752  16.330  0.00  0.00    +0.000 C 
ATOM     14  C   UNL     1       2.854   4.602  17.616  0.00  0.00    +0.000 A 
ATOM     15  C   UNL     1       2.197   3.249  17.646  0.00  0.00    +0.000 C 
ATOM     16  C   UNL     1       2.194   5.661  18.273  0.00  0.00    +0.000 A 
ENDBRANCH   6   9
BRANCH   1  17
ATOM     17  O   UNL     1       0.089  11.095  18.572  0.00  0.00    +0.000 OA
BRANCH  17  21
ATOM     18  C   UNL     1      -4.020  10.815  17.883  0.00  0.00    +0.000 A 
ATOM     19  C   UNL     1      -3.171   9.845  17.351  0.00  0.00    +0.000 A 
ATOM     20  C   UNL     1      -1.805   9.874  17.624  0.00  0.00    +0.000 A 
ATOM     21  C   UNL     1      -1.266  10.929  18.369  0.00  0.00    +0.000 A 
ATOM     22  C   UNL     1      -2.114  11.883  18.930  0.00  0.00    +0.000 A 
ATOM     23  C   UNL     1      -3.493  11.827  18.688  0.00  0.00    +0.000 A 
BRANCH  18  25
ATOM     24  C   UNL     1      -6.274  10.749  18.569  0.00  0.00    +0.000 C 
ATOM     25  O   UNL     1      -5.328  10.697  17.510  0.00  0.00    +0.000 OA
ENDBRANCH  18  25
ENDBRANCH  17  21
ENDBRANCH   1  17
TORSDOF 4
ENDMDL
MODEL 2
REMARK VINA RESULT:      -8.0      3.963      8.559
REMARK  Name = 
REMARK  7 active torsions:
REMARK  status: ('A' for Active; 'I' for Inactive)
REMARK    1  A    between atoms: C_1  and  O_2
REMARK    2  A    between atoms: O_2  and  C_3
REMARK    3  A    between atoms: C_6  and  O_7
REMARK    4  A    between atoms: O_7  and  C_8
REMARK    5  A    between atoms: N_13  and  C_14
REMARK    6  A    between atoms: C_17  and  C_18
REMARK    7  A    between atoms: C_19  and  C_20
REMARK                            x       y       z     vdW  Elec       q    Type
REMARK                         _______ _______ _______ _____ _____    ______ ____
ROOT
ATOM      1  C   UNL     1       4.361   4.840  19.000  0.00  0.00    +0.000 A 
ATOM      2  C   UNL     1       3.736   3.822  19.589  0.00  0.00    +0.000 A 
ATOM      3 CL   UNL     1       4.401   2.255  19.796  0.00  0.00    +0.000 Cl
ATOM      4  C   UNL     1       2.435   4.100  20.206  0.00  0.00    +0.000 A 
ATOM      5  N   UNL     1       1.879   5.263  20.295  0.00  0.00    +0.000 NA
ATOM      6  N   UNL     1       2.518   6.317  19.665  0.00  0.00    +0.000 N 
ATOM      7  C   UNL     1       3.595   6.115  18.792  0.00  0.00    +0.000 A 
ATOM      8  O   UNL     1       3.960   6.890  17.908  0.00  0.00    +0.000 OA
ENDROOT
BRANCH   6   9
ATOM      9  C   UNL     1       1.897   7.599  19.848  0.00  0.00    +0.000 A 
ATOM     10  C   UNL     1       1.816   8.537  18.812  0.00  0.00    +0.000 A 
ATOM     11  C   UNL     1       1.163   9.761  18.990  0.00  0.00    +0.000 A 
ATOM     12  C   UNL     1       0.578  10.096  20.218  0.00  0.00    +0.000 A 
ATOM     13  C   UNL     1      -0.175  11.391  20.334  0.00  0.00    +0.000 C 
ATOM     14  C   UNL     1       0.705   9.199  21.293  0.00  0.00    +0.000 A 
ATOM     15  C   UNL     1       0.144   9.472  22.662  0.00  0.00    +0.000 C 
ATOM     16  C   UNL     1       1.369   7.971  21.094  0.00  0.00    +0.000 A 
ENDBRANCH   6   9
BRANCH   1  17
ATOM     17  O   UNL     1       5.678   4.729  18.555  0.00  0.00    +0.000 OA
BRANCH  17  21
ATOM     18  C   UNL     1       6.536   4.432  14.479  0.00  0.00    +0.000 A 
ATOM     19  C   UNL     1       5.346   3.893  14.966  0.00  0.00    +0.000 A 
ATOM     20  C   UNL     1       5.001   4.041  16.308  0.00  0.00    +0.000 A 
ATOM     21  C   UNL     1       5.891   4.660  17.193  0.00  0.00    +0.000 A 
ATOM     22  C   UNL     1       7.067   5.228  16.705  0.00  0.00    +0.000 A 
ATOM     23  C   UNL     1       7.392   5.114  15.346  0.00  0.00    +0.000 A 
BRANCH  18  25
ATOM     24  C   UNL     1       5.838   3.337  12.512  0.00  0.00    +0.000 C 
ATOM     25  O   UNL     1       6.777   4.186  13.157  0.00  0.00    +0.000 OA
ENDBRANCH  18  25
ENDBRANCH  17  21
ENDBRANCH   1  17
TORSDOF 4
ENDMDL
MODEL 3
REMARK VINA RESULT:      -8.0      0.285      1.004
REMARK  Name = 
REMARK  7 active torsions:
REMARK  status: ('A' for Active; 'I' for Inactive)
REMARK    1  A    between atoms: C_1  and  O_2
REMARK    2  A    between atoms: O_2  and  C_3
REMARK    3  A    between atoms: C_6  and  O_7
REMARK    4  A    between atoms: O_7  and  C_8
REMARK    5  A    between atoms: N_13  and  C_14
REMARK    6  A    between atoms: C_17  and  C_18
REMARK    7  A    between atoms: C_19  and  C_20
REMARK                            x       y       z     vdW  Elec       q    Type
REMARK                         _______ _______ _______ _____ _____    ______ ____
ROOT
ATOM      1  C   UNL     1       0.718  10.266  19.195  0.00  0.00    +0.000 A 
ATOM      2  C   UNL     1       0.493  10.046  20.489  0.00  0.00    +0.000 A 
ATOM      3 CL   UNL     1      -0.535  10.998  21.477  0.00  0.00    +0.000 Cl
ATOM      4  C   UNL     1       1.075   8.834  21.074  0.00  0.00    +0.000 A 
ATOM      5  N   UNL     1       1.723   7.923  20.426  0.00  0.00    +0.000 NA
ATOM      6  N   UNL     1       1.974   8.162  19.086  0.00  0.00    +0.000 N 
ATOM      7  C   UNL     1       1.739   9.412  18.499  0.00  0.00    +0.000 A 
ATOM      8  O   UNL     1       2.275   9.840  17.478  0.00  0.00    +0.000 OA
ENDROOT
BRANCH   6   9
ATOM      9  C   UNL     1       2.638   7.092  18.393  0.00  0.00    +0.000 A 
ATOM     10  C   UNL     1       3.849   7.287  17.717  0.00  0.00    +0.000 A 
ATOM     11  C   UNL     1       4.508   6.225  17.091  0.00  0.00    +0.000 A 
ATOM     12  C   UNL     1       3.974   4.930  17.109  0.00  0.00    +0.000 A 
ATOM     13  C   UNL     1       4.759   3.811  16.485  0.00  0.00    +0.000 C 
ATOM     14  C   UNL     1       2.726   4.723  17.723  0.00  0.00    +0.000 A 
ATOM     15  C   UNL     1       2.046   3.383  17.773  0.00  0.00    +0.000 C 
ATOM     16  C   UNL     1       2.075   5.807  18.348  0.00  0.00    +0.000 A 
ENDBRANCH   6   9
BRANCH   1  17
ATOM     17  O   UNL     1       0.057  11.279  18.501  0.00  0.00    +0.000 OA
BRANCH  17  21
ATOM     18  C   UNL     1      -4.013  10.581  17.880  0.00  0.00    +0.000 A 
ATOM     19  C   UNL     1      -3.616  11.709  18.597  0.00  0.00    +0.000 A 
ATOM     20  C   UNL     1      -2.264  12.004  18.758  0.00  0.00    +0.000 A 
ATOM     21  C   UNL     1      -1.294  11.122  18.269  0.00  0.00    +0.000 A 
ATOM     22  C   UNL     1      -1.685  10.010  17.524  0.00  0.00    +0.000 A 
ATOM     23  C   UNL     1      -3.046   9.738  17.328  0.00  0.00    +0.000 A 
BRANCH  18  25
ATOM     24  C   UNL     1      -6.160  11.527  18.095  0.00  0.00    +0.000 C 
ATOM     25  O   UNL     1      -5.363  10.383  17.827  0.00  0.00    +0.000 OA
ENDBRANCH  18  25
ENDBRANCH  17  21
ENDBRANCH   1  17
TORSDOF 4
ENDMDL
MODEL 4
REMARK VINA RESULT:      -7.9      4.073      8.651
REMARK  Name = 
REMARK  7 active torsions:
REMARK  status: ('A' for Active; 'I' for Inactive)
REMARK    1  A    between atoms: C_1  and  O_2
REMARK    2  A    between atoms: O_2  and  C_3
REMARK    3  A    between atoms: C_6  and  O_7
REMARK    4  A    between atoms: O_7  and  C_8
REMARK    5  A    between atoms: N_13  and  C_14
REMARK    6  A    between atoms: C_17  and  C_18
REMARK    7  A    between atoms: C_19  and  C_20
REMARK                            x       y       z     vdW  Elec       q    Type
REMARK                         _______ _______ _______ _____ _____    ______ ____
ROOT
ATOM      1  C   UNL     1       4.507   4.600  19.147  0.00  0.00    +0.000 A 
ATOM      2  C   UNL     1       3.830   3.599  19.710  0.00  0.00    +0.000 A 
ATOM      3 CL   UNL     1       4.460   2.029  19.987  0.00  0.00    +0.000 Cl
ATOM      4  C   UNL     1       2.494   3.903  20.232  0.00  0.00    +0.000 A 
ATOM      5  N   UNL     1       1.948   5.074  20.263  0.00  0.00    +0.000 NA
ATOM      6  N   UNL     1       2.642   6.109  19.661  0.00  0.00    +0.000 N 
ATOM      7  C   UNL     1       3.773   5.879  18.866  0.00  0.00    +0.000 A 
ATOM      8  O   UNL     1       4.207   6.634  17.997  0.00  0.00    +0.000 OA
ENDROOT
BRANCH   6   9
ATOM      9  C   UNL     1       2.027   7.402  19.779  0.00  0.00    +0.000 A 
ATOM     10  C   UNL     1       1.974   8.298  18.705  0.00  0.00    +0.000 A 
ATOM     11  C   UNL     1       1.327   9.532  18.821  0.00  0.00    +0.000 A 
ATOM     12  C   UNL     1       0.718   9.919  20.022  0.00  0.00    +0.000 A 
ATOM     13  C   UNL     1      -0.028  11.223  20.071  0.00  0.00    +0.000 C 
ATOM     14  C   UNL     1       0.816   9.066  21.134  0.00  0.00    +0.000 A 
ATOM     15  C   UNL     1       0.227   9.396  22.479  0.00  0.00    +0.000 C 
ATOM     16  C   UNL     1       1.475   7.826  20.998  0.00  0.00    +0.000 A 
ENDBRANCH   6   9
BRANCH   1  17
ATOM     17  O   UNL     1       5.849   4.466  18.795  0.00  0.00    +0.000 OA
BRANCH  17  21
ATOM     18  C   UNL     1       6.563   4.401  14.680  0.00  0.00    +0.000 A 
ATOM     19  C   UNL     1       7.455   5.070  15.517  0.00  0.00    +0.000 A 
ATOM     20  C   UNL     1       7.281   5.047  16.899  0.00  0.00    +0.000 A 
ATOM     21  C   UNL     1       6.158   4.420  17.450  0.00  0.00    +0.000 A 
ATOM     22  C   UNL     1       5.280   3.723  16.621  0.00  0.00    +0.000 A 
ATOM     23  C   UNL     1       5.481   3.712  15.234  0.00  0.00    +0.000 A 
BRANCH  18  25
ATOM     24  C   UNL     1       6.353   3.470  12.526  0.00  0.00    +0.000 C 
ATOM     25  O   UNL     1       6.822   4.531  13.346  0.00  0.00    +0.000 OA
ENDBRANCH  18  25
ENDBRANCH  17  21
ENDBRANCH   1  17
TORSDOF 4
ENDMDL
MODEL 5
REMARK VINA RESULT:      -7.7      3.593      5.414
REMARK  Name = 
REMARK  7 active torsions:
REMARK  status: ('A' for Active; 'I' for Inactive)
REMARK    1  A    between atoms: C_1  and  O_2
REMARK    2  A    between atoms: O_2  and  C_3
REMARK    3  A    between atoms: C_6  and  O_7
REMARK    4  A    between atoms: O_7  and  C_8
REMARK    5  A    between atoms: N_13  and  C_14
REMARK    6  A    between atoms: C_17  and  C_18
REMARK    7  A    between atoms: C_19  and  C_20
REMARK                            x       y       z     vdW  Elec       q    Type
REMARK                         _______ _______ _______ _____ _____    ______ ____
ROOT
ATOM      1  C   UNL     1       3.058   5.034  19.226  0.00  0.00    +0.000 A 
ATOM      2  C   UNL     1       2.228   4.005  19.058  0.00  0.00    +0.000 A 
ATOM      3 CL   UNL     1       0.834   3.709  20.010  0.00  0.00    +0.000 Cl
ATOM      4  C   UNL     1       2.466   3.135  17.903  0.00  0.00    +0.000 A 
ATOM      5  N   UNL     1       3.362   3.325  16.991  0.00  0.00    +0.000 NA
ATOM      6  N   UNL     1       4.236   4.382  17.176  0.00  0.00    +0.000 N 
ATOM      7  C   UNL     1       4.301   5.086  18.386  0.00  0.00    +0.000 A 
ATOM      8  O   UNL     1       5.263   5.739  18.787  0.00  0.00    +0.000 OA
ENDROOT
BRANCH   6   9
ATOM      9  C   UNL     1       5.170   4.591  16.105  0.00  0.00    +0.000 A 
ATOM     10  C   UNL     1       6.269   5.448  16.238  0.00  0.00    +0.000 A 
ATOM     11  C   UNL     1       7.198   5.603  15.204  0.00  0.00    +0.000 A 
ATOM     12  C   UNL     1       7.053   4.914  13.993  0.00  0.00    +0.000 A 
ATOM     13  C   UNL     1       8.119   5.059  12.943  0.00  0.00    +0.000 C 
ATOM     14  C   UNL     1       5.922   4.100  13.811  0.00  0.00    +0.000 A 
ATOM     15  C   UNL     1       5.650   3.341  12.541  0.00  0.00    +0.000 C 
ATOM     16  C   UNL     1       4.995   3.959  14.865  0.00  0.00    +0.000 A 
ENDBRANCH   6   9
BRANCH   1  17
ATOM     17  O   UNL     1       2.808   6.026  20.175  0.00  0.00    +0.000 OA
BRANCH  17  21
ATOM     18  C   UNL     1       1.108   9.669  19.045  0.00  0.00    +0.000 A 
ATOM     19  C   UNL     1       1.785   8.906  18.092  0.00  0.00    +0.000 A 
ATOM     20  C   UNL     1       2.299   7.655  18.424  0.00  0.00    +0.000 A 
ATOM     21  C   UNL     1       2.212   7.192  19.742  0.00  0.00    +0.000 A 
ATOM     22  C   UNL     1       1.509   7.936  20.690  0.00  0.00    +0.000 A 
ATOM     23  C   UNL     1       0.956   9.176  20.343  0.00  0.00    +0.000 A 
BRANCH  18  25
ATOM     24  C   UNL     1       1.398  12.006  19.123  0.00  0.00    +0.000 C 
ATOM     25  O   UNL     1       0.686  10.891  18.605  0.00  0.00    +0.000 OA
ENDBRANCH  18  25
ENDBRANCH  17  21
ENDBRANCH   1  17
TORSDOF 4
ENDMDL
MODEL 6
REMARK VINA RESULT:      -7.7      0.943      1.188
REMARK  Name = 
REMARK  7 active torsions:
REMARK  status: ('A' for Active; 'I' for Inactive)
REMARK    1  A    between atoms: C_1  and  O_2
REMARK    2  A    between atoms: O_2  and  C_3
REMARK    3  A    between atoms: C_6  and  O_7
REMARK    4  A    between atoms: O_7  and  C_8
REMARK    5  A    between atoms: N_13  and  C_14
REMARK    6  A    between atoms: C_17  and  C_18
REMARK    7  A    between atoms: C_19  and  C_20
REMARK                            x       y       z     vdW  Elec       q    Type
REMARK                         _______ _______ _______ _____ _____    ______ ____
ROOT
ATOM      1  C   UNL     1       0.706  10.033  19.789  0.00  0.00    +0.000 A 
ATOM      2  C   UNL     1       0.426   9.613  21.022  0.00  0.00    +0.000 A 
ATOM      3 CL   UNL     1      -0.641  10.404  22.105  0.00  0.00    +0.000 Cl
ATOM      4  C   UNL     1       0.982   8.319  21.431  0.00  0.00    +0.000 A 
ATOM      5  N   UNL     1       1.655   7.517  20.674  0.00  0.00    +0.000 NA
ATOM      6  N   UNL     1       1.962   7.962  19.400  0.00  0.00    +0.000 N 
ATOM      7  C   UNL     1       1.753   9.292  19.010  0.00  0.00    +0.000 A 
ATOM      8  O   UNL     1       2.332   9.871  18.092  0.00  0.00    +0.000 OA
ENDROOT
BRANCH   6   9
ATOM      9  C   UNL     1       2.653   7.011  18.575  0.00  0.00    +0.000 A 
ATOM     10  C   UNL     1       3.801   7.354  17.851  0.00  0.00    +0.000 A 
ATOM     11  C   UNL     1       4.492   6.403  17.093  0.00  0.00    +0.000 A 
ATOM     12  C   UNL     1       4.051   5.076  17.022  0.00  0.00    +0.000 A 
ATOM     13  C   UNL     1       4.871   4.078  16.253  0.00  0.00    +0.000 C 
ATOM     14  C   UNL     1       2.863   4.723  17.685  0.00  0.00    +0.000 A 
ATOM     15  C   UNL     1       2.282   3.336  17.650  0.00  0.00    +0.000 C 
ATOM     16  C   UNL     1       2.179   5.696  18.443  0.00  0.00    +0.000 A 
ENDBRANCH   6   9
BRANCH   1  17
ATOM     17  O   UNL     1       0.076  11.148  19.238  0.00  0.00    +0.000 OA
BRANCH  17  21
ATOM     18  C   UNL     1      -3.246  10.720  16.743  0.00  0.00    +0.000 A 
ATOM     19  C   UNL     1      -2.162   9.857  16.590  0.00  0.00    +0.000 A 
ATOM     20  C   UNL     1      -1.072   9.931  17.454  0.00  0.00    +0.000 A 
ATOM     21  C   UNL     1      -1.023  10.931  18.432  0.00  0.00    +0.000 A 
ATOM     22  C   UNL     1      -2.118  11.776  18.610  0.00  0.00    +0.000 A 
ATOM     23  C   UNL     1      -3.232  11.672  17.766  0.00  0.00    +0.000 A 
BRANCH  18  25
ATOM     24  C   UNL     1      -3.801  10.143  14.527  0.00  0.00    +0.000 C 
ATOM     25  O   UNL     1      -4.233  10.572  15.811  0.00  0.00    +0.000 OA
ENDBRANCH  18  25
ENDBRANCH  17  21
ENDBRANCH   1  17
TORSDOF 4
ENDMDL
MODEL 7
REMARK VINA RESULT:      -7.7      3.081      5.345
REMARK  Name = 
REMARK  7 active torsions:
REMARK  status: ('A' for Active; 'I' for Inactive)
REMARK    1  A    between atoms: C_1  and  O_2
REMARK    2  A    between atoms: O_2  and  C_3
REMARK    3  A    between atoms: C_6  and  O_7
REMARK    4  A    between atoms: O_7  and  C_8
REMARK    5  A    between atoms: N_13  and  C_14
REMARK    6  A    between atoms: C_17  and  C_18
REMARK    7  A    between atoms: C_19  and  C_20
REMARK                            x       y       z     vdW  Elec       q    Type
REMARK                         _______ _______ _______ _____ _____    ______ ____
ROOT
ATOM      1  C   UNL     1       3.032   5.016  19.231  0.00  0.00    +0.000 A 
ATOM      2  C   UNL     1       2.163   4.029  19.015  0.00  0.00    +0.000 A 
ATOM      3 CL   UNL     1       0.753   3.749  19.948  0.00  0.00    +0.000 Cl
ATOM      4  C   UNL     1       2.373   3.201  17.824  0.00  0.00    +0.000 A 
ATOM      5  N   UNL     1       3.281   3.393  16.925  0.00  0.00    +0.000 NA
ATOM      6  N   UNL     1       4.195   4.405  17.159  0.00  0.00    +0.000 N 
ATOM      7  C   UNL     1       4.281   5.053  18.398  0.00  0.00    +0.000 A 
ATOM      8  O   UNL     1       5.266   5.649  18.831  0.00  0.00    +0.000 OA
ENDROOT
BRANCH   6   9
ATOM      9  C   UNL     1       5.143   4.623  16.102  0.00  0.00    +0.000 A 
ATOM     10  C   UNL     1       6.222   5.504  16.244  0.00  0.00    +0.000 A 
ATOM     11  C   UNL     1       7.164   5.667  15.225  0.00  0.00    +0.000 A 
ATOM     12  C   UNL     1       7.055   4.962  14.019  0.00  0.00    +0.000 A 
ATOM     13  C   UNL     1       8.135   5.118  12.986  0.00  0.00    +0.000 C 
ATOM     14  C   UNL     1       5.944   4.122  13.827  0.00  0.00    +0.000 A 
ATOM     15  C   UNL     1       5.711   3.344  12.561  0.00  0.00    +0.000 C 
ATOM     16  C   UNL     1       5.003   3.973  14.866  0.00  0.00    +0.000 A 
ENDBRANCH   6   9
BRANCH   1  17
ATOM     17  O   UNL     1       2.817   5.975  20.221  0.00  0.00    +0.000 OA
BRANCH  17  21
ATOM     18  C   UNL     1       1.057   9.516  18.877  0.00  0.00    +0.000 A 
ATOM     19  C   UNL     1       0.922   9.152  20.217  0.00  0.00    +0.000 A 
ATOM     20  C   UNL     1       1.558   8.014  20.708  0.00  0.00    +0.000 A 
ATOM     21  C   UNL     1       2.270   7.182  19.836  0.00  0.00    +0.000 A 
ATOM     22  C   UNL     1       2.434   7.558  18.503  0.00  0.00    +0.000 A 
ATOM     23  C   UNL     1       1.828   8.726  18.022  0.00  0.00    +0.000 A 
BRANCH  18  25
ATOM     24  C   UNL     1      -0.893  10.806  19.167  0.00  0.00    +0.000 C 
ATOM     25  O   UNL     1       0.355  10.629  18.512  0.00  0.00    +0.000 OA
ENDBRANCH  18  25
ENDBRANCH  17  21
ENDBRANCH   1  17
TORSDOF 4
ENDMDL
MODEL 8
REMARK VINA RESULT:      -7.7      0.503      1.703
REMARK  Name = 
REMARK  7 active torsions:
REMARK  status: ('A' for Active; 'I' for Inactive)
REMARK    1  A    between atoms: C_1  and  O_2
REMARK    2  A    between atoms: O_2  and  C_3
REMARK    3  A    between atoms: C_6  and  O_7
REMARK    4  A    between atoms: O_7  and  C_8
REMARK    5  A    between atoms: N_13  and  C_14
REMARK    6  A    between atoms: C_17  and  C_18
REMARK    7  A    between atoms: C_19  and  C_20
REMARK                            x       y       z     vdW  Elec       q    Type
REMARK                         _______ _______ _______ _____ _____    ______ ____
ROOT
ATOM      1  C   UNL     1       0.653  10.299  19.243  0.00  0.00    +0.000 A 
ATOM      2  C   UNL     1       0.425  10.163  20.548  0.00  0.00    +0.000 A 
ATOM      3 CL   UNL     1      -0.590  11.188  21.474  0.00  0.00    +0.000 Cl
ATOM      4  C   UNL     1       0.992   8.983  21.209  0.00  0.00    +0.000 A 
ATOM      5  N   UNL     1       1.627   8.025  20.619  0.00  0.00    +0.000 NA
ATOM      6  N   UNL     1       1.881   8.175  19.267  0.00  0.00    +0.000 N 
ATOM      7  C   UNL     1       1.662   9.389  18.603  0.00  0.00    +0.000 A 
ATOM      8  O   UNL     1       2.204   9.745  17.557  0.00  0.00    +0.000 OA
ENDROOT
BRANCH   6   9
ATOM      9  C   UNL     1       2.531   7.056  18.644  0.00  0.00    +0.000 A 
ATOM     10  C   UNL     1       2.111   5.739  18.866  0.00  0.00    +0.000 A 
ATOM     11  C   UNL     1       2.721   4.663  18.213  0.00  0.00    +0.000 A 
ATOM     12  C   UNL     1       3.782   4.866  17.321  0.00  0.00    +0.000 A 
ATOM     13  C   UNL     1       4.352   3.684  16.590  0.00  0.00    +0.000 C 
ATOM     14  C   UNL     1       4.265   6.173  17.133  0.00  0.00    +0.000 A 
ATOM     15  C   UNL     1       5.418   6.500  16.225  0.00  0.00    +0.000 C 
ATOM     16  C   UNL     1       3.638   7.244  17.803  0.00  0.00    +0.000 A 
ENDBRANCH   6   9
BRANCH   1  17
ATOM     17  O   UNL     1       0.005  11.274  18.486  0.00  0.00    +0.000 OA
BRANCH  17  21
ATOM     18  C   UNL     1      -4.073  10.590  17.900  0.00  0.00    +0.000 A 
ATOM     19  C   UNL     1      -3.665  11.730  18.593  0.00  0.00    +0.000 A 
ATOM     20  C   UNL     1      -2.310  12.020  18.741  0.00  0.00    +0.000 A 
ATOM     21  C   UNL     1      -1.349  11.121  18.265  0.00  0.00    +0.000 A 
ATOM     22  C   UNL     1      -1.751   9.997  17.545  0.00  0.00    +0.000 A 
ATOM     23  C   UNL     1      -3.114   9.729  17.361  0.00  0.00    +0.000 A 
BRANCH  18  25
ATOM     24  C   UNL     1      -6.208  11.449  18.407  0.00  0.00    +0.000 C 
ATOM     25  O   UNL     1      -5.424  10.399  17.858  0.00  0.00    +0.000 OA
ENDBRANCH  18  25
ENDBRANCH  17  21
ENDBRANCH   1  17
TORSDOF 4
ENDMDL
MODEL 9
REMARK VINA RESULT:      -7.7      1.355      1.913
REMARK  Name = 
REMARK  7 active torsions:
REMARK  status: ('A' for Active; 'I' for Inactive)
REMARK    1  A    between atoms: C_1  and  O_2
REMARK    2  A    between atoms: O_2  and  C_3
REMARK    3  A    between atoms: C_6  and  O_7
REMARK    4  A    between atoms: O_7  and  C_8
REMARK    5  A    between atoms: N_13  and  C_14
REMARK    6  A    between atoms: C_17  and  C_18
REMARK    7  A    between atoms: C_19  and  C_20
REMARK                            x       y       z     vdW  Elec       q    Type
REMARK                         _______ _______ _______ _____ _____    ______ ____
ROOT
ATOM      1  C   UNL     1       0.912  10.191  19.562  0.00  0.00    +0.000 A 
ATOM      2  C   UNL     1       0.779  10.432  20.866  0.00  0.00    +0.000 A 
ATOM      3 CL   UNL     1       0.088  11.853  21.530  0.00  0.00    +0.000 Cl
ATOM      4  C   UNL     1       1.145   9.352  21.788  0.00  0.00    +0.000 A 
ATOM      5  N   UNL     1       1.510   8.162  21.444  0.00  0.00    +0.000 NA
ATOM      6  N   UNL     1       1.668   7.917  20.090  0.00  0.00    +0.000 N 
ATOM      7  C   UNL     1       1.647   8.950  19.144  0.00  0.00    +0.000 A 
ATOM      8  O   UNL     1       2.154   8.909  18.024  0.00  0.00    +0.000 OA
ENDROOT
BRANCH   6   9
ATOM      9  C   UNL     1       2.010   6.563  19.755  0.00  0.00    +0.000 A 
ATOM     10  C   UNL     1       2.717   6.246  18.589  0.00  0.00    +0.000 A 
ATOM     11  C   UNL     1       3.088   4.929  18.301  0.00  0.00    +0.000 A 
ATOM     12  C   UNL     1       2.754   3.879  19.165  0.00  0.00    +0.000 A 
ATOM     13  C   UNL     1       3.240   2.493  18.846  0.00  0.00    +0.000 C 
ATOM     14  C   UNL     1       1.986   4.163  20.307  0.00  0.00    +0.000 A 
ATOM     15  C   UNL     1       1.544   3.108  21.285  0.00  0.00    +0.000 C 
ATOM     16  C   UNL     1       1.620   5.497  20.579  0.00  0.00    +0.000 A 
ENDBRANCH   6   9
BRANCH   1  17
ATOM     17  O   UNL     1       0.416  11.073  18.602  0.00  0.00    +0.000 OA
BRANCH  17  21
ATOM     18  C   UNL     1      -3.688  10.761  17.897  0.00  0.00    +0.000 A 
ATOM     19  C   UNL     1      -3.201  11.847  18.624  0.00  0.00    +0.000 A 
ATOM     20  C   UNL     1      -1.831  12.014  18.813  0.00  0.00    +0.000 A 
ATOM     21  C   UNL     1      -0.939  11.043  18.343  0.00  0.00    +0.000 A 
ATOM     22  C   UNL     1      -1.418   9.972  17.589  0.00  0.00    +0.000 A 
ATOM     23  C   UNL     1      -2.793   9.829  17.365  0.00  0.00    +0.000 A 
BRANCH  18  25
ATOM     24  C   UNL     1      -5.705  11.902  17.469  0.00  0.00    +0.000 C 
ATOM     25  O   UNL     1      -5.049  10.690  17.816  0.00  0.00    +0.000 OA
ENDBRANCH  18  25
ENDBRANCH  17  21
ENDBRANCH   1  17
TORSDOF 4
ENDMDL
