MODEL 1
REMARK VINA RESULT:      -8.7      0.000      0.000
REMARK  Name = 
REMARK  12 active torsions:
REMARK  status: ('A' for Active; 'I' for Inactive)
REMARK    1  A    between atoms: C_1  and  O_2
REMARK    2  A    between atoms: O_2  and  C_3
REMARK    3  A    between atoms: C_6  and  C_7
REMARK    4  A    between atoms: C_7  and  C_8
REMARK    5  A    between atoms: C_8  and  N_9
REMARK    6  A    between atoms: C_13  and  C_14
REMARK    7  A    between atoms: C_14  and  O_15
REMARK    8  A    between atoms: O_15  and  C_16
REMARK    9  A    between atoms: C_16  and  C_17
REMARK   10  A    between atoms: C_16  and  C_24
REMARK   11  A    between atoms: C_20  and  C_21
REMARK   12  A    between atoms: C_27  and  C_28
REMARK                            x       y       z     vdW  Elec       q    Type
REMARK                         _______ _______ _______ _____ _____    ______ ____
ROOT
ATOM      1  C   UNL     1       5.243   6.583  16.420  0.00  0.00    +0.000 C 
ENDROOT
BRANCH   1   6
ATOM      2  N   UNL     1       7.053   6.864  18.119  0.00  0.00    +0.000 NA
ATOM      3  C   UNL     1       7.247   5.685  18.975  0.00  0.00    +0.000 C 
ATOM      4  C   UNL     1       7.856   4.645  18.063  0.00  0.00    +0.000 C 
ATOM      5  C   UNL     1       7.038   4.823  16.802  0.00  0.00    +0.000 C 
ATOM      6  C   UNL     1       6.726   6.328  16.764  0.00  0.00    +0.000 C 
BRANCH   2   7
ATOM      7  C   UNL     1       8.232   7.752  18.075  0.00  0.00    +0.000 C 
BRANCH   7   8
ATOM      8  C   UNL     1       7.892   9.196  17.663  0.00  0.00    +0.000 C 
BRANCH   8  12
ATOM      9  C   UNL     1      10.370  12.114  19.656  0.00  0.00    +0.000 A 
ATOM     10  C   UNL     1       9.980  10.947  20.314  0.00  0.00    +0.000 A 
ATOM     11  C   UNL     1       9.187   9.998  19.672  0.00  0.00    +0.000 A 
ATOM     12  C   UNL     1       8.756  10.211  18.358  0.00  0.00    +0.000 A 
ATOM     13  C   UNL     1       9.135  11.398  17.704  0.00  0.00    +0.000 A 
ATOM     14  C   UNL     1       9.938  12.342  18.353  0.00  0.00    +0.000 A 
BRANCH   9  16
ATOM     15  C   UNL     1      11.477  14.201  19.759  0.00  0.00    +0.000 C 
ATOM     16  O   UNL     1      11.139  12.973  20.392  0.00  0.00    +0.000 OA
ENDBRANCH   9  16
ENDBRANCH   8  12
ENDBRANCH   7   8
ENDBRANCH   2   7
ENDBRANCH   1   6
BRANCH   1  17
ATOM     17  O   UNL     1       4.450   7.146  17.461  0.00  0.00    +0.000 OA
BRANCH  17  18
ATOM     18  C   UNL     1       3.113   6.657  17.613  0.00  0.00    +0.000 C 
BRANCH  18  19
ATOM     19  C   UNL     1       3.096   5.193  18.084  0.00  0.00    +0.000 A 
ATOM     20  C   UNL     1       2.222   4.251  17.526  0.00  0.00    +0.000 A 
ATOM     21  C   UNL     1       2.387   2.879  17.782  0.00  0.00    +0.000 A 
ATOM     22  C   UNL     1       3.405   2.428  18.632  0.00  0.00    +0.000 A 
ATOM     23  C   UNL     1       3.694   0.962  18.793  0.00  0.00    +0.000 C 
ATOM     24  C   UNL     1       4.178   3.373  19.307  0.00  0.00    +0.000 A 
ATOM     25  C   UNL     1       4.015   4.744  19.050  0.00  0.00    +0.000 A 
ENDBRANCH  18  19
BRANCH  18  26
ATOM     26  C   UNL     1       2.389   7.658  18.535  0.00  0.00    +0.000 A 
ATOM     27  C   UNL     1       2.146   7.337  19.888  0.00  0.00    +0.000 A 
ATOM     28  C   UNL     1       1.363   8.163  20.704  0.00  0.00    +0.000 A 
ATOM     29  C   UNL     1       0.856   9.368  20.215  0.00  0.00    +0.000 A 
ATOM     30  C   UNL     1      -0.034  10.230  21.062  0.00  0.00    +0.000 C 
ATOM     31  C   UNL     1       1.213   9.764  18.922  0.00  0.00    +0.000 A 
ATOM     32  C   UNL     1       1.970   8.922  18.095  0.00  0.00    +0.000 A 
ENDBRANCH  18  26
ENDBRANCH  17  18
ENDBRANCH   1  17
TORSDOF 9
ENDMDL
MODEL 2
REMARK VINA RESULT:      -8.6      1.226      1.524
REMARK  Name = 
REMARK  12 active torsions:
REMARK  status: ('A' for Active; 'I' for Inactive)
REMARK    1  A    between atoms: C_1  and  O_2
REMARK    2  A    between atoms: O_2  and  C_3
REMARK    3  A    between atoms: C_6  and  C_7
REMARK    4  A    between atoms: C_7  and  C_8
REMARK    5  A    between atoms: C_8  and  N_9
REMARK    6  A    between atoms: C_13  and  C_14
REMARK    7  A    between atoms: C_14  and  O_15
REMARK    8  A    between atoms: O_15  and  C_16
REMARK    9  A    between atoms: C_16  and  C_17
REMARK   10  A    between atoms: C_16  and  C_24
REMARK   11  A    between atoms: C_20  and  C_21
REMARK   12  A    between atoms: C_27  and  C_28
REMARK                            x       y       z     vdW  Elec       q    Type
REMARK                         _______ _______ _______ _____ _____    ______ ____
ROOT
ATOM      1  C   UNL     1       4.843   6.796  16.749  0.00  0.00    +0.000 C 
ENDROOT
BRANCH   1   6
ATOM      2  N   UNL     1       6.855   6.489  18.198  0.00  0.00    +0.000 NA
ATOM      3  C   UNL     1       7.143   5.084  18.519  0.00  0.00    +0.000 C 
ATOM      4  C   UNL     1       7.622   4.484  17.217  0.00  0.00    +0.000 C 
ATOM      5  C   UNL     1       6.654   5.089  16.223  0.00  0.00    +0.000 C 
ATOM      6  C   UNL     1       6.355   6.487  16.791  0.00  0.00    +0.000 C 
BRANCH   2   7
ATOM      7  C   UNL     1       8.029   7.373  18.350  0.00  0.00    +0.000 C 
BRANCH   7   8
ATOM      8  C   UNL     1       7.946   8.648  17.490  0.00  0.00    +0.000 C 
BRANCH   8  12
ATOM      9  C   UNL     1       9.594  12.101  19.488  0.00  0.00    +0.000 A 
ATOM     10  C   UNL     1       9.641  10.843  20.090  0.00  0.00    +0.000 A 
ATOM     11  C   UNL     1       9.118   9.724  19.445  0.00  0.00    +0.000 A 
ATOM     12  C   UNL     1       8.521   9.849  18.186  0.00  0.00    +0.000 A 
ATOM     13  C   UNL     1       8.457  11.122  17.590  0.00  0.00    +0.000 A 
ATOM     14  C   UNL     1       8.993  12.240  18.240  0.00  0.00    +0.000 A 
BRANCH   9  16
ATOM     15  C   UNL     1      11.496  13.425  19.958  0.00  0.00    +0.000 C 
ATOM     16  O   UNL     1      10.131  13.123  20.221  0.00  0.00    +0.000 OA
ENDBRANCH   9  16
ENDBRANCH   8  12
ENDBRANCH   7   8
ENDBRANCH   2   7
ENDBRANCH   1   6
BRANCH   1  17
ATOM     17  O   UNL     1       4.200   6.935  18.012  0.00  0.00    +0.000 OA
BRANCH  17  18
ATOM     18  C   UNL     1       2.808   6.606  18.087  0.00  0.00    +0.000 C 
BRANCH  18  19
ATOM     19  C   UNL     1       2.572   5.337  18.924  0.00  0.00    +0.000 A 
ATOM     20  C   UNL     1       3.466   4.941  19.928  0.00  0.00    +0.000 A 
ATOM     21  C   UNL     1       3.116   3.934  20.844  0.00  0.00    +0.000 A 
ATOM     22  C   UNL     1       1.883   3.277  20.747  0.00  0.00    +0.000 A 
ATOM     23  C   UNL     1       1.429   2.311  21.804  0.00  0.00    +0.000 C 
ATOM     24  C   UNL     1       1.059   3.562  19.658  0.00  0.00    +0.000 A 
ATOM     25  C   UNL     1       1.407   4.570  18.743  0.00  0.00    +0.000 A 
ENDBRANCH  18  19
BRANCH  18  26
ATOM     26  C   UNL     1       2.090   7.874  18.589  0.00  0.00    +0.000 A 
ATOM     27  C   UNL     1       1.774   8.022  19.956  0.00  0.00    +0.000 A 
ATOM     28  C   UNL     1       0.994   9.093  20.412  0.00  0.00    +0.000 A 
ATOM     29  C   UNL     1       0.563  10.084  19.528  0.00  0.00    +0.000 A 
ATOM     30  C   UNL     1      -0.323  11.200  19.995  0.00  0.00    +0.000 C 
ATOM     31  C   UNL     1       0.995  10.022  18.199  0.00  0.00    +0.000 A 
ATOM     32  C   UNL     1       1.749   8.934  17.737  0.00  0.00    +0.000 A 
ENDBRANCH  18  26
ENDBRANCH  17  18
ENDBRANCH   1  17
TORSDOF 9
ENDMDL
MODEL 3
REMARK VINA RESULT:      -8.4      1.289      1.789
REMARK  Name = 
REMARK  12 active torsions:
REMARK  status: ('A' for Active; 'I' for Inactive)
REMARK    1  A    between atoms: C_1  and  O_2
REMARK    2  A    between atoms: O_2  and  C_3
REMARK    3  A    between atoms: C_6  and  C_7
REMARK    4  A    between atoms: C_7  and  C_8
REMARK    5  A    between atoms: C_8  and  N_9
REMARK    6  A    between atoms: C_13  and  C_14
REMARK    7  A    between atoms: C_14  and  O_15
REMARK    8  A    between atoms: O_15  and  C_16
REMARK    9  A    between atoms: C_16  and  C_17
REMARK   10  A    between atoms: C_16  and  C_24
REMARK   11  A    between atoms: C_20  and  C_21
REMARK   12  A    between atoms: C_27  and  C_28
REMARK                            x       y       z     vdW  Elec       q    Type
REMARK                         _______ _______ _______ _____ _____    ______ ____
ROOT
ATOM      1  C   UNL     1       4.652   6.625  16.525  0.00  0.00    +0.000 C 
ENDROOT
BRANCH   1   6
ATOM      2  N   UNL     1       6.726   7.043  17.854  0.00  0.00    +0.000 NA
ATOM      3  C   UNL     1       7.090   5.932  18.745  0.00  0.00    +0.000 C 
ATOM      4  C   UNL     1       7.549   4.831  17.817  0.00  0.00    +0.000 C 
ATOM      5  C   UNL     1       6.520   4.909  16.711  0.00  0.00    +0.000 C 
ATOM      6  C   UNL     1       6.177   6.406  16.620  0.00  0.00    +0.000 C 
BRANCH   2   7
ATOM      7  C   UNL     1       7.862   7.933  17.539  0.00  0.00    +0.000 C 
BRANCH   7   8
ATOM      8  C   UNL     1       8.695   8.318  18.775  0.00  0.00    +0.000 C 
BRANCH   8  12
ATOM      9  C   UNL     1       9.418  12.566  19.027  0.00  0.00    +0.000 A 
ATOM     10  C   UNL     1       8.915  12.000  17.855  0.00  0.00    +0.000 A 
ATOM     11  C   UNL     1       8.672  10.630  17.772  0.00  0.00    +0.000 A 
ATOM     12  C   UNL     1       8.945   9.797  18.862  0.00  0.00    +0.000 A 
ATOM     13  C   UNL     1       9.471  10.368  20.036  0.00  0.00    +0.000 A 
ATOM     14  C   UNL     1       9.704  11.745  20.114  0.00  0.00    +0.000 A 
BRANCH   9  16
ATOM     15  C   UNL     1       9.578  14.591  20.237  0.00  0.00    +0.000 C 
ATOM     16  O   UNL     1       9.623  13.917  18.984  0.00  0.00    +0.000 OA
ENDBRANCH   9  16
ENDBRANCH   8  12
ENDBRANCH   7   8
ENDBRANCH   2   7
ENDBRANCH   1   6
BRANCH   1  17
ATOM     17  O   UNL     1       4.031   7.192  17.675  0.00  0.00    +0.000 OA
BRANCH  17  18
ATOM     18  C   UNL     1       2.660   6.861  17.918  0.00  0.00    +0.000 C 
BRANCH  18  19
ATOM     19  C   UNL     1       2.528   5.574  18.750  0.00  0.00    +0.000 A 
ATOM     20  C   UNL     1       3.409   5.284  19.800  0.00  0.00    +0.000 A 
ATOM     21  C   UNL     1       3.131   4.243  20.703  0.00  0.00    +0.000 A 
ATOM     22  C   UNL     1       1.987   3.449  20.547  0.00  0.00    +0.000 A 
ATOM     23  C   UNL     1       1.593   2.438  21.587  0.00  0.00    +0.000 C 
ATOM     24  C   UNL     1       1.193   3.637  19.416  0.00  0.00    +0.000 A 
ATOM     25  C   UNL     1       1.469   4.679  18.515  0.00  0.00    +0.000 A 
ENDBRANCH  18  19
BRANCH  18  26
ATOM     26  C   UNL     1       2.015   8.118  18.536  0.00  0.00    +0.000 A 
ATOM     27  C   UNL     1       1.644   8.136  19.897  0.00  0.00    +0.000 A 
ATOM     28  C   UNL     1       0.925   9.207  20.443  0.00  0.00    +0.000 A 
ATOM     29  C   UNL     1       0.613  10.322  19.664  0.00  0.00    +0.000 A 
ATOM     30  C   UNL     1      -0.209  11.446  20.222  0.00  0.00    +0.000 C 
ATOM     31  C   UNL     1       1.103  10.377  18.355  0.00  0.00    +0.000 A 
ATOM     32  C   UNL     1       1.795   9.292  17.800  0.00  0.00    +0.000 A 
ENDBRANCH  18  26
ENDBRANCH  17  18
ENDBRANCH   1  17
TORSDOF 9
ENDMDL
MODEL 4
REMARK VINA RESULT:      -8.3      0.645      1.353
REMARK  Name = 
REMARK  12 active torsions:
REMARK  status: ('A' for Active; 'I' for Inactive)
REMARK    1  A    between atoms: C_1  and  O_2
REMARK    2  A    between atoms: O_2  and  C_3
REMARK    3  A    between atoms: C_6  and  C_7
REMARK    4  A    between atoms: C_7  and  C_8
REMARK    5  A    between atoms: C_8  and  N_9
REMARK    6  A    between atoms: C_13  and  C_14
REMARK    7  A    between atoms: C_14  and  O_15
REMARK    8  A    between atoms: O_15  and  C_16
REMARK    9  A    between atoms: C_16  and  C_17
REMARK   10  A    between atoms: C_16  and  C_24
REMARK   11  A    between atoms: C_20  and  C_21
REMARK   12  A    between atoms: C_27  and  C_28
REMARK                            x       y       z     vdW  Elec       q    Type
REMARK                         _______ _______ _______ _____ _____    ______ ____
ROOT
ATOM      1  C   UNL     1       5.019   7.009  16.554  0.00  0.00    +0.000 C 
ENDROOT
BRANCH   1   6
ATOM      2  N   UNL     1       6.874   6.741  18.206  0.00  0.00    +0.000 NA
ATOM      3  C   UNL     1       7.082   5.352  18.639  0.00  0.00    +0.000 C 
ATOM      4  C   UNL     1       7.660   4.656  17.429  0.00  0.00    +0.000 C 
ATOM      5  C   UNL     1       6.811   5.222  16.311  0.00  0.00    +0.000 C 
ATOM      6  C   UNL     1       6.508   6.661  16.760  0.00  0.00    +0.000 C 
BRANCH   2   7
ATOM      7  C   UNL     1       8.058   7.599  18.414  0.00  0.00    +0.000 C 
BRANCH   7   8
ATOM      8  C   UNL     1       8.073   8.846  17.510  0.00  0.00    +0.000 C 
BRANCH   8  12
ATOM      9  C   UNL     1       9.640  12.327  19.524  0.00  0.00    +0.000 A 
ATOM     10  C   UNL     1       9.031  12.444  18.274  0.00  0.00    +0.000 A 
ATOM     11  C   UNL     1       8.516  11.325  17.624  0.00  0.00    +0.000 A 
ATOM     12  C   UNL     1       8.617  10.058  18.211  0.00  0.00    +0.000 A 
ATOM     13  C   UNL     1       9.250   9.940  19.462  0.00  0.00    +0.000 A 
ATOM     14  C   UNL     1       9.756  11.071  20.112  0.00  0.00    +0.000 A 
BRANCH   9  16
ATOM     15  C   UNL     1       9.201  14.219  20.872  0.00  0.00    +0.000 C 
ATOM     16  O   UNL     1      10.114  13.493  20.058  0.00  0.00    +0.000 OA
ENDBRANCH   9  16
ENDBRANCH   8  12
ENDBRANCH   7   8
ENDBRANCH   2   7
ENDBRANCH   1   6
BRANCH   1  17
ATOM     17  O   UNL     1       4.271   7.275  17.737  0.00  0.00    +0.000 OA
BRANCH  17  18
ATOM     18  C   UNL     1       2.944   6.745  17.814  0.00  0.00    +0.000 C 
BRANCH  18  19
ATOM     19  C   UNL     1       2.951   5.258  18.207  0.00  0.00    +0.000 A 
ATOM     20  C   UNL     1       2.081   4.335  17.611  0.00  0.00    +0.000 A 
ATOM     21  C   UNL     1       2.266   2.954  17.793  0.00  0.00    +0.000 A 
ATOM     22  C   UNL     1       3.300   2.472  18.606  0.00  0.00    +0.000 A 
ATOM     23  C   UNL     1       3.608   1.004  18.687  0.00  0.00    +0.000 C 
ATOM     24  C   UNL     1       4.070   3.390  19.321  0.00  0.00    +0.000 A 
ATOM     25  C   UNL     1       3.887   4.771  19.138  0.00  0.00    +0.000 A 
ENDBRANCH  18  19
BRANCH  18  26
ATOM     26  C   UNL     1       2.161   7.677  18.760  0.00  0.00    +0.000 A 
ATOM     27  C   UNL     1       1.587   8.870  18.273  0.00  0.00    +0.000 A 
ATOM     28  C   UNL     1       1.000   9.804  19.138  0.00  0.00    +0.000 A 
ATOM     29  C   UNL     1       0.909   9.542  20.506  0.00  0.00    +0.000 A 
ATOM     30  C   UNL     1       0.338  10.561  21.448  0.00  0.00    +0.000 C 
ATOM     31  C   UNL     1       1.344   8.299  20.977  0.00  0.00    +0.000 A 
ATOM     32  C   UNL     1       1.959   7.380  20.115  0.00  0.00    +0.000 A 
ENDBRANCH  18  26
ENDBRANCH  17  18
ENDBRANCH   1  17
TORSDOF 9
ENDMDL
MODEL 5
REMARK VINA RESULT:      -8.3      0.889      1.471
REMARK  Name = 
REMARK  12 active torsions:
REMARK  status: ('A' for Active; 'I' for Inactive)
REMARK    1  A    between atoms: C_1  and  O_2
REMARK    2  A    between atoms: O_2  and  C_3
REMARK    3  A    between atoms: C_6  and  C_7
REMARK    4  A    between atoms: C_7  and  C_8
REMARK    5  A    between atoms: C_8  and  N_9
REMARK    6  A    between atoms: C_13  and  C_14
REMARK    7  A    between atoms: C_14  and  O_15
REMARK    8  A    between atoms: O_15  and  C_16
REMARK    9  A    between atoms: C_16  and  C_17
REMARK   10  A    between atoms: C_16  and  C_24
REMARK   11  A    between atoms: C_20  and  C_21
REMARK   12  A    between atoms: C_27  and  C_28
REMARK                            x       y       z     vdW  Elec       q    Type
REMARK                         _______ _______ _______ _____ _____    ______ ____
ROOT
ATOM      1  C   UNL     1       4.923   6.831  16.324  0.00  0.00    +0.000 C 
ENDROOT
BRANCH   1   6
ATOM      2  N   UNL     1       6.910   7.235  17.784  0.00  0.00    +0.000 NA
ATOM      3  C   UNL     1       7.198   6.129  18.708  0.00  0.00    +0.000 C 
ATOM      4  C   UNL     1       7.702   5.012  17.824  0.00  0.00    +0.000 C 
ATOM      5  C   UNL     1       6.749   5.092  16.651  0.00  0.00    +0.000 C 
ATOM      6  C   UNL     1       6.434   6.592  16.523  0.00  0.00    +0.000 C 
BRANCH   2   7
ATOM      7  C   UNL     1       8.077   8.106  17.536  0.00  0.00    +0.000 C 
BRANCH   7   8
ATOM      8  C   UNL     1       8.616   8.778  18.812  0.00  0.00    +0.000 C 
BRANCH   8  12
ATOM      9  C   UNL     1       9.683  12.912  18.177  0.00  0.00    +0.000 A 
ATOM     10  C   UNL     1       8.568  12.362  17.545  0.00  0.00    +0.000 A 
ATOM     11  C   UNL     1       8.214  11.030  17.753  0.00  0.00    +0.000 A 
ATOM     12  C   UNL     1       8.986  10.217  18.591  0.00  0.00    +0.000 A 
ATOM     13  C   UNL     1      10.122  10.770  19.212  0.00  0.00    +0.000 A 
ATOM     14  C   UNL     1      10.465  12.110  19.004  0.00  0.00    +0.000 A 
BRANCH   9  16
ATOM     15  C   UNL     1      11.147  14.485  17.191  0.00  0.00    +0.000 C 
ATOM     16  O   UNL     1       9.934  14.224  17.887  0.00  0.00    +0.000 OA
ENDBRANCH   9  16
ENDBRANCH   8  12
ENDBRANCH   7   8
ENDBRANCH   2   7
ENDBRANCH   1   6
BRANCH   1  17
ATOM     17  O   UNL     1       4.202   7.252  17.478  0.00  0.00    +0.000 OA
BRANCH  17  18
ATOM     18  C   UNL     1       2.892   6.710  17.676  0.00  0.00    +0.000 C 
BRANCH  18  19
ATOM     19  C   UNL     1       2.952   5.245  18.141  0.00  0.00    +0.000 A 
ATOM     20  C   UNL     1       2.052   4.284  17.661  0.00  0.00    +0.000 A 
ATOM     21  C   UNL     1       2.270   2.915  17.895  0.00  0.00    +0.000 A 
ATOM     22  C   UNL     1       3.372   2.486  18.647  0.00  0.00    +0.000 A 
ATOM     23  C   UNL     1       3.707   1.027  18.776  0.00  0.00    +0.000 C 
ATOM     24  C   UNL     1       4.181   3.447  19.253  0.00  0.00    +0.000 A 
ATOM     25  C   UNL     1       3.964   4.815  19.017  0.00  0.00    +0.000 A 
ENDBRANCH  18  19
BRANCH  18  26
ATOM     26  C   UNL     1       2.162   7.678  18.629  0.00  0.00    +0.000 A 
ATOM     27  C   UNL     1       1.652   8.903  18.149  0.00  0.00    +0.000 A 
ATOM     28  C   UNL     1       1.118   9.862  19.020  0.00  0.00    +0.000 A 
ATOM     29  C   UNL     1       1.016   9.599  20.387  0.00  0.00    +0.000 A 
ATOM     30  C   UNL     1       0.503  10.642  21.335  0.00  0.00    +0.000 C 
ATOM     31  C   UNL     1       1.385   8.331  20.850  0.00  0.00    +0.000 A 
ATOM     32  C   UNL     1       1.948   7.385  19.983  0.00  0.00    +0.000 A 
ENDBRANCH  18  26
ENDBRANCH  17  18
ENDBRANCH   1  17
TORSDOF 9
ENDMDL
MODEL 6
REMARK VINA RESULT:      -8.3      1.334      1.896
REMARK  Name = 
REMARK  12 active torsions:
REMARK  status: ('A' for Active; 'I' for Inactive)
REMARK    1  A    between atoms: C_1  and  O_2
REMARK    2  A    between atoms: O_2  and  C_3
REMARK    3  A    between atoms: C_6  and  C_7
REMARK    4  A    between atoms: C_7  and  C_8
REMARK    5  A    between atoms: C_8  and  N_9
REMARK    6  A    between atoms: C_13  and  C_14
REMARK    7  A    between atoms: C_14  and  O_15
REMARK    8  A    between atoms: O_15  and  C_16
REMARK    9  A    between atoms: C_16  and  C_17
REMARK   10  A    between atoms: C_16  and  C_24
REMARK   11  A    between atoms: C_20  and  C_21
REMARK   12  A    between atoms: C_27  and  C_28
REMARK                            x       y       z     vdW  Elec       q    Type
REMARK                         _______ _______ _______ _____ _____    ______ ____
ROOT
ATOM      1  C   UNL     1       4.650   6.391  16.575  0.00  0.00    +0.000 C 
ENDROOT
BRANCH   1   6
ATOM      2  N   UNL     1       6.710   6.992  17.855  0.00  0.00    +0.000 NA
ATOM      3  C   UNL     1       7.157   5.942  18.782  0.00  0.00    +0.000 C 
ATOM      4  C   UNL     1       7.674   4.838  17.889  0.00  0.00    +0.000 C 
ATOM      5  C   UNL     1       6.628   4.808  16.797  0.00  0.00    +0.000 C 
ATOM      6  C   UNL     1       6.187   6.274  16.655  0.00  0.00    +0.000 C 
BRANCH   2   7
ATOM      7  C   UNL     1       7.782   7.940  17.490  0.00  0.00    +0.000 C 
BRANCH   7   8
ATOM      8  C   UNL     1       8.522   8.523  18.709  0.00  0.00    +0.000 C 
BRANCH   8  12
ATOM      9  C   UNL     1       9.504  12.695  18.205  0.00  0.00    +0.000 A 
ATOM     10  C   UNL     1      10.245  11.892  19.073  0.00  0.00    +0.000 A 
ATOM     11  C   UNL     1       9.937  10.542  19.232  0.00  0.00    +0.000 A 
ATOM     12  C   UNL     1       8.865   9.975  18.534  0.00  0.00    +0.000 A 
ATOM     13  C   UNL     1       8.107  10.792  17.674  0.00  0.00    +0.000 A 
ATOM     14  C   UNL     1       8.429  12.145  17.514  0.00  0.00    +0.000 A 
BRANCH   9  16
ATOM     15  C   UNL     1      10.409  14.558  19.345  0.00  0.00    +0.000 C 
ATOM     16  O   UNL     1       9.895  14.004  18.140  0.00  0.00    +0.000 OA
ENDBRANCH   9  16
ENDBRANCH   8  12
ENDBRANCH   7   8
ENDBRANCH   2   7
ENDBRANCH   1   6
BRANCH   1  17
ATOM     17  O   UNL     1       4.026   7.125  17.625  0.00  0.00    +0.000 OA
BRANCH  17  18
ATOM     18  C   UNL     1       2.650   6.842  17.903  0.00  0.00    +0.000 C 
BRANCH  18  19
ATOM     19  C   UNL     1       2.496   5.573  18.758  0.00  0.00    +0.000 A 
ATOM     20  C   UNL     1       3.224   5.390  19.941  0.00  0.00    +0.000 A 
ATOM     21  C   UNL     1       2.895   4.356  20.834  0.00  0.00    +0.000 A 
ATOM     22  C   UNL     1       1.857   3.462  20.541  0.00  0.00    +0.000 A 
ATOM     23  C   UNL     1       1.390   2.451  21.549  0.00  0.00    +0.000 C 
ATOM     24  C   UNL     1       1.234   3.548  19.295  0.00  0.00    +0.000 A 
ATOM     25  C   UNL     1       1.561   4.584  18.403  0.00  0.00    +0.000 A 
ENDBRANCH  18  19
BRANCH  18  26
ATOM     26  C   UNL     1       2.060   8.129  18.514  0.00  0.00    +0.000 A 
ATOM     27  C   UNL     1       2.017   9.322  17.762  0.00  0.00    +0.000 A 
ATOM     28  C   UNL     1       1.624  10.536  18.341  0.00  0.00    +0.000 A 
ATOM     29  C   UNL     1       1.197  10.581  19.669  0.00  0.00    +0.000 A 
ATOM     30  C   UNL     1       0.832  11.885  20.316  0.00  0.00    +0.000 C 
ATOM     31  C   UNL     1       1.097   9.379  20.378  0.00  0.00    +0.000 A 
ATOM     32  C   UNL     1       1.521   8.171  19.808  0.00  0.00    +0.000 A 
ENDBRANCH  18  26
ENDBRANCH  17  18
ENDBRANCH   1  17
TORSDOF 9
ENDMDL
MODEL 7
REMARK VINA RESULT:      -8.1      1.400      4.437
REMARK  Name = 
REMARK  12 active torsions:
REMARK  status: ('A' for Active; 'I' for Inactive)
REMARK    1  A    between atoms: C_1  and  O_2
REMARK    2  A    between atoms: O_2  and  C_3
REMARK    3  A    between atoms: C_6  and  C_7
REMARK    4  A    between atoms: C_7  and  C_8
REMARK    5  A    between atoms: C_8  and  N_9
REMARK    6  A    between atoms: C_13  and  C_14
REMARK    7  A    between atoms: C_14  and  O_15
REMARK    8  A    between atoms: O_15  and  C_16
REMARK    9  A    between atoms: C_16  and  C_17
REMARK   10  A    between atoms: C_16  and  C_24
REMARK   11  A    between atoms: C_20  and  C_21
REMARK   12  A    between atoms: C_27  and  C_28
REMARK                            x       y       z     vdW  Elec       q    Type
REMARK                         _______ _______ _______ _____ _____    ______ ____
ROOT
ATOM      1  C   UNL     1       4.586   6.108  18.159  0.00  0.00    +0.000 C 
ENDROOT
BRANCH   1   6
ATOM      2  N   UNL     1       7.078   5.954  18.250  0.00  0.00    +0.000 NA
ATOM      3  C   UNL     1       7.616   4.735  17.630  0.00  0.00    +0.000 C 
ATOM      4  C   UNL     1       7.386   4.925  16.148  0.00  0.00    +0.000 C 
ATOM      5  C   UNL     1       5.989   5.507  16.125  0.00  0.00    +0.000 C 
ATOM      6  C   UNL     1       5.911   6.353  17.408  0.00  0.00    +0.000 C 
BRANCH   2   7
ATOM      7  C   UNL     1       8.069   7.044  18.348  0.00  0.00    +0.000 C 
BRANCH   7   8
ATOM      8  C   UNL     1       7.648   8.319  17.592  0.00  0.00    +0.000 C 
BRANCH   8  12
ATOM      9  C   UNL     1       9.602  11.855  19.109  0.00  0.00    +0.000 A 
ATOM     10  C   UNL     1       8.831  11.914  17.948  0.00  0.00    +0.000 A 
ATOM     11  C   UNL     1       8.191  10.777  17.459  0.00  0.00    +0.000 A 
ATOM     12  C   UNL     1       8.327   9.550  18.120  0.00  0.00    +0.000 A 
ATOM     13  C   UNL     1       9.122   9.490  19.280  0.00  0.00    +0.000 A 
ATOM     14  C   UNL     1       9.753  10.639  19.769  0.00  0.00    +0.000 A 
BRANCH   9  16
ATOM     15  C   UNL     1      10.612  13.880  18.424  0.00  0.00    +0.000 C 
ATOM     16  O   UNL     1      10.187  13.033  19.485  0.00  0.00    +0.000 OA
ENDBRANCH   9  16
ENDBRANCH   8  12
ENDBRANCH   7   8
ENDBRANCH   2   7
ENDBRANCH   1   6
BRANCH   1  17
ATOM     17  O   UNL     1       3.741   7.244  18.317  0.00  0.00    +0.000 OA
BRANCH  17  18
ATOM     18  C   UNL     1       2.748   7.193  19.347  0.00  0.00    +0.000 C 
BRANCH  18  19
ATOM     19  C   UNL     1       1.778   8.383  19.256  0.00  0.00    +0.000 A 
ATOM     20  C   UNL     1       1.494   9.008  18.034  0.00  0.00    +0.000 A 
ATOM     21  C   UNL     1       0.428   9.919  17.924  0.00  0.00    +0.000 A 
ATOM     22  C   UNL     1      -0.347  10.250  19.044  0.00  0.00    +0.000 A 
ATOM     23  C   UNL     1      -1.580  11.097  18.914  0.00  0.00    +0.000 C 
ATOM     24  C   UNL     1       0.031   9.747  20.289  0.00  0.00    +0.000 A 
ATOM     25  C   UNL     1       1.094   8.835  20.399  0.00  0.00    +0.000 A 
ENDBRANCH  18  19
BRANCH  18  26
ATOM     26  C   UNL     1       2.098   5.799  19.253  0.00  0.00    +0.000 A 
ATOM     27  C   UNL     1       1.714   5.109  20.422  0.00  0.00    +0.000 A 
ATOM     28  C   UNL     1       1.260   3.784  20.372  0.00  0.00    +0.000 A 
ATOM     29  C   UNL     1       1.111   3.132  19.147  0.00  0.00    +0.000 A 
ATOM     30  C   UNL     1       0.684   1.695  19.086  0.00  0.00    +0.000 C 
ATOM     31  C   UNL     1       1.350   3.856  17.974  0.00  0.00    +0.000 A 
ATOM     32  C   UNL     1       1.835   5.171  18.027  0.00  0.00    +0.000 A 
ENDBRANCH  18  26
ENDBRANCH  17  18
ENDBRANCH   1  17
TORSDOF 9
ENDMDL
MODEL 8
REMARK VINA RESULT:      -8.0      1.300      2.003
REMARK  Name = 
REMARK  12 active torsions:
REMARK  status: ('A' for Active; 'I' for Inactive)
REMARK    1  A    between atoms: C_1  and  O_2
REMARK    2  A    between atoms: O_2  and  C_3
REMARK    3  A    between atoms: C_6  and  C_7
REMARK    4  A    between atoms: C_7  and  C_8
REMARK    5  A    between atoms: C_8  and  N_9
REMARK    6  A    between atoms: C_13  and  C_14
REMARK    7  A    between atoms: C_14  and  O_15
REMARK    8  A    between atoms: O_15  and  C_16
REMARK    9  A    between atoms: C_16  and  C_17
REMARK   10  A    between atoms: C_16  and  C_24
REMARK   11  A    between atoms: C_20  and  C_21
REMARK   12  A    between atoms: C_27  and  C_28
REMARK                            x       y       z     vdW  Elec       q    Type
REMARK                         _______ _______ _______ _____ _____    ______ ____
ROOT
ATOM      1  C   UNL     1       4.673   6.778  16.538  0.00  0.00    +0.000 C 
ENDROOT
BRANCH   1   6
ATOM      2  N   UNL     1       6.558   6.391  18.131  0.00  0.00    +0.000 NA
ATOM      3  C   UNL     1       6.901   4.972  18.306  0.00  0.00    +0.000 C 
ATOM      4  C   UNL     1       7.532   4.565  16.995  0.00  0.00    +0.000 C 
ATOM      5  C   UNL     1       6.624   5.242  15.991  0.00  0.00    +0.000 C 
ATOM      6  C   UNL     1       6.190   6.541  16.692  0.00  0.00    +0.000 C 
BRANCH   2   7
ATOM      7  C   UNL     1       7.657   7.305  18.503  0.00  0.00    +0.000 C 
BRANCH   7   8
ATOM      8  C   UNL     1       7.940   8.382  17.439  0.00  0.00    +0.000 C 
BRANCH   8  12
ATOM      9  C   UNL     1       9.310  12.091  19.168  0.00  0.00    +0.000 A 
ATOM     10  C   UNL     1       8.597  12.088  17.969  0.00  0.00    +0.000 A 
ATOM     11  C   UNL     1       8.145  10.894  17.411  0.00  0.00    +0.000 A 
ATOM     12  C   UNL     1       8.415   9.673  18.041  0.00  0.00    +0.000 A 
ATOM     13  C   UNL     1       9.152   9.678  19.240  0.00  0.00    +0.000 A 
ATOM     14  C   UNL     1       9.595  10.883  19.797  0.00  0.00    +0.000 A 
BRANCH   9  16
ATOM     15  C   UNL     1      10.012  14.277  18.601  0.00  0.00    +0.000 C 
ATOM     16  O   UNL     1       9.708  13.322  19.611  0.00  0.00    +0.000 OA
ENDBRANCH   9  16
ENDBRANCH   8  12
ENDBRANCH   7   8
ENDBRANCH   2   7
ENDBRANCH   1   6
BRANCH   1  17
ATOM     17  O   UNL     1       4.026   7.410  17.639  0.00  0.00    +0.000 OA
BRANCH  17  18
ATOM     18  C   UNL     1       2.650   7.091  17.872  0.00  0.00    +0.000 C 
BRANCH  18  19
ATOM     19  C   UNL     1       2.500   5.772  18.649  0.00  0.00    +0.000 A 
ATOM     20  C   UNL     1       3.182   5.546  19.852  0.00  0.00    +0.000 A 
ATOM     21  C   UNL     1       2.848   4.454  20.672  0.00  0.00    +0.000 A 
ATOM     22  C   UNL     1       1.853   3.548  20.285  0.00  0.00    +0.000 A 
ATOM     23  C   UNL     1       1.375   2.470  21.216  0.00  0.00    +0.000 C 
ATOM     24  C   UNL     1       1.281   3.685  19.020  0.00  0.00    +0.000 A 
ATOM     25  C   UNL     1       1.614   4.777  18.200  0.00  0.00    +0.000 A 
ENDBRANCH  18  19
BRANCH  18  26
ATOM     26  C   UNL     1       2.026   8.331  18.542  0.00  0.00    +0.000 A 
ATOM     27  C   UNL     1       1.986   9.566  17.862  0.00  0.00    +0.000 A 
ATOM     28  C   UNL     1       1.560  10.738  18.502  0.00  0.00    +0.000 A 
ATOM     29  C   UNL     1       1.099  10.698  19.819  0.00  0.00    +0.000 A 
ATOM     30  C   UNL     1       0.700  11.956  20.533  0.00  0.00    +0.000 C 
ATOM     31  C   UNL     1       0.999   9.455  20.452  0.00  0.00    +0.000 A 
ATOM     32  C   UNL     1       1.454   8.289  19.822  0.00  0.00    +0.000 A 
ENDBRANCH  18  26
ENDBRANCH  17  18
ENDBRANCH   1  17
TORSDOF 9
ENDMDL
MODEL 9
REMARK VINA RESULT:      -8.0      2.841      7.061
REMARK  Name = 
REMARK  12 active torsions:
REMARK  status: ('A' for Active; 'I' for Inactive)
REMARK    1  A    between atoms: C_1  and  O_2
REMARK    2  A    between atoms: O_2  and  C_3
REMARK    3  A    between atoms: C_6  and  C_7
REMARK    4  A    between atoms: C_7  and  C_8
REMARK    5  A    between atoms: C_8  and  N_9
REMARK    6  A    between atoms: C_13  and  C_14
REMARK    7  A    between atoms: C_14  and  O_15
REMARK    8  A    between atoms: O_15  and  C_16
REMARK    9  A    between atoms: C_16  and  C_17
REMARK   10  A    between atoms: C_16  and  C_24
REMARK   11  A    between atoms: C_20  and  C_21
REMARK   12  A    between atoms: C_27  and  C_28
REMARK                            x       y       z     vdW  Elec       q    Type
REMARK                         _______ _______ _______ _____ _____    ______ ____
ROOT
ATOM      1  C   UNL     1       3.464   4.017  17.283  0.00  0.00    +0.000 C 
ENDROOT
BRANCH   1   6
ATOM      2  N   UNL     1       2.019   3.805  19.310  0.00  0.00    +0.000 NA
ATOM      3  C   UNL     1       2.112   2.493  19.967  0.00  0.00    +0.000 C 
ATOM      4  C   UNL     1       3.492   2.469  20.582  0.00  0.00    +0.000 C 
ATOM      5  C   UNL     1       4.332   3.082  19.482  0.00  0.00    +0.000 C 
ATOM      6  C   UNL     1       3.397   4.109  18.822  0.00  0.00    +0.000 C 
BRANCH   2   7
ATOM      7  C   UNL     1       1.519   4.869  20.204  0.00  0.00    +0.000 C 
BRANCH   7   8
ATOM      8  C   UNL     1       2.539   5.998  20.439  0.00  0.00    +0.000 C 
BRANCH   8  12
ATOM      9  C   UNL     1       1.123   9.827  19.041  0.00  0.00    +0.000 A 
ATOM     10  C   UNL     1       1.888   9.008  18.210  0.00  0.00    +0.000 A 
ATOM     11  C   UNL     1       2.340   7.767  18.654  0.00  0.00    +0.000 A 
ATOM     12  C   UNL     1       2.046   7.330  19.951  0.00  0.00    +0.000 A 
ATOM     13  C   UNL     1       1.292   8.168  20.793  0.00  0.00    +0.000 A 
ATOM     14  C   UNL     1       0.834   9.409  20.336  0.00  0.00    +0.000 A 
BRANCH   9  16
ATOM     15  C   UNL     1       0.550  12.090  19.419  0.00  0.00    +0.000 C 
ATOM     16  O   UNL     1       0.746  11.024  18.497  0.00  0.00    +0.000 OA
ENDBRANCH   9  16
ENDBRANCH   8  12
ENDBRANCH   7   8
ENDBRANCH   2   7
ENDBRANCH   1   6
BRANCH   1  17
ATOM     17  O   UNL     1       4.249   5.011  16.633  0.00  0.00    +0.000 OA
BRANCH  17  18
ATOM     18  C   UNL     1       5.641   4.736  16.440  0.00  0.00    +0.000 C 
BRANCH  18  19
ATOM     19  C   UNL     1       5.975   4.527  14.953  0.00  0.00    +0.000 A 
ATOM     20  C   UNL     1       7.182   4.976  14.401  0.00  0.00    +0.000 A 
ATOM     21  C   UNL     1       7.582   4.564  13.118  0.00  0.00    +0.000 A 
ATOM     22  C   UNL     1       6.762   3.728  12.349  0.00  0.00    +0.000 A 
ATOM     23  C   UNL     1       7.239   3.153  11.045  0.00  0.00    +0.000 C 
ATOM     24  C   UNL     1       5.494   3.406  12.834  0.00  0.00    +0.000 A 
ATOM     25  C   UNL     1       5.096   3.816  14.118  0.00  0.00    +0.000 A 
ENDBRANCH  18  19
BRANCH  18  26
ATOM     26  C   UNL     1       6.408   5.875  17.139  0.00  0.00    +0.000 A 
ATOM     27  C   UNL     1       6.105   7.223  16.850  0.00  0.00    +0.000 A 
ATOM     28  C   UNL     1       6.884   8.271  17.358  0.00  0.00    +0.000 A 
ATOM     29  C   UNL     1       7.948   8.008  18.224  0.00  0.00    +0.000 A 
ATOM     30  C   UNL     1       8.825   9.117  18.724  0.00  0.00    +0.000 C 
ATOM     31  C   UNL     1       8.164   6.687  18.631  0.00  0.00    +0.000 A 
ATOM     32  C   UNL     1       7.404   5.637  18.097  0.00  0.00    +0.000 A 
ENDBRANCH  18  26
ENDBRANCH  17  18
ENDBRANCH   1  17
TORSDOF 9
ENDMDL
