MODEL 1
REMARK VINA RESULT:      -6.6      0.000      0.000
REMARK  Name = 
REMARK  10 active torsions:
REMARK  status: ('A' for Active; 'I' for Inactive)
REMARK    1  A    between atoms: C_1  and  O_2
REMARK    2  A    between atoms: O_2  and  C_3
REMARK    3  A    between atoms: C_5  and  O_6
REMARK    4  A    between atoms: O_6  and  C_7
REMARK    5  A    between atoms: C_8  and  C_9
REMARK    6  A    between atoms: C_9  and  C_10
REMARK    7  A    between atoms: C_15  and  O_16
REMARK    8  A    between atoms: C_18  and  O_19
REMARK    9  A    between atoms: C_23  and  O_24
REMARK   10  A    between atoms: O_24  and  C_25
REMARK                            x       y       z     vdW  Elec       q    Type
REMARK                         _______ _______ _______ _____ _____    ______ ____
ROOT
ATOM      1  C   UNL     1       2.516   7.269  19.311  0.00  0.00    +0.000 A 
ATOM      2  C   UNL     1       2.577   7.908  18.134  0.00  0.00    +0.000 A 
ATOM      3  O   UNL     1       2.220   9.208  17.889  0.00  0.00    +0.000 OA
ATOM      4  C   UNL     1       1.353   9.792  18.774  0.00  0.00    +0.000 A 
ATOM      5  C   UNL     1       0.792  11.004  18.356  0.00  0.00    +0.000 A 
ATOM      6  C   UNL     1      -0.281  11.524  19.059  0.00  0.00    +0.000 A 
ATOM      7  C   UNL     1      -0.797  10.849  20.159  0.00  0.00    +0.000 A 
ATOM      8  C   UNL     1      -0.172   9.676  20.617  0.00  0.00    +0.000 A 
ATOM      9  C   UNL     1       0.956   9.165  19.958  0.00  0.00    +0.000 A 
ATOM     10  C   UNL     1       1.743   7.954  20.394  0.00  0.00    +0.000 A 
ATOM     11  O   UNL     1       1.735   7.548  21.550  0.00  0.00    +0.000 OA
ENDROOT
BRANCH   6  12
ATOM     12  O   UNL     1      -0.889  12.681  18.666  0.00  0.00    +0.000 OA
ATOM     13  H   UNL     1      -0.218  13.380  18.579  0.00  0.00    +0.000 HD
ENDBRANCH   6  12
BRANCH   8  14
ATOM     14  O   UNL     1      -0.744   8.996  21.653  0.00  0.00    +0.000 OA
ATOM     15  H   UNL     1      -1.693   9.202  21.690  0.00  0.00    +0.000 HD
ENDBRANCH   8  14
BRANCH   1  16
ATOM     16  C   UNL     1       3.065   5.881  19.527  0.00  0.00    +0.000 C 
BRANCH  16  20
ATOM     17  C   UNL     1       5.317   3.843  16.348  0.00  0.00    +0.000 A 
ATOM     18  C   UNL     1       6.004   4.599  17.302  0.00  0.00    +0.000 A 
ATOM     19  C   UNL     1       5.336   5.252  18.351  0.00  0.00    +0.000 A 
ATOM     20  C   UNL     1       3.934   5.166  18.466  0.00  0.00    +0.000 A 
ATOM     21  C   UNL     1       3.251   4.354  17.510  0.00  0.00    +0.000 A 
ATOM     22  C   UNL     1       3.944   3.715  16.462  0.00  0.00    +0.000 A 
BRANCH  17  24
ATOM     23  C   UNL     1       6.087   3.993  14.097  0.00  0.00    +0.000 C 
ATOM     24  O   UNL     1       6.104   3.328  15.354  0.00  0.00    +0.000 OA
ENDBRANCH  17  24
BRANCH  19  25
ATOM     25  O   UNL     1       6.032   5.967  19.293  0.00  0.00    +0.000 OA
ATOM     26  C   UNL     1       7.423   5.674  19.419  0.00  0.00    +0.000 C 
ENDBRANCH  19  25
BRANCH  21  27
ATOM     27  O   UNL     1       1.887   4.250  17.666  0.00  0.00    +0.000 OA
ATOM     28  C   UNL     1       1.389   3.065  18.287  0.00  0.00    +0.000 C 
ENDBRANCH  21  27
ENDBRANCH  16  20
ENDBRANCH   1  16
TORSDOF 7
ENDMDL
MODEL 2
REMARK VINA RESULT:      -6.3      1.915      3.882
REMARK  Name = 
REMARK  10 active torsions:
REMARK  status: ('A' for Active; 'I' for Inactive)
REMARK    1  A    between atoms: C_1  and  O_2
REMARK    2  A    between atoms: O_2  and  C_3
REMARK    3  A    between atoms: C_5  and  O_6
REMARK    4  A    between atoms: O_6  and  C_7
REMARK    5  A    between atoms: C_8  and  C_9
REMARK    6  A    between atoms: C_9  and  C_10
REMARK    7  A    between atoms: C_15  and  O_16
REMARK    8  A    between atoms: C_18  and  O_19
REMARK    9  A    between atoms: C_23  and  O_24
REMARK   10  A    between atoms: O_24  and  C_25
REMARK                            x       y       z     vdW  Elec       q    Type
REMARK                         _______ _______ _______ _____ _____    ______ ____
ROOT
ATOM      1  C   UNL     1       2.205   7.611  18.829  0.00  0.00    +0.000 A 
ATOM      2  C   UNL     1       1.993   7.361  20.130  0.00  0.00    +0.000 A 
ATOM      3  O   UNL     1       1.180   8.067  20.977  0.00  0.00    +0.000 OA
ATOM      4  C   UNL     1       0.880   9.355  20.620  0.00  0.00    +0.000 A 
ATOM      5  C   UNL     1       0.291  10.135  21.622  0.00  0.00    +0.000 A 
ATOM      6  C   UNL     1       0.197  11.504  21.439  0.00  0.00    +0.000 A 
ATOM      7  C   UNL     1       0.688  12.095  20.280  0.00  0.00    +0.000 A 
ATOM      8  C   UNL     1       1.202  11.291  19.247  0.00  0.00    +0.000 A 
ATOM      9  C   UNL     1       1.247   9.895  19.385  0.00  0.00    +0.000 A 
ATOM     10  C   UNL     1       1.718   8.932  18.324  0.00  0.00    +0.000 A 
ATOM     11  O   UNL     1       1.719   9.218  17.133  0.00  0.00    +0.000 OA
ENDROOT
BRANCH   6  12
ATOM     12  O   UNL     1      -0.330  12.312  22.404  0.00  0.00    +0.000 OA
ATOM     13  H   UNL     1      -0.800  11.763  23.056  0.00  0.00    +0.000 HD
ENDBRANCH   6  12
BRANCH   8  14
ATOM     14  O   UNL     1       1.743  11.903  18.154  0.00  0.00    +0.000 OA
ATOM     15  H   UNL     1       2.206  12.711  18.432  0.00  0.00    +0.000 HD
ENDBRANCH   8  14
BRANCH   1  16
ATOM     16  C   UNL     1       3.003   6.698  17.932  0.00  0.00    +0.000 C 
BRANCH  16  20
ATOM     17  C   UNL     1       4.724   2.932  19.412  0.00  0.00    +0.000 A 
ATOM     18  C   UNL     1       3.350   3.013  19.171  0.00  0.00    +0.000 A 
ATOM     19  C   UNL     1       2.751   4.185  18.677  0.00  0.00    +0.000 A 
ATOM     20  C   UNL     1       3.533   5.328  18.415  0.00  0.00    +0.000 A 
ATOM     21  C   UNL     1       4.941   5.215  18.624  0.00  0.00    +0.000 A 
ATOM     22  C   UNL     1       5.515   4.031  19.128  0.00  0.00    +0.000 A 
BRANCH  17  24
ATOM     23  C   UNL     1       4.725   1.458  21.286  0.00  0.00    +0.000 C 
ATOM     24  O   UNL     1       5.139   1.748  19.956  0.00  0.00    +0.000 OA
ENDBRANCH  17  24
BRANCH  19  25
ATOM     25  O   UNL     1       1.404   4.234  18.422  0.00  0.00    +0.000 OA
ATOM     26  C   UNL     1       0.629   3.120  18.864  0.00  0.00    +0.000 C 
ENDBRANCH  19  25
BRANCH  21  27
ATOM     27  O   UNL     1       5.691   6.330  18.321  0.00  0.00    +0.000 OA
ATOM     28  C   UNL     1       7.095   6.145  18.147  0.00  0.00    +0.000 C 
ENDBRANCH  21  27
ENDBRANCH  16  20
ENDBRANCH   1  16
TORSDOF 7
ENDMDL
MODEL 3
REMARK VINA RESULT:      -6.3      3.331      9.551
REMARK  Name = 
REMARK  10 active torsions:
REMARK  status: ('A' for Active; 'I' for Inactive)
REMARK    1  A    between atoms: C_1  and  O_2
REMARK    2  A    between atoms: O_2  and  C_3
REMARK    3  A    between atoms: C_5  and  O_6
REMARK    4  A    between atoms: O_6  and  C_7
REMARK    5  A    between atoms: C_8  and  C_9
REMARK    6  A    between atoms: C_9  and  C_10
REMARK    7  A    between atoms: C_15  and  O_16
REMARK    8  A    between atoms: C_18  and  O_19
REMARK    9  A    between atoms: C_23  and  O_24
REMARK   10  A    between atoms: O_24  and  C_25
REMARK                            x       y       z     vdW  Elec       q    Type
REMARK                         _______ _______ _______ _____ _____    ______ ____
ROOT
ATOM      1  C   UNL     1      -0.478  11.351  20.411  0.00  0.00    +0.000 A 
ATOM      2  C   UNL     1      -0.669  10.433  21.369  0.00  0.00    +0.000 A 
ATOM      3  O   UNL     1       0.155   9.381  21.670  0.00  0.00    +0.000 OA
ATOM      4  C   UNL     1       1.015   8.964  20.688  0.00  0.00    +0.000 A 
ATOM      5  C   UNL     1       1.636   7.731  20.916  0.00  0.00    +0.000 A 
ATOM      6  C   UNL     1       2.306   7.114  19.874  0.00  0.00    +0.000 A 
ATOM      7  C   UNL     1       2.355   7.708  18.618  0.00  0.00    +0.000 A 
ATOM      8  C   UNL     1       1.798   8.984  18.425  0.00  0.00    +0.000 A 
ATOM      9  C   UNL     1       1.169   9.656  19.484  0.00  0.00    +0.000 A 
ATOM     10  C   UNL     1       0.593  11.048  19.411  0.00  0.00    +0.000 A 
ATOM     11  O   UNL     1       0.963  11.867  18.579  0.00  0.00    +0.000 OA
ENDROOT
BRANCH   6  12
ATOM     12  O   UNL     1       2.892   5.892  20.034  0.00  0.00    +0.000 OA
ATOM     13  H   UNL     1       2.202   5.205  20.022  0.00  0.00    +0.000 HD
ENDBRANCH   6  12
BRANCH   8  14
ATOM     14  O   UNL     1       1.795   9.510  17.165  0.00  0.00    +0.000 OA
ATOM     15  H   UNL     1       2.115  10.427  17.197  0.00  0.00    +0.000 HD
ENDBRANCH   8  14
BRANCH   1  16
ATOM     16  C   UNL     1      -1.361  12.562  20.239  0.00  0.00    +0.000 C 
BRANCH  16  20
ATOM     17  C   UNL     1      -5.748  12.416  19.977  0.00  0.00    +0.000 A 
ATOM     18  C   UNL     1      -4.979  12.019  18.880  0.00  0.00    +0.000 A 
ATOM     19  C   UNL     1      -3.574  12.025  18.917  0.00  0.00    +0.000 A 
ATOM     20  C   UNL     1      -2.894  12.445  20.078  0.00  0.00    +0.000 A 
ATOM     21  C   UNL     1      -3.693  12.805  21.206  0.00  0.00    +0.000 A 
ATOM     22  C   UNL     1      -5.101  12.797  21.139  0.00  0.00    +0.000 A 
BRANCH  17  24
ATOM     23  C   UNL     1      -7.697  13.651  19.379  0.00  0.00    +0.000 C 
ATOM     24  O   UNL     1      -7.098  12.418  19.757  0.00  0.00    +0.000 OA
ENDBRANCH  17  24
BRANCH  19  25
ATOM     25  O   UNL     1      -2.839  11.606  17.838  0.00  0.00    +0.000 OA
ATOM     26  C   UNL     1      -2.745  10.196  17.637  0.00  0.00    +0.000 C 
ENDBRANCH  19  25
BRANCH  21  27
ATOM     27  O   UNL     1      -3.009  13.171  22.343  0.00  0.00    +0.000 OA
ATOM     28  C   UNL     1      -3.268  12.423  23.530  0.00  0.00    +0.000 C 
ENDBRANCH  21  27
ENDBRANCH  16  20
ENDBRANCH   1  16
TORSDOF 7
ENDMDL
MODEL 4
REMARK VINA RESULT:      -6.3      3.527      9.762
REMARK  Name = 
REMARK  10 active torsions:
REMARK  status: ('A' for Active; 'I' for Inactive)
REMARK    1  A    between atoms: C_1  and  O_2
REMARK    2  A    between atoms: O_2  and  C_3
REMARK    3  A    between atoms: C_5  and  O_6
REMARK    4  A    between atoms: O_6  and  C_7
REMARK    5  A    between atoms: C_8  and  C_9
REMARK    6  A    between atoms: C_9  and  C_10
REMARK    7  A    between atoms: C_15  and  O_16
REMARK    8  A    between atoms: C_18  and  O_19
REMARK    9  A    between atoms: C_23  and  O_24
REMARK   10  A    between atoms: O_24  and  C_25
REMARK                            x       y       z     vdW  Elec       q    Type
REMARK                         _______ _______ _______ _____ _____    ______ ____
ROOT
ATOM      1  C   UNL     1      -0.954  11.493  20.271  0.00  0.00    +0.000 A 
ATOM      2  C   UNL     1      -1.174  10.567  21.215  0.00  0.00    +0.000 A 
ATOM      3  O   UNL     1      -0.318   9.566  21.594  0.00  0.00    +0.000 OA
ATOM      4  C   UNL     1       0.647   9.199  20.694  0.00  0.00    +0.000 A 
ATOM      5  C   UNL     1       1.318   8.006  20.984  0.00  0.00    +0.000 A 
ATOM      6  C   UNL     1       2.112   7.428  20.008  0.00  0.00    +0.000 A 
ATOM      7  C   UNL     1       2.235   8.022  18.757  0.00  0.00    +0.000 A 
ATOM      8  C   UNL     1       1.623   9.263  18.508  0.00  0.00    +0.000 A 
ATOM      9  C   UNL     1       0.865   9.898  19.504  0.00  0.00    +0.000 A 
ATOM     10  C   UNL     1       0.216  11.253  19.370  0.00  0.00    +0.000 A 
ATOM     11  O   UNL     1       0.608  12.092  18.569  0.00  0.00    +0.000 OA
ENDROOT
BRANCH   6  12
ATOM     12  O   UNL     1       2.752   6.244  20.227  0.00  0.00    +0.000 OA
ATOM     13  H   UNL     1       2.295   5.762  20.939  0.00  0.00    +0.000 HD
ENDBRANCH   6  12
BRANCH   8  14
ATOM     14  O   UNL     1       1.699   9.785  17.249  0.00  0.00    +0.000 OA
ATOM     15  H   UNL     1       1.110  10.556  17.182  0.00  0.00    +0.000 HD
ENDBRANCH   8  14
BRANCH   1  16
ATOM     16  C   UNL     1      -1.889  12.649  20.015  0.00  0.00    +0.000 C 
BRANCH  16  20
ATOM     17  C   UNL     1      -6.234  12.147  20.472  0.00  0.00    +0.000 A 
ATOM     18  C   UNL     1      -5.483  12.658  21.536  0.00  0.00    +0.000 A 
ATOM     19  C   UNL     1      -4.096  12.859  21.436  0.00  0.00    +0.000 A 
ATOM     20  C   UNL     1      -3.414  12.539  20.244  0.00  0.00    +0.000 A 
ATOM     21  C   UNL     1      -4.201  12.061  19.153  0.00  0.00    +0.000 A 
ATOM     22  C   UNL     1      -5.590  11.861  19.282  0.00  0.00    +0.000 A 
BRANCH  17  24
ATOM     23  C   UNL     1      -7.916  11.759  22.116  0.00  0.00    +0.000 C 
ATOM     24  O   UNL     1      -7.557  11.947  20.752  0.00  0.00    +0.000 OA
ENDBRANCH  17  24
BRANCH  19  25
ATOM     25  O   UNL     1      -3.383  13.386  22.482  0.00  0.00    +0.000 OA
ATOM     26  C   UNL     1      -3.416  12.657  23.710  0.00  0.00    +0.000 C 
ENDBRANCH  19  25
BRANCH  21  27
ATOM     27  O   UNL     1      -3.521  11.795  17.984  0.00  0.00    +0.000 OA
ATOM     28  C   UNL     1      -4.300  11.461  16.837  0.00  0.00    +0.000 C 
ENDBRANCH  21  27
ENDBRANCH  16  20
ENDBRANCH   1  16
TORSDOF 7
ENDMDL
MODEL 5
REMARK VINA RESULT:      -6.3      3.176      9.200
REMARK  Name = 
REMARK  10 active torsions:
REMARK  status: ('A' for Active; 'I' for Inactive)
REMARK    1  A    between atoms: C_1  and  O_2
REMARK    2  A    between atoms: O_2  and  C_3
REMARK    3  A    between atoms: C_5  and  O_6
REMARK    4  A    between atoms: O_6  and  C_7
REMARK    5  A    between atoms: C_8  and  C_9
REMARK    6  A    between atoms: C_9  and  C_10
REMARK    7  A    between atoms: C_15  and  O_16
REMARK    8  A    between atoms: C_18  and  O_19
REMARK    9  A    between atoms: C_23  and  O_24
REMARK   10  A    between atoms: O_24  and  C_25
REMARK                            x       y       z     vdW  Elec       q    Type
REMARK                         _______ _______ _______ _____ _____    ______ ____
ROOT
ATOM      1  C   UNL     1      -0.420  10.988  20.077  0.00  0.00    +0.000 A 
ATOM      2  C   UNL     1      -0.714  10.109  21.045  0.00  0.00    +0.000 A 
ATOM      3  O   UNL     1       0.069   9.070  21.473  0.00  0.00    +0.000 OA
ATOM      4  C   UNL     1       1.025   8.613  20.604  0.00  0.00    +0.000 A 
ATOM      5  C   UNL     1       1.612   7.390  20.945  0.00  0.00    +0.000 A 
ATOM      6  C   UNL     1       2.386   6.732  20.004  0.00  0.00    +0.000 A 
ATOM      7  C   UNL     1       2.569   7.276  18.738  0.00  0.00    +0.000 A 
ATOM      8  C   UNL     1       2.041   8.544  18.437  0.00  0.00    +0.000 A 
ATOM      9  C   UNL     1       1.308   9.257  19.397  0.00  0.00    +0.000 A 
ATOM     10  C   UNL     1       0.749  10.646  19.208  0.00  0.00    +0.000 A 
ATOM     11  O   UNL     1       1.208  11.431  18.388  0.00  0.00    +0.000 OA
ENDROOT
BRANCH   6  12
ATOM     12  O   UNL     1       2.946   5.517  20.273  0.00  0.00    +0.000 OA
ATOM     13  H   UNL     1       3.809   5.459  19.828  0.00  0.00    +0.000 HD
ENDBRANCH   6  12
BRANCH   8  14
ATOM     14  O   UNL     1       2.173   9.018  17.164  0.00  0.00    +0.000 OA
ATOM     15  H   UNL     1       2.927   8.582  16.732  0.00  0.00    +0.000 HD
ENDBRANCH   8  14
BRANCH   1  16
ATOM     16  C   UNL     1      -1.274  12.192  19.766  0.00  0.00    +0.000 C 
BRANCH  16  20
ATOM     17  C   UNL     1      -5.443  12.016  18.378  0.00  0.00    +0.000 A 
ATOM     18  C   UNL     1      -4.424  11.516  17.563  0.00  0.00    +0.000 A 
ATOM     19  C   UNL     1      -3.078  11.528  17.966  0.00  0.00    +0.000 A 
ATOM     20  C   UNL     1      -2.715  12.058  19.220  0.00  0.00    +0.000 A 
ATOM     21  C   UNL     1      -3.772  12.523  20.060  0.00  0.00    +0.000 A 
ATOM     22  C   UNL     1      -5.113  12.508  19.629  0.00  0.00    +0.000 A 
BRANCH  17  24
ATOM     23  C   UNL     1      -7.449  13.196  17.863  0.00  0.00    +0.000 C 
ATOM     24  O   UNL     1      -6.689  11.995  17.813  0.00  0.00    +0.000 OA
ENDBRANCH  17  24
BRANCH  19  25
ATOM     25  O   UNL     1      -2.097  11.008  17.161  0.00  0.00    +0.000 OA
ATOM     26  C   UNL     1      -2.522  10.121  16.126  0.00  0.00    +0.000 C 
ENDBRANCH  19  25
BRANCH  21  27
ATOM     27  O   UNL     1      -3.399  12.999  21.299  0.00  0.00    +0.000 OA
ATOM     28  C   UNL     1      -4.296  12.767  22.383  0.00  0.00    +0.000 C 
ENDBRANCH  21  27
ENDBRANCH  16  20
ENDBRANCH   1  16
TORSDOF 7
ENDMDL
MODEL 6
REMARK VINA RESULT:      -6.2      2.409      8.103
REMARK  Name = 
REMARK  10 active torsions:
REMARK  status: ('A' for Active; 'I' for Inactive)
REMARK    1  A    between atoms: C_1  and  O_2
REMARK    2  A    between atoms: O_2  and  C_3
REMARK    3  A    between atoms: C_5  and  O_6
REMARK    4  A    between atoms: O_6  and  C_7
REMARK    5  A    between atoms: C_8  and  C_9
REMARK    6  A    between atoms: C_9  and  C_10
REMARK    7  A    between atoms: C_15  and  O_16
REMARK    8  A    between atoms: C_18  and  O_19
REMARK    9  A    between atoms: C_23  and  O_24
REMARK   10  A    between atoms: O_24  and  C_25
REMARK                            x       y       z     vdW  Elec       q    Type
REMARK                         _______ _______ _______ _____ _____    ______ ____
ROOT
ATOM      1  C   UNL     1       1.617   8.599  19.141  0.00  0.00    +0.000 A 
ATOM      2  C   UNL     1       1.013   8.191  20.266  0.00  0.00    +0.000 A 
ATOM      3  O   UNL     1       1.358   7.110  21.034  0.00  0.00    +0.000 OA
ATOM      4  C   UNL     1       2.088   6.123  20.426  0.00  0.00    +0.000 A 
ATOM      5  C   UNL     1       2.185   4.922  21.137  0.00  0.00    +0.000 A 
ATOM      6  C   UNL     1       2.672   3.798  20.493  0.00  0.00    +0.000 A 
ATOM      7  C   UNL     1       3.052   3.861  19.157  0.00  0.00    +0.000 A 
ATOM      8  C   UNL     1       3.028   5.093  18.479  0.00  0.00    +0.000 A 
ATOM      9  C   UNL     1       2.598   6.258  19.132  0.00  0.00    +0.000 A 
ATOM     10  C   UNL     1       2.588   7.639  18.527  0.00  0.00    +0.000 A 
ATOM     11  O   UNL     1       3.309   7.949  17.587  0.00  0.00    +0.000 OA
ENDROOT
BRANCH   6  12
ATOM     12  O   UNL     1       2.746   2.594  21.130  0.00  0.00    +0.000 OA
ATOM     13  H   UNL     1       1.917   2.105  20.984  0.00  0.00    +0.000 HD
ENDBRANCH   6  12
BRANCH   8  14
ATOM     14  O   UNL     1       3.336   5.110  17.150  0.00  0.00    +0.000 OA
ATOM     15  H   UNL     1       3.654   4.232  16.880  0.00  0.00    +0.000 HD
ENDBRANCH   8  14
BRANCH   1  16
ATOM     16  C   UNL     1       1.265   9.884  18.433  0.00  0.00    +0.000 C 
BRANCH  16  20
ATOM     17  C   UNL     1      -2.076  12.386  19.815  0.00  0.00    +0.000 A 
ATOM     18  C   UNL     1      -0.811  12.551  20.385  0.00  0.00    +0.000 A 
ATOM     19  C   UNL     1       0.296  11.793  19.966  0.00  0.00    +0.000 A 
ATOM     20  C   UNL     1       0.155  10.828  18.949  0.00  0.00    +0.000 A 
ATOM     21  C   UNL     1      -1.133  10.704  18.345  0.00  0.00    +0.000 A 
ATOM     22  C   UNL     1      -2.229  11.470  18.789  0.00  0.00    +0.000 A 
BRANCH  17  24
ATOM     23  C   UNL     1      -4.408  12.788  20.103  0.00  0.00    +0.000 C 
ATOM     24  O   UNL     1      -3.061  13.149  20.380  0.00  0.00    +0.000 OA
ENDBRANCH  17  24
BRANCH  19  25
ATOM     25  O   UNL     1       1.535  11.990  20.521  0.00  0.00    +0.000 OA
ATOM     26  C   UNL     1       2.093  13.297  20.393  0.00  0.00    +0.000 C 
ENDBRANCH  19  25
BRANCH  21  27
ATOM     27  O   UNL     1      -1.239   9.785  17.324  0.00  0.00    +0.000 OA
ATOM     28  C   UNL     1      -2.336   9.934  16.423  0.00  0.00    +0.000 C 
ENDBRANCH  21  27
ENDBRANCH  16  20
ENDBRANCH   1  16
TORSDOF 7
ENDMDL
MODEL 7
REMARK VINA RESULT:      -6.2      2.765      5.333
REMARK  Name = 
REMARK  10 active torsions:
REMARK  status: ('A' for Active; 'I' for Inactive)
REMARK    1  A    between atoms: C_1  and  O_2
REMARK    2  A    between atoms: O_2  and  C_3
REMARK    3  A    between atoms: C_5  and  O_6
REMARK    4  A    between atoms: O_6  and  C_7
REMARK    5  A    between atoms: C_8  and  C_9
REMARK    6  A    between atoms: C_9  and  C_10
REMARK    7  A    between atoms: C_15  and  O_16
REMARK    8  A    between atoms: C_18  and  O_19
REMARK    9  A    between atoms: C_23  and  O_24
REMARK   10  A    between atoms: O_24  and  C_25
REMARK                            x       y       z     vdW  Elec       q    Type
REMARK                         _______ _______ _______ _____ _____    ______ ____
ROOT
ATOM      1  C   UNL     1      -0.249  10.471  18.410  0.00  0.00    +0.000 A 
ATOM      2  C   UNL     1      -0.856   9.764  17.445  0.00  0.00    +0.000 A 
ATOM      3  O   UNL     1      -2.033  10.076  16.819  0.00  0.00    +0.000 OA
ATOM      4  C   UNL     1      -2.882  10.926  17.478  0.00  0.00    +0.000 A 
ATOM      5  C   UNL     1      -4.178  11.005  16.956  0.00  0.00    +0.000 A 
ATOM      6  C   UNL     1      -5.165  11.625  17.703  0.00  0.00    +0.000 A 
ATOM      7  C   UNL     1      -4.873  12.154  18.955  0.00  0.00    +0.000 A 
ATOM      8  C   UNL     1      -3.550  12.140  19.431  0.00  0.00    +0.000 A 
ATOM      9  C   UNL     1      -2.522  11.573  18.662  0.00  0.00    +0.000 A 
ATOM     10  C   UNL     1      -1.062  11.557  19.042  0.00  0.00    +0.000 A 
ATOM     11  O   UNL     1      -0.579  12.364  19.826  0.00  0.00    +0.000 OA
ENDROOT
BRANCH   6  12
ATOM     12  O   UNL     1      -6.452  11.692  17.257  0.00  0.00    +0.000 OA
ATOM     13  H   UNL     1      -6.690  12.624  17.107  0.00  0.00    +0.000 HD
ENDBRANCH   6  12
BRANCH   8  14
ATOM     14  O   UNL     1      -3.307  12.598  20.693  0.00  0.00    +0.000 OA
ATOM     15  H   UNL     1      -3.315  11.851  21.316  0.00  0.00    +0.000 HD
ENDBRANCH   8  14
BRANCH   1  16
ATOM     16  C   UNL     1       1.119  10.132  18.946  0.00  0.00    +0.000 C 
BRANCH  16  20
ATOM     17  C   UNL     1       1.884   6.129  20.598  0.00  0.00    +0.000 A 
ATOM     18  C   UNL     1       2.473   6.498  19.385  0.00  0.00    +0.000 A 
ATOM     19  C   UNL     1       2.280   7.772  18.824  0.00  0.00    +0.000 A 
ATOM     20  C   UNL     1       1.469   8.722  19.476  0.00  0.00    +0.000 A 
ATOM     21  C   UNL     1       0.911   8.346  20.736  0.00  0.00    +0.000 A 
ATOM     22  C   UNL     1       1.114   7.060  21.273  0.00  0.00    +0.000 A 
BRANCH  17  24
ATOM     23  C   UNL     1       1.135   3.867  20.617  0.00  0.00    +0.000 C 
ATOM     24  O   UNL     1       2.114   4.835  20.974  0.00  0.00    +0.000 OA
ENDBRANCH  17  24
BRANCH  19  25
ATOM     25  O   UNL     1       2.889   8.122  17.646  0.00  0.00    +0.000 OA
ATOM     26  C   UNL     1       4.022   7.346  17.256  0.00  0.00    +0.000 C 
ENDBRANCH  19  25
BRANCH  21  27
ATOM     27  O   UNL     1       0.157   9.305  21.376  0.00  0.00    +0.000 OA
ATOM     28  C   UNL     1       0.359   9.464  22.779  0.00  0.00    +0.000 C 
ENDBRANCH  21  27
ENDBRANCH  16  20
ENDBRANCH   1  16
TORSDOF 7
ENDMDL
MODEL 8
REMARK VINA RESULT:      -6.1      3.235      9.435
REMARK  Name = 
REMARK  10 active torsions:
REMARK  status: ('A' for Active; 'I' for Inactive)
REMARK    1  A    between atoms: C_1  and  O_2
REMARK    2  A    between atoms: O_2  and  C_3
REMARK    3  A    between atoms: C_5  and  O_6
REMARK    4  A    between atoms: O_6  and  C_7
REMARK    5  A    between atoms: C_8  and  C_9
REMARK    6  A    between atoms: C_9  and  C_10
REMARK    7  A    between atoms: C_15  and  O_16
REMARK    8  A    between atoms: C_18  and  O_19
REMARK    9  A    between atoms: C_23  and  O_24
REMARK   10  A    between atoms: O_24  and  C_25
REMARK                            x       y       z     vdW  Elec       q    Type
REMARK                         _______ _______ _______ _____ _____    ______ ____
ROOT
ATOM      1  C   UNL     1      -0.086  11.245  21.023  0.00  0.00    +0.000 A 
ATOM      2  C   UNL     1      -0.317  10.175  21.797  0.00  0.00    +0.000 A 
ATOM      3  O   UNL     1       0.416   9.018  21.835  0.00  0.00    +0.000 OA
ATOM      4  C   UNL     1       1.182   8.732  20.735  0.00  0.00    +0.000 A 
ATOM      5  C   UNL     1       1.692   7.430  20.681  0.00  0.00    +0.000 A 
ATOM      6  C   UNL     1       2.248   6.977  19.497  0.00  0.00    +0.000 A 
ATOM      7  C   UNL     1       2.291   7.800  18.378  0.00  0.00    +0.000 A 
ATOM      8  C   UNL     1       1.851   9.132  18.471  0.00  0.00    +0.000 A 
ATOM      9  C   UNL     1       1.343   9.633  19.680  0.00  0.00    +0.000 A 
ATOM     10  C   UNL     1       0.900  11.056  19.913  0.00  0.00    +0.000 A 
ATOM     11  O   UNL     1       1.306  11.989  19.231  0.00  0.00    +0.000 OA
ENDROOT
BRANCH   6  12
ATOM     12  O   UNL     1       2.720   5.702  19.380  0.00  0.00    +0.000 OA
ATOM     13  H   UNL     1       3.126   5.592  18.502  0.00  0.00    +0.000 HD
ENDBRANCH   6  12
BRANCH   8  14
ATOM     14  O   UNL     1       1.837   9.894  17.339  0.00  0.00    +0.000 OA
ATOM     15  H   UNL     1       1.133   9.579  16.746  0.00  0.00    +0.000 HD
ENDBRANCH   8  14
BRANCH   1  16
ATOM     16  C   UNL     1      -0.856  12.536  21.146  0.00  0.00    +0.000 C 
BRANCH  16  20
ATOM     17  C   UNL     1      -5.244  12.509  20.857  0.00  0.00    +0.000 A 
ATOM     18  C   UNL     1      -4.636  12.690  22.103  0.00  0.00    +0.000 A 
ATOM     19  C   UNL     1      -3.240  12.728  22.249  0.00  0.00    +0.000 A 
ATOM     20  C   UNL     1      -2.401  12.577  21.126  0.00  0.00    +0.000 A 
ATOM     21  C   UNL     1      -3.037  12.439  19.855  0.00  0.00    +0.000 A 
ATOM     22  C   UNL     1      -4.440  12.395  19.736  0.00  0.00    +0.000 A 
BRANCH  17  24
ATOM     23  C   UNL     1      -7.203  11.230  20.407  0.00  0.00    +0.000 C 
ATOM     24  O   UNL     1      -6.608  12.426  20.894  0.00  0.00    +0.000 OA
ENDBRANCH  17  24
BRANCH  19  25
ATOM     25  O   UNL     1      -2.665  12.933  23.478  0.00  0.00    +0.000 OA
ATOM     26  C   UNL     1      -2.669  14.273  23.970  0.00  0.00    +0.000 C 
ENDBRANCH  19  25
BRANCH  21  27
ATOM     27  O   UNL     1      -2.199  12.335  18.765  0.00  0.00    +0.000 OA
ATOM     28  C   UNL     1      -2.600  11.456  17.716  0.00  0.00    +0.000 C 
ENDBRANCH  21  27
ENDBRANCH  16  20
ENDBRANCH   1  16
TORSDOF 7
ENDMDL
MODEL 9
REMARK VINA RESULT:      -6.1      1.940      3.792
REMARK  Name = 
REMARK  10 active torsions:
REMARK  status: ('A' for Active; 'I' for Inactive)
REMARK    1  A    between atoms: C_1  and  O_2
REMARK    2  A    between atoms: O_2  and  C_3
REMARK    3  A    between atoms: C_5  and  O_6
REMARK    4  A    between atoms: O_6  and  C_7
REMARK    5  A    between atoms: C_8  and  C_9
REMARK    6  A    between atoms: C_9  and  C_10
REMARK    7  A    between atoms: C_15  and  O_16
REMARK    8  A    between atoms: C_18  and  O_19
REMARK    9  A    between atoms: C_23  and  O_24
REMARK   10  A    between atoms: O_24  and  C_25
REMARK                            x       y       z     vdW  Elec       q    Type
REMARK                         _______ _______ _______ _____ _____    ______ ____
ROOT
ATOM      1  C   UNL     1       1.750   8.181  19.118  0.00  0.00    +0.000 A 
ATOM      2  C   UNL     1       1.854   8.003  20.443  0.00  0.00    +0.000 A 
ATOM      3  O   UNL     1       1.098   8.608  21.412  0.00  0.00    +0.000 OA
ATOM      4  C   UNL     1       0.478   9.782  21.074  0.00  0.00    +0.000 A 
ATOM      5  C   UNL     1      -0.048  10.514  22.144  0.00  0.00    +0.000 A 
ATOM      6  C   UNL     1      -0.452  11.820  21.929  0.00  0.00    +0.000 A 
ATOM      7  C   UNL     1      -0.330  12.397  20.670  0.00  0.00    +0.000 A 
ATOM      8  C   UNL     1       0.122  11.624  19.586  0.00  0.00    +0.000 A 
ATOM      9  C   UNL     1       0.477  10.279  19.769  0.00  0.00    +0.000 A 
ATOM     10  C   UNL     1       0.914   9.340  18.672  0.00  0.00    +0.000 A 
ATOM     11  O   UNL     1       0.622   9.522  17.497  0.00  0.00    +0.000 OA
ENDROOT
BRANCH   6  12
ATOM     12  O   UNL     1      -0.932  12.589  22.949  0.00  0.00    +0.000 OA
ATOM     13  H   UNL     1      -1.796  12.956  22.692  0.00  0.00    +0.000 HD
ENDBRANCH   6  12
BRANCH   8  14
ATOM     14  O   UNL     1       0.301  12.237  18.380  0.00  0.00    +0.000 OA
ATOM     15  H   UNL     1       0.803  11.649  17.790  0.00  0.00    +0.000 HD
ENDBRANCH   8  14
BRANCH   1  16
ATOM     16  C   UNL     1       2.524   7.367  18.111  0.00  0.00    +0.000 C 
BRANCH  16  20
ATOM     17  C   UNL     1       4.763   3.739  19.188  0.00  0.00    +0.000 A 
ATOM     18  C   UNL     1       3.407   3.833  19.513  0.00  0.00    +0.000 A 
ATOM     19  C   UNL     1       2.639   4.960  19.173  0.00  0.00    +0.000 A 
ATOM     20  C   UNL     1       3.228   6.044  18.491  0.00  0.00    +0.000 A 
ATOM     21  C   UNL     1       4.602   5.913  18.127  0.00  0.00    +0.000 A 
ATOM     22  C   UNL     1       5.352   4.776  18.486  0.00  0.00    +0.000 A 
BRANCH  17  24
ATOM     23  C   UNL     1       4.614   1.724  20.453  0.00  0.00    +0.000 C 
ATOM     24  O   UNL     1       5.383   2.610  19.648  0.00  0.00    +0.000 OA
ENDBRANCH  17  24
BRANCH  19  25
ATOM     25  O   UNL     1       1.303   5.021  19.479  0.00  0.00    +0.000 OA
ATOM     26  C   UNL     1       0.791   3.985  20.318  0.00  0.00    +0.000 C 
ENDBRANCH  19  25
BRANCH  21  27
ATOM     27  O   UNL     1       5.147   6.966  17.424  0.00  0.00    +0.000 OA
ATOM     28  C   UNL     1       6.568   7.004  17.303  0.00  0.00    +0.000 C 
ENDBRANCH  21  27
ENDBRANCH  16  20
ENDBRANCH   1  16
TORSDOF 7
ENDMDL
