MODEL 1
REMARK VINA RESULT:      -6.8      0.000      0.000
REMARK  Name = 
REMARK  7 active torsions:
REMARK  status: ('A' for Active; 'I' for Inactive)
REMARK    1  A    between atoms: C_1  and  C_2
REMARK    2  A    between atoms: C_2  and  C_3
REMARK    3  A    between atoms: C_3  and  C_4
REMARK    4  A    between atoms: C_3  and  C_5
REMARK    5  A    between atoms: C_5  and  O_7
REMARK    6  A    between atoms: O_7  and  C_8
REMARK    7  A    between atoms: C_8  and  N_9
REMARK                            x       y       z     vdW  Elec       q    Type
REMARK                         _______ _______ _______ _____ _____    ______ ____
ROOT
ATOM      1  C   UNL     1       4.714   3.403  19.257  0.00  0.00    +0.000 C 
ENDROOT
BRANCH   1   2
ATOM      2  N   UNL     1       3.248   3.385  19.684  0.00  0.00    +0.000 N 
ATOM      3  C   UNL     1       3.136   2.574  20.981  0.00  0.00    +0.000 C 
ATOM      4  C   UNL     1       1.686   2.592  21.457  0.00  0.00    +0.000 C 
ATOM      5  C   UNL     1       0.802   3.386  20.489  0.00  0.00    +0.000 C 
ATOM      6  C   UNL     1       0.910   2.748  19.098  0.00  0.00    +0.000 C 
ATOM      7  C   UNL     1       2.365   2.751  18.613  0.00  0.00    +0.000 C 
ATOM      8  C   UNL     1       1.341   4.817  20.407  0.00  0.00    +0.000 C 
ATOM      9  C   UNL     1       2.788   4.828  19.922  0.00  0.00    +0.000 C 
ENDBRANCH   1   2
BRANCH   1  10
ATOM     10  O   UNL     1       5.009   4.401  18.290  0.00  0.00    +0.000 OA
BRANCH  10  11
ATOM     11  C   UNL     1       5.925   5.322  18.700  0.00  0.00    +0.000 C 
ATOM     12  O   UNL     1       6.553   5.244  19.737  0.00  0.00    +0.000 OA
BRANCH  11  13
ATOM     13  C   UNL     1       5.994   6.484  17.724  0.00  0.00    +0.000 C 
ATOM     14  C   UNL     1       5.148   6.170  16.488  0.00  0.00    +0.000 C 
BRANCH  13  16
ATOM     15  C   UNL     1       7.872   8.290  17.659  0.00  0.00    +0.000 C 
ATOM     16  C   UNL     1       7.449   6.852  17.377  0.00  0.00    +0.000 C 
ENDBRANCH  13  16
ENDBRANCH  11  13
ENDBRANCH  10  11
ENDBRANCH   1  10
TORSDOF 5
ENDMDL
MODEL 2
REMARK VINA RESULT:      -6.7      0.899      2.130
REMARK  Name = 
REMARK  7 active torsions:
REMARK  status: ('A' for Active; 'I' for Inactive)
REMARK    1  A    between atoms: C_1  and  C_2
REMARK    2  A    between atoms: C_2  and  C_3
REMARK    3  A    between atoms: C_3  and  C_4
REMARK    4  A    between atoms: C_3  and  C_5
REMARK    5  A    between atoms: C_5  and  O_7
REMARK    6  A    between atoms: O_7  and  C_8
REMARK    7  A    between atoms: C_8  and  N_9
REMARK                            x       y       z     vdW  Elec       q    Type
REMARK                         _______ _______ _______ _____ _____    ______ ____
ROOT
ATOM      1  C   UNL     1       4.797   3.360  19.317  0.00  0.00    +0.000 C 
ENDROOT
BRANCH   1   2
ATOM      2  N   UNL     1       3.345   3.455  19.778  0.00  0.00    +0.000 N 
ATOM      3  C   UNL     1       3.023   4.931  20.046  0.00  0.00    +0.000 C 
ATOM      4  C   UNL     1       1.557   5.056  20.454  0.00  0.00    +0.000 C 
ATOM      5  C   UNL     1       0.881   3.680  20.489  0.00  0.00    +0.000 C 
ATOM      6  C   UNL     1       1.645   2.789  21.476  0.00  0.00    +0.000 C 
ATOM      7  C   UNL     1       3.112   2.648  21.052  0.00  0.00    +0.000 C 
ATOM      8  C   UNL     1       0.982   3.056  19.094  0.00  0.00    +0.000 C 
ATOM      9  C   UNL     1       2.440   2.910  18.668  0.00  0.00    +0.000 C 
ENDBRANCH   1   2
BRANCH   1  10
ATOM     10  O   UNL     1       5.186   4.418  18.451  0.00  0.00    +0.000 OA
BRANCH  10  11
ATOM     11  C   UNL     1       6.398   4.965  18.747  0.00  0.00    +0.000 C 
ATOM     12  O   UNL     1       6.754   5.266  19.868  0.00  0.00    +0.000 OA
BRANCH  11  13
ATOM     13  C   UNL     1       7.201   5.209  17.482  0.00  0.00    +0.000 C 
ATOM     14  C   UNL     1       7.270   6.712  17.198  0.00  0.00    +0.000 C 
BRANCH  13  16
ATOM     15  C   UNL     1       6.088   5.204  15.126  0.00  0.00    +0.000 C 
ATOM     16  C   UNL     1       6.653   4.399  16.292  0.00  0.00    +0.000 C 
ENDBRANCH  13  16
ENDBRANCH  11  13
ENDBRANCH  10  11
ENDBRANCH   1  10
TORSDOF 5
ENDMDL
MODEL 3
REMARK VINA RESULT:      -6.7      1.223      2.144
REMARK  Name = 
REMARK  7 active torsions:
REMARK  status: ('A' for Active; 'I' for Inactive)
REMARK    1  A    between atoms: C_1  and  C_2
REMARK    2  A    between atoms: C_2  and  C_3
REMARK    3  A    between atoms: C_3  and  C_4
REMARK    4  A    between atoms: C_3  and  C_5
REMARK    5  A    between atoms: C_5  and  O_7
REMARK    6  A    between atoms: O_7  and  C_8
REMARK    7  A    between atoms: C_8  and  N_9
REMARK                            x       y       z     vdW  Elec       q    Type
REMARK                         _______ _______ _______ _____ _____    ______ ____
ROOT
ATOM      1  C   UNL     1       4.756   3.112  19.335  0.00  0.00    +0.000 C 
ENDROOT
BRANCH   1   2
ATOM      2  N   UNL     1       3.311   3.324  19.780  0.00  0.00    +0.000 N 
ATOM      3  C   UNL     1       3.111   4.819  20.061  0.00  0.00    +0.000 C 
ATOM      4  C   UNL     1       1.656   5.062  20.453  0.00  0.00    +0.000 C 
ATOM      5  C   UNL     1       0.866   3.749  20.466  0.00  0.00    +0.000 C 
ATOM      6  C   UNL     1       1.540   2.786  21.451  0.00  0.00    +0.000 C 
ATOM      7  C   UNL     1       2.996   2.526  21.042  0.00  0.00    +0.000 C 
ATOM      8  C   UNL     1       0.932   3.133  19.065  0.00  0.00    +0.000 C 
ATOM      9  C   UNL     1       2.378   2.868  18.653  0.00  0.00    +0.000 C 
ENDBRANCH   1   2
BRANCH   1  10
ATOM     10  O   UNL     1       5.518   4.311  19.295  0.00  0.00    +0.000 OA
BRANCH  10  11
ATOM     11  C   UNL     1       6.214   4.491  18.138  0.00  0.00    +0.000 C 
ATOM     12  O   UNL     1       7.423   4.415  18.052  0.00  0.00    +0.000 OA
BRANCH  11  13
ATOM     13  C   UNL     1       5.281   4.871  17.002  0.00  0.00    +0.000 C 
ATOM     14  C   UNL     1       5.699   4.136  15.725  0.00  0.00    +0.000 C 
BRANCH  13  16
ATOM     15  C   UNL     1       3.976   7.090  17.407  0.00  0.00    +0.000 C 
ATOM     16  C   UNL     1       5.200   6.398  16.815  0.00  0.00    +0.000 C 
ENDBRANCH  13  16
ENDBRANCH  11  13
ENDBRANCH  10  11
ENDBRANCH   1  10
TORSDOF 5
ENDMDL
MODEL 4
REMARK VINA RESULT:      -6.7      1.257      2.353
REMARK  Name = 
REMARK  7 active torsions:
REMARK  status: ('A' for Active; 'I' for Inactive)
REMARK    1  A    between atoms: C_1  and  C_2
REMARK    2  A    between atoms: C_2  and  C_3
REMARK    3  A    between atoms: C_3  and  C_4
REMARK    4  A    between atoms: C_3  and  C_5
REMARK    5  A    between atoms: C_5  and  O_7
REMARK    6  A    between atoms: O_7  and  C_8
REMARK    7  A    between atoms: C_8  and  N_9
REMARK                            x       y       z     vdW  Elec       q    Type
REMARK                         _______ _______ _______ _____ _____    ______ ____
ROOT
ATOM      1  C   UNL     1       4.535   3.355  18.515  0.00  0.00    +0.000 C 
ENDROOT
BRANCH   1   2
ATOM      2  N   UNL     1       3.259   3.457  19.349  0.00  0.00    +0.000 N 
ATOM      3  C   UNL     1       2.104   2.864  18.532  0.00  0.00    +0.000 C 
ATOM      4  C   UNL     1       0.829   2.904  19.371  0.00  0.00    +0.000 C 
ATOM      5  C   UNL     1       1.095   3.538  20.741  0.00  0.00    +0.000 C 
ATOM      6  C   UNL     1       1.646   4.952  20.523  0.00  0.00    +0.000 C 
ATOM      7  C   UNL     1       2.939   4.908  19.699  0.00  0.00    +0.000 C 
ATOM      8  C   UNL     1       2.164   2.707  21.457  0.00  0.00    +0.000 C 
ATOM      9  C   UNL     1       3.455   2.661  20.644  0.00  0.00    +0.000 C 
ENDBRANCH   1   2
BRANCH   1  10
ATOM     10  O   UNL     1       4.840   4.545  17.801  0.00  0.00    +0.000 OA
BRANCH  10  11
ATOM     11  C   UNL     1       6.174   4.775  17.645  0.00  0.00    +0.000 C 
ATOM     12  O   UNL     1       7.020   4.449  18.452  0.00  0.00    +0.000 OA
BRANCH  11  13
ATOM     13  C   UNL     1       6.439   5.555  16.369  0.00  0.00    +0.000 C 
ATOM     14  C   UNL     1       5.185   6.337  15.972  0.00  0.00    +0.000 C 
BRANCH  13  16
ATOM     15  C   UNL     1       5.919   4.129  14.251  0.00  0.00    +0.000 C 
ATOM     16  C   UNL     1       6.959   4.643  15.241  0.00  0.00    +0.000 C 
ENDBRANCH  13  16
ENDBRANCH  11  13
ENDBRANCH  10  11
ENDBRANCH   1  10
TORSDOF 5
ENDMDL
MODEL 5
REMARK VINA RESULT:      -6.7      1.239      1.786
REMARK  Name = 
REMARK  7 active torsions:
REMARK  status: ('A' for Active; 'I' for Inactive)
REMARK    1  A    between atoms: C_1  and  C_2
REMARK    2  A    between atoms: C_2  and  C_3
REMARK    3  A    between atoms: C_3  and  C_4
REMARK    4  A    between atoms: C_3  and  C_5
REMARK    5  A    between atoms: C_5  and  O_7
REMARK    6  A    between atoms: O_7  and  C_8
REMARK    7  A    between atoms: C_8  and  N_9
REMARK                            x       y       z     vdW  Elec       q    Type
REMARK                         _______ _______ _______ _____ _____    ______ ____
ROOT
ATOM      1  C   UNL     1       4.796   3.416  19.003  0.00  0.00    +0.000 C 
ENDROOT
BRANCH   1   2
ATOM      2  N   UNL     1       3.371   3.523  19.542  0.00  0.00    +0.000 N 
ATOM      3  C   UNL     1       3.262   2.636  20.789  0.00  0.00    +0.000 C 
ATOM      4  C   UNL     1       1.860   2.773  21.378  0.00  0.00    +0.000 C 
ATOM      5  C   UNL     1       1.004   3.725  20.535  0.00  0.00    +0.000 C 
ATOM      6  C   UNL     1       0.940   3.183  19.103  0.00  0.00    +0.000 C 
ATOM      7  C   UNL     1       2.348   3.066  18.506  0.00  0.00    +0.000 C 
ATOM      8  C   UNL     1       1.692   5.093  20.504  0.00  0.00    +0.000 C 
ATOM      9  C   UNL     1       3.093   4.986  19.908  0.00  0.00    +0.000 C 
ENDBRANCH   1   2
BRANCH   1  10
ATOM     10  O   UNL     1       5.015   4.186  17.829  0.00  0.00    +0.000 OA
BRANCH  10  11
ATOM     11  C   UNL     1       6.292   4.640  17.690  0.00  0.00    +0.000 C 
ATOM     12  O   UNL     1       7.173   4.457  18.505  0.00  0.00    +0.000 OA
BRANCH  11  13
ATOM     13  C   UNL     1       6.435   5.461  16.421  0.00  0.00    +0.000 C 
ATOM     14  C   UNL     1       5.118   6.180  16.120  0.00  0.00    +0.000 C 
BRANCH  13  16
ATOM     15  C   UNL     1       5.886   4.191  14.212  0.00  0.00    +0.000 C 
ATOM     16  C   UNL     1       6.934   4.606  15.240  0.00  0.00    +0.000 C 
ENDBRANCH  13  16
ENDBRANCH  11  13
ENDBRANCH  10  11
ENDBRANCH   1  10
TORSDOF 5
ENDMDL
MODEL 6
REMARK VINA RESULT:      -6.7      1.376      1.939
REMARK  Name = 
REMARK  7 active torsions:
REMARK  status: ('A' for Active; 'I' for Inactive)
REMARK    1  A    between atoms: C_1  and  C_2
REMARK    2  A    between atoms: C_2  and  C_3
REMARK    3  A    between atoms: C_3  and  C_4
REMARK    4  A    between atoms: C_3  and  C_5
REMARK    5  A    between atoms: C_5  and  O_7
REMARK    6  A    between atoms: O_7  and  C_8
REMARK    7  A    between atoms: C_8  and  N_9
REMARK                            x       y       z     vdW  Elec       q    Type
REMARK                         _______ _______ _______ _____ _____    ______ ____
ROOT
ATOM      1  C   UNL     1       5.018   3.991  19.400  0.00  0.00    +0.000 C 
ENDROOT
BRANCH   1   2
ATOM      2  N   UNL     1       3.531   3.789  19.120  0.00  0.00    +0.000 N 
ATOM      3  C   UNL     1       3.290   2.297  18.860  0.00  0.00    +0.000 C 
ATOM      4  C   UNL     1       1.798   2.064  18.635  0.00  0.00    +0.000 C 
ATOM      5  C   UNL     1       1.021   3.382  18.715  0.00  0.00    +0.000 C 
ATOM      6  C   UNL     1       1.585   4.345  17.663  0.00  0.00    +0.000 C 
ATOM      7  C   UNL     1       3.079   4.594  17.905  0.00  0.00    +0.000 C 
ATOM      8  C   UNL     1       1.249   3.993  20.101  0.00  0.00    +0.000 C 
ATOM      9  C   UNL     1       2.734   4.248  20.347  0.00  0.00    +0.000 C 
ENDBRANCH   1   2
BRANCH   1  10
ATOM     10  O   UNL     1       5.442   5.340  19.256  0.00  0.00    +0.000 OA
BRANCH  10  11
ATOM     11  C   UNL     1       6.793   5.495  19.181  0.00  0.00    +0.000 C 
ATOM     12  O   UNL     1       7.541   5.429  20.136  0.00  0.00    +0.000 OA
BRANCH  11  13
ATOM     13  C   UNL     1       7.219   5.832  17.763  0.00  0.00    +0.000 C 
ATOM     14  C   UNL     1       6.298   6.914  17.192  0.00  0.00    +0.000 C 
BRANCH  13  16
ATOM     15  C   UNL     1       6.939   4.766  15.401  0.00  0.00    +0.000 C 
ATOM     16  C   UNL     1       7.289   4.576  16.874  0.00  0.00    +0.000 C 
ENDBRANCH  13  16
ENDBRANCH  11  13
ENDBRANCH  10  11
ENDBRANCH   1  10
TORSDOF 5
ENDMDL
MODEL 7
REMARK VINA RESULT:      -6.6      0.907      2.080
REMARK  Name = 
REMARK  7 active torsions:
REMARK  status: ('A' for Active; 'I' for Inactive)
REMARK    1  A    between atoms: C_1  and  C_2
REMARK    2  A    between atoms: C_2  and  C_3
REMARK    3  A    between atoms: C_3  and  C_4
REMARK    4  A    between atoms: C_3  and  C_5
REMARK    5  A    between atoms: C_5  and  O_7
REMARK    6  A    between atoms: O_7  and  C_8
REMARK    7  A    between atoms: C_8  and  N_9
REMARK                            x       y       z     vdW  Elec       q    Type
REMARK                         _______ _______ _______ _____ _____    ______ ____
ROOT
ATOM      1  C   UNL     1       5.071   4.101  19.150  0.00  0.00    +0.000 C 
ENDROOT
BRANCH   1   2
ATOM      2  N   UNL     1       3.579   3.906  19.405  0.00  0.00    +0.000 N 
ATOM      3  C   UNL     1       3.056   5.137  20.156  0.00  0.00    +0.000 C 
ATOM      4  C   UNL     1       1.552   4.989  20.371  0.00  0.00    +0.000 C 
ATOM      5  C   UNL     1       1.046   3.661  19.795  0.00  0.00    +0.000 C 
ATOM      6  C   UNL     1       1.807   2.516  20.474  0.00  0.00    +0.000 C 
ATOM      7  C   UNL     1       3.316   2.655  20.239  0.00  0.00    +0.000 C 
ATOM      8  C   UNL     1       1.363   3.632  18.297  0.00  0.00    +0.000 C 
ATOM      9  C   UNL     1       2.864   3.767  18.056  0.00  0.00    +0.000 C 
ENDBRANCH   1   2
BRANCH   1  10
ATOM     10  O   UNL     1       5.454   5.466  19.048  0.00  0.00    +0.000 OA
BRANCH  10  11
ATOM     11  C   UNL     1       6.783   5.657  18.818  0.00  0.00    +0.000 C 
ATOM     12  O   UNL     1       7.662   5.332  19.591  0.00  0.00    +0.000 OA
BRANCH  11  13
ATOM     13  C   UNL     1       7.002   6.392  17.508  0.00  0.00    +0.000 C 
ATOM     14  C   UNL     1       7.779   7.686  17.766  0.00  0.00    +0.000 C 
BRANCH  13  16
ATOM     15  C   UNL     1       5.417   5.739  15.545  0.00  0.00    +0.000 C 
ATOM     16  C   UNL     1       5.678   6.629  16.757  0.00  0.00    +0.000 C 
ENDBRANCH  13  16
ENDBRANCH  11  13
ENDBRANCH  10  11
ENDBRANCH   1  10
TORSDOF 5
ENDMDL
MODEL 8
REMARK VINA RESULT:      -6.6      1.314      2.530
REMARK  Name = 
REMARK  7 active torsions:
REMARK  status: ('A' for Active; 'I' for Inactive)
REMARK    1  A    between atoms: C_1  and  C_2
REMARK    2  A    between atoms: C_2  and  C_3
REMARK    3  A    between atoms: C_3  and  C_4
REMARK    4  A    between atoms: C_3  and  C_5
REMARK    5  A    between atoms: C_5  and  O_7
REMARK    6  A    between atoms: O_7  and  C_8
REMARK    7  A    between atoms: C_8  and  N_9
REMARK                            x       y       z     vdW  Elec       q    Type
REMARK                         _______ _______ _______ _____ _____    ______ ____
ROOT
ATOM      1  C   UNL     1       4.422   5.337  19.615  0.00  0.00    +0.000 C 
ENDROOT
BRANCH   1   2
ATOM      2  N   UNL     1       3.208   4.463  19.310  0.00  0.00    +0.000 N 
ATOM      3  C   UNL     1       2.550   4.987  18.027  0.00  0.00    +0.000 C 
ATOM      4  C   UNL     1       1.366   4.090  17.671  0.00  0.00    +0.000 C 
ATOM      5  C   UNL     1       1.195   2.975  18.708  0.00  0.00    +0.000 C 
ATOM      6  C   UNL     1       0.994   3.617  20.086  0.00  0.00    +0.000 C 
ATOM      7  C   UNL     1       2.194   4.500  20.450  0.00  0.00    +0.000 C 
ATOM      8  C   UNL     1       2.483   2.147  18.743  0.00  0.00    +0.000 C 
ATOM      9  C   UNL     1       3.682   3.019  19.109  0.00  0.00    +0.000 C 
ENDBRANCH   1   2
BRANCH   1  10
ATOM     10  O   UNL     1       5.244   5.578  18.482  0.00  0.00    +0.000 OA
BRANCH  10  11
ATOM     11  C   UNL     1       6.578   5.607  18.756  0.00  0.00    +0.000 C 
ATOM     12  O   UNL     1       7.057   5.339  19.839  0.00  0.00    +0.000 OA
BRANCH  11  13
ATOM     13  C   UNL     1       7.366   6.088  17.550  0.00  0.00    +0.000 C 
ATOM     14  C   UNL     1       7.647   7.587  17.682  0.00  0.00    +0.000 C 
BRANCH  13  16
ATOM     15  C   UNL     1       6.864   4.298  15.722  0.00  0.00    +0.000 C 
ATOM     16  C   UNL     1       6.663   5.724  16.227  0.00  0.00    +0.000 C 
ENDBRANCH  13  16
ENDBRANCH  11  13
ENDBRANCH  10  11
ENDBRANCH   1  10
TORSDOF 5
ENDMDL
MODEL 9
REMARK VINA RESULT:      -6.6      1.146      2.075
REMARK  Name = 
REMARK  7 active torsions:
REMARK  status: ('A' for Active; 'I' for Inactive)
REMARK    1  A    between atoms: C_1  and  C_2
REMARK    2  A    between atoms: C_2  and  C_3
REMARK    3  A    between atoms: C_3  and  C_4
REMARK    4  A    between atoms: C_3  and  C_5
REMARK    5  A    between atoms: C_5  and  O_7
REMARK    6  A    between atoms: O_7  and  C_8
REMARK    7  A    between atoms: C_8  and  N_9
REMARK                            x       y       z     vdW  Elec       q    Type
REMARK                         _______ _______ _______ _____ _____    ______ ____
ROOT
ATOM      1  C   UNL     1       5.010   3.966  19.207  0.00  0.00    +0.000 C 
ENDROOT
BRANCH   1   2
ATOM      2  N   UNL     1       3.503   3.733  19.130  0.00  0.00    +0.000 N 
ATOM      3  C   UNL     1       2.979   4.403  17.854  0.00  0.00    +0.000 C 
ATOM      4  C   UNL     1       1.481   4.133  17.727  0.00  0.00    +0.000 C 
ATOM      5  C   UNL     1       0.973   3.306  18.913  0.00  0.00    +0.000 C 
ATOM      6  C   UNL     1       1.279   4.072  20.207  0.00  0.00    +0.000 C 
ATOM      7  C   UNL     1       2.786   4.322  20.342  0.00  0.00    +0.000 C 
ATOM      8  C   UNL     1       1.741   1.981  18.942  0.00  0.00    +0.000 C 
ATOM      9  C   UNL     1       3.241   2.223  19.080  0.00  0.00    +0.000 C 
ENDBRANCH   1   2
BRANCH   1  10
ATOM     10  O   UNL     1       5.610   4.205  17.942  0.00  0.00    +0.000 OA
BRANCH  10  11
ATOM     11  C   UNL     1       6.798   4.869  18.004  0.00  0.00    +0.000 C 
ATOM     12  O   UNL     1       7.878   4.324  18.115  0.00  0.00    +0.000 OA
BRANCH  11  13
ATOM     13  C   UNL     1       6.578   6.371  17.991  0.00  0.00    +0.000 C 
ATOM     14  C   UNL     1       5.701   6.753  16.795  0.00  0.00    +0.000 C 
BRANCH  13  16
ATOM     15  C   UNL     1       7.837   8.636  17.720  0.00  0.00    +0.000 C 
ATOM     16  C   UNL     1       7.910   7.144  18.029  0.00  0.00    +0.000 C 
ENDBRANCH  13  16
ENDBRANCH  11  13
ENDBRANCH  10  11
ENDBRANCH   1  10
TORSDOF 5
ENDMDL
