MODEL 1
REMARK VINA RESULT:      -7.9      0.000      0.000
REMARK  Name = 
REMARK  7 active torsions:
REMARK  status: ('A' for Active; 'I' for Inactive)
REMARK    1  A    between atoms: C_1  and  O_2
REMARK    2  A    between atoms: O_2  and  C_3
REMARK    3  A    between atoms: C_6  and  C_7
REMARK    4  A    between atoms: N_11  and  C_12
REMARK    5  A    between atoms: C_15  and  N_16
REMARK    6  A    between atoms: C_21  and  O_22
REMARK    7  A    between atoms: O_22  and  C_23
REMARK                            x       y       z     vdW  Elec       q    Type
REMARK                         _______ _______ _______ _____ _____    ______ ____
ROOT
ATOM      1  C   UNL     1       3.864   5.075  18.584  0.00  0.00    +0.000 A 
ATOM      2  C   UNL     1       3.393   3.992  19.295  0.00  0.00    +0.000 A 
ATOM      3  S   UNL     1       2.346   4.526  20.542  0.00  0.00    +0.000 S 
ATOM      4  C   UNL     1       2.526   6.152  19.995  0.00  0.00    +0.000 A 
ATOM      5  N   UNL     1       1.913   7.157  20.661  0.00  0.00    +0.000 N 
ATOM      6  N   UNL     1       3.311   6.289  18.949  0.00  0.00    +0.000 NA
ATOM      7  H   UNL     1       1.489   6.941  21.554  0.00  0.00    +0.000 HD
ENDROOT
BRANCH   1  11
ATOM      8  C   UNL     1       6.735   5.030  15.419  0.00  0.00    +0.000 A 
ATOM      9  C   UNL     1       5.755   4.030  15.514  0.00  0.00    +0.000 A 
ATOM     10  C   UNL     1       4.831   4.032  16.561  0.00  0.00    +0.000 A 
ATOM     11  C   UNL     1       4.899   5.005  17.562  0.00  0.00    +0.000 A 
ATOM     12  C   UNL     1       5.931   5.948  17.507  0.00  0.00    +0.000 A 
ATOM     13  C   UNL     1       6.858   5.969  16.452  0.00  0.00    +0.000 A 
BRANCH   8  15
ATOM     14  C   UNL     1       7.058   4.529  13.132  0.00  0.00    +0.000 C 
ATOM     15  O   UNL     1       7.579   5.081  14.342  0.00  0.00    +0.000 OA
ENDBRANCH   8  15
BRANCH  13  16
ATOM     16  O   UNL     1       7.764   6.986  16.598  0.00  0.00    +0.000 OA
ATOM     17  C   UNL     1       7.671   7.832  17.731  0.00  0.00    +0.000 C 
ENDBRANCH  13  16
ENDBRANCH   1  11
BRANCH   5  18
ATOM     18  C   UNL     1       1.437   8.351  20.091  0.00  0.00    +0.000 A 
ATOM     19  C   UNL     1       0.573   9.222  20.763  0.00  0.00    +0.000 A 
ATOM     20  C   UNL     1       0.125  10.399  20.160  0.00  0.00    +0.000 A 
ATOM     21  C   UNL     1       0.537  10.744  18.874  0.00  0.00    +0.000 A 
ATOM     22  C   UNL     1       1.314   9.830  18.161  0.00  0.00    +0.000 A 
ATOM     23  C   UNL     1       1.782   8.662  18.771  0.00  0.00    +0.000 A 
BRANCH  21  24
ATOM     24  N   UNL     1      -0.013  11.860  18.233  0.00  0.00    +0.000 N 
ATOM     25  H   UNL     1       0.180  12.734  18.713  0.00  0.00    +0.000 HD
ATOM     26  H   UNL     1       0.205  11.909  17.244  0.00  0.00    +0.000 HD
ENDBRANCH  21  24
ENDBRANCH   5  18
TORSDOF 5
ENDMDL
MODEL 2
REMARK VINA RESULT:      -7.9      0.097      1.003
REMARK  Name = 
REMARK  7 active torsions:
REMARK  status: ('A' for Active; 'I' for Inactive)
REMARK    1  A    between atoms: C_1  and  O_2
REMARK    2  A    between atoms: O_2  and  C_3
REMARK    3  A    between atoms: C_6  and  C_7
REMARK    4  A    between atoms: N_11  and  C_12
REMARK    5  A    between atoms: C_15  and  N_16
REMARK    6  A    between atoms: C_21  and  O_22
REMARK    7  A    between atoms: O_22  and  C_23
REMARK                            x       y       z     vdW  Elec       q    Type
REMARK                         _______ _______ _______ _____ _____    ______ ____
ROOT
ATOM      1  C   UNL     1       3.860   5.131  18.603  0.00  0.00    +0.000 A 
ATOM      2  C   UNL     1       3.409   4.065  19.351  0.00  0.00    +0.000 A 
ATOM      3  S   UNL     1       2.358   4.624  20.584  0.00  0.00    +0.000 S 
ATOM      4  C   UNL     1       2.510   6.233  19.982  0.00  0.00    +0.000 A 
ATOM      5  N   UNL     1       1.883   7.251  20.616  0.00  0.00    +0.000 N 
ATOM      6  N   UNL     1       3.289   6.347  18.928  0.00  0.00    +0.000 NA
ATOM      7  H   UNL     1       1.466   7.058  21.517  0.00  0.00    +0.000 HD
ENDROOT
BRANCH   1  11
ATOM      8  C   UNL     1       6.724   5.034  15.433  0.00  0.00    +0.000 A 
ATOM      9  C   UNL     1       5.733   4.045  15.536  0.00  0.00    +0.000 A 
ATOM     10  C   UNL     1       4.811   4.064  16.584  0.00  0.00    +0.000 A 
ATOM     11  C   UNL     1       4.891   5.042  17.579  0.00  0.00    +0.000 A 
ATOM     12  C   UNL     1       5.934   5.974  17.515  0.00  0.00    +0.000 A 
ATOM     13  C   UNL     1       6.860   5.977  16.459  0.00  0.00    +0.000 A 
BRANCH   8  15
ATOM     14  C   UNL     1       7.050   4.484  13.157  0.00  0.00    +0.000 C 
ATOM     15  O   UNL     1       7.566   5.068  14.354  0.00  0.00    +0.000 OA
ENDBRANCH   8  15
BRANCH  13  16
ATOM     16  O   UNL     1       7.777   6.985  16.597  0.00  0.00    +0.000 OA
ATOM     17  C   UNL     1       7.668   7.868  17.700  0.00  0.00    +0.000 C 
ENDBRANCH  13  16
ENDBRANCH   1  11
BRANCH   5  18
ATOM     18  C   UNL     1       1.386   8.417  20.008  0.00  0.00    +0.000 A 
ATOM     19  C   UNL     1       1.727   8.798  18.706  0.00  0.00    +0.000 A 
ATOM     20  C   UNL     1       1.210   9.965  18.138  0.00  0.00    +0.000 A 
ATOM     21  C   UNL     1       0.329  10.776  18.853  0.00  0.00    +0.000 A 
ATOM     22  C   UNL     1       0.068  10.456  20.185  0.00  0.00    +0.000 A 
ATOM     23  C   UNL     1       0.567   9.277  20.748  0.00  0.00    +0.000 A 
BRANCH  21  24
ATOM     24  N   UNL     1      -0.087  12.003  18.322  0.00  0.00    +0.000 N 
ATOM     25  H   UNL     1      -0.212  11.983  17.315  0.00  0.00    +0.000 HD
ATOM     26  H   UNL     1      -0.886  12.403  18.801  0.00  0.00    +0.000 HD
ENDBRANCH  21  24
ENDBRANCH   5  18
TORSDOF 5
ENDMDL
MODEL 3
REMARK VINA RESULT:      -7.8      3.587      7.603
REMARK  Name = 
REMARK  7 active torsions:
REMARK  status: ('A' for Active; 'I' for Inactive)
REMARK    1  A    between atoms: C_1  and  O_2
REMARK    2  A    between atoms: O_2  and  C_3
REMARK    3  A    between atoms: C_6  and  C_7
REMARK    4  A    between atoms: N_11  and  C_12
REMARK    5  A    between atoms: C_15  and  N_16
REMARK    6  A    between atoms: C_21  and  O_22
REMARK    7  A    between atoms: O_22  and  C_23
REMARK                            x       y       z     vdW  Elec       q    Type
REMARK                         _______ _______ _______ _____ _____    ______ ____
ROOT
ATOM      1  C   UNL     1       2.324   6.423  19.835  0.00  0.00    +0.000 A 
ATOM      2  C   UNL     1       2.036   5.490  20.808  0.00  0.00    +0.000 A 
ATOM      3  S   UNL     1       2.559   3.939  20.299  0.00  0.00    +0.000 S 
ATOM      4  C   UNL     1       3.206   4.632  18.859  0.00  0.00    +0.000 A 
ATOM      5  N   UNL     1       3.780   3.835  17.928  0.00  0.00    +0.000 N 
ATOM      6  N   UNL     1       3.049   5.935  18.765  0.00  0.00    +0.000 NA
ATOM      7  H   UNL     1       3.675   2.835  18.036  0.00  0.00    +0.000 HD
ENDROOT
BRANCH   1  11
ATOM      8  C   UNL     1       0.746  10.394  19.872  0.00  0.00    +0.000 A 
ATOM      9  C   UNL     1       1.210   9.817  18.680  0.00  0.00    +0.000 A 
ATOM     10  C   UNL     1       1.747   8.528  18.672  0.00  0.00    +0.000 A 
ATOM     11  C   UNL     1       1.876   7.808  19.863  0.00  0.00    +0.000 A 
ATOM     12  C   UNL     1       1.490   8.423  21.059  0.00  0.00    +0.000 A 
ATOM     13  C   UNL     1       0.935   9.713  21.082  0.00  0.00    +0.000 A 
BRANCH   8  15
ATOM     14  C   UNL     1      -1.291  11.589  19.766  0.00  0.00    +0.000 C 
ATOM     15  O   UNL     1       0.134  11.619  19.863  0.00  0.00    +0.000 OA
ENDBRANCH   8  15
BRANCH  13  16
ATOM     16  O   UNL     1       0.616  10.102  22.356  0.00  0.00    +0.000 OA
ATOM     17  C   UNL     1      -0.560   9.590  22.958  0.00  0.00    +0.000 C 
ENDBRANCH  13  16
ENDBRANCH   1  11
BRANCH   5  18
ATOM     18  C   UNL     1       4.836   4.199  17.072  0.00  0.00    +0.000 A 
ATOM     19  C   UNL     1       6.119   4.504  17.538  0.00  0.00    +0.000 A 
ATOM     20  C   UNL     1       7.140   4.858  16.653  0.00  0.00    +0.000 A 
ATOM     21  C   UNL     1       6.909   4.907  15.280  0.00  0.00    +0.000 A 
ATOM     22  C   UNL     1       5.607   4.706  14.819  0.00  0.00    +0.000 A 
ATOM     23  C   UNL     1       4.589   4.329  15.701  0.00  0.00    +0.000 A 
BRANCH  21  24
ATOM     24  N   UNL     1       7.902   5.381  14.414  0.00  0.00    +0.000 N 
ATOM     25  H   UNL     1       7.741   6.334  14.102  0.00  0.00    +0.000 HD
ATOM     26  H   UNL     1       8.844   5.246  14.764  0.00  0.00    +0.000 HD
ENDBRANCH  21  24
ENDBRANCH   5  18
TORSDOF 5
ENDMDL
MODEL 4
REMARK VINA RESULT:      -7.7      3.577      7.530
REMARK  Name = 
REMARK  7 active torsions:
REMARK  status: ('A' for Active; 'I' for Inactive)
REMARK    1  A    between atoms: C_1  and  O_2
REMARK    2  A    between atoms: O_2  and  C_3
REMARK    3  A    between atoms: C_6  and  C_7
REMARK    4  A    between atoms: N_11  and  C_12
REMARK    5  A    between atoms: C_15  and  N_16
REMARK    6  A    between atoms: C_21  and  O_22
REMARK    7  A    between atoms: O_22  and  C_23
REMARK                            x       y       z     vdW  Elec       q    Type
REMARK                         _______ _______ _______ _____ _____    ______ ____
ROOT
ATOM      1  C   UNL     1       2.951   5.954  19.165  0.00  0.00    +0.000 A 
ATOM      2  C   UNL     1       2.861   5.014  20.170  0.00  0.00    +0.000 A 
ATOM      3  S   UNL     1       3.535   3.530  19.639  0.00  0.00    +0.000 S 
ATOM      4  C   UNL     1       3.974   4.266  18.143  0.00  0.00    +0.000 A 
ATOM      5  N   UNL     1       4.569   3.527  17.178  0.00  0.00    +0.000 N 
ATOM      6  N   UNL     1       3.645   5.536  18.045  0.00  0.00    +0.000 NA
ATOM      7  H   UNL     1       4.601   2.524  17.307  0.00  0.00    +0.000 HD
ENDROOT
BRANCH   1  11
ATOM      8  C   UNL     1       0.891   9.697  19.247  0.00  0.00    +0.000 A 
ATOM      9  C   UNL     1       1.450   9.212  18.056  0.00  0.00    +0.000 A 
ATOM     10  C   UNL     1       2.143   7.999  18.033  0.00  0.00    +0.000 A 
ATOM     11  C   UNL     1       2.334   7.272  19.211  0.00  0.00    +0.000 A 
ATOM     12  C   UNL     1       1.846   7.804  20.410  0.00  0.00    +0.000 A 
ATOM     13  C   UNL     1       1.135   9.015  20.447  0.00  0.00    +0.000 A 
BRANCH   8  15
ATOM     14  C   UNL     1      -1.242  10.656  18.903  0.00  0.00    +0.000 C 
ATOM     15  O   UNL     1       0.132  10.837  19.249  0.00  0.00    +0.000 OA
ENDBRANCH   8  15
BRANCH  13  16
ATOM     16  O   UNL     1       0.742   9.330  21.720  0.00  0.00    +0.000 OA
ATOM     17  C   UNL     1      -0.506   8.853  22.192  0.00  0.00    +0.000 C 
ENDBRANCH  13  16
ENDBRANCH   1  11
BRANCH   5  18
ATOM     18  C   UNL     1       5.499   4.000  16.235  0.00  0.00    +0.000 A 
ATOM     19  C   UNL     1       6.674   4.666  16.597  0.00  0.00    +0.000 A 
ATOM     20  C   UNL     1       7.573   5.119  15.628  0.00  0.00    +0.000 A 
ATOM     21  C   UNL     1       7.325   4.909  14.273  0.00  0.00    +0.000 A 
ATOM     22  C   UNL     1       6.107   4.339  13.902  0.00  0.00    +0.000 A 
ATOM     23  C   UNL     1       5.217   3.865  14.871  0.00  0.00    +0.000 A 
BRANCH  21  24
ATOM     24  N   UNL     1       8.168   5.473  13.307  0.00  0.00    +0.000 N 
ATOM     25  H   UNL     1       8.936   4.864  13.040  0.00  0.00    +0.000 HD
ATOM     26  H   UNL     1       7.674   5.844  12.503  0.00  0.00    +0.000 HD
ENDBRANCH  21  24
ENDBRANCH   5  18
TORSDOF 5
ENDMDL
MODEL 5
REMARK VINA RESULT:      -7.6      3.582      7.568
REMARK  Name = 
REMARK  7 active torsions:
REMARK  status: ('A' for Active; 'I' for Inactive)
REMARK    1  A    between atoms: C_1  and  O_2
REMARK    2  A    between atoms: O_2  and  C_3
REMARK    3  A    between atoms: C_6  and  C_7
REMARK    4  A    between atoms: N_11  and  C_12
REMARK    5  A    between atoms: C_15  and  N_16
REMARK    6  A    between atoms: C_21  and  O_22
REMARK    7  A    between atoms: O_22  and  C_23
REMARK                            x       y       z     vdW  Elec       q    Type
REMARK                         _______ _______ _______ _____ _____    ______ ____
ROOT
ATOM      1  C   UNL     1       2.986   5.950  19.144  0.00  0.00    +0.000 A 
ATOM      2  C   UNL     1       2.942   5.012  20.154  0.00  0.00    +0.000 A 
ATOM      3  S   UNL     1       3.618   3.536  19.605  0.00  0.00    +0.000 S 
ATOM      4  C   UNL     1       3.997   4.274  18.093  0.00  0.00    +0.000 A 
ATOM      5  N   UNL     1       4.570   3.539  17.111  0.00  0.00    +0.000 N 
ATOM      6  N   UNL     1       3.649   5.539  18.003  0.00  0.00    +0.000 NA
ATOM      7  H   UNL     1       4.619   2.537  17.241  0.00  0.00    +0.000 HD
ENDROOT
BRANCH   1  11
ATOM      8  C   UNL     1       0.884   9.668  19.276  0.00  0.00    +0.000 A 
ATOM      9  C   UNL     1       1.450   9.206  18.078  0.00  0.00    +0.000 A 
ATOM     10  C   UNL     1       2.157   8.002  18.040  0.00  0.00    +0.000 A 
ATOM     11  C   UNL     1       2.354   7.260  19.208  0.00  0.00    +0.000 A 
ATOM     12  C   UNL     1       1.859   7.770  20.413  0.00  0.00    +0.000 A 
ATOM     13  C   UNL     1       1.134   8.972  20.466  0.00  0.00    +0.000 A 
BRANCH   8  15
ATOM     14  C   UNL     1      -1.248  10.616  18.894  0.00  0.00    +0.000 C 
ATOM     15  O   UNL     1       0.111  10.799  19.292  0.00  0.00    +0.000 OA
ENDBRANCH   8  15
BRANCH  13  16
ATOM     16  O   UNL     1       0.735   9.264  21.743  0.00  0.00    +0.000 OA
ATOM     17  C   UNL     1      -0.528   8.806  22.191  0.00  0.00    +0.000 C 
ENDBRANCH  13  16
ENDBRANCH   1  11
BRANCH   5  18
ATOM     18  C   UNL     1       5.463   4.022  16.137  0.00  0.00    +0.000 A 
ATOM     19  C   UNL     1       5.274   3.817  14.767  0.00  0.00    +0.000 A 
ATOM     20  C   UNL     1       6.184   4.316  13.832  0.00  0.00    +0.000 A 
ATOM     21  C   UNL     1       7.302   5.041  14.242  0.00  0.00    +0.000 A 
ATOM     22  C   UNL     1       7.550   5.159  15.610  0.00  0.00    +0.000 A 
ATOM     23  C   UNL     1       6.628   4.680  16.546  0.00  0.00    +0.000 A 
BRANCH  21  24
ATOM     24  N   UNL     1       8.271   5.429  13.309  0.00  0.00    +0.000 N 
ATOM     25  H   UNL     1       9.144   4.918  13.399  0.00  0.00    +0.000 HD
ATOM     26  H   UNL     1       7.932   5.445  12.354  0.00  0.00    +0.000 HD
ENDBRANCH  21  24
ENDBRANCH   5  18
TORSDOF 5
ENDMDL
MODEL 6
REMARK VINA RESULT:      -7.6      3.594      7.639
REMARK  Name = 
REMARK  7 active torsions:
REMARK  status: ('A' for Active; 'I' for Inactive)
REMARK    1  A    between atoms: C_1  and  O_2
REMARK    2  A    between atoms: O_2  and  C_3
REMARK    3  A    between atoms: C_6  and  C_7
REMARK    4  A    between atoms: N_11  and  C_12
REMARK    5  A    between atoms: C_15  and  N_16
REMARK    6  A    between atoms: C_21  and  O_22
REMARK    7  A    between atoms: O_22  and  C_23
REMARK                            x       y       z     vdW  Elec       q    Type
REMARK                         _______ _______ _______ _____ _____    ______ ____
ROOT
ATOM      1  C   UNL     1       2.337   6.489  19.806  0.00  0.00    +0.000 A 
ATOM      2  C   UNL     1       2.098   5.562  20.798  0.00  0.00    +0.000 A 
ATOM      3  S   UNL     1       2.622   4.013  20.283  0.00  0.00    +0.000 S 
ATOM      4  C   UNL     1       3.206   4.700  18.813  0.00  0.00    +0.000 A 
ATOM      5  N   UNL     1       3.755   3.902  17.869  0.00  0.00    +0.000 N 
ATOM      6  N   UNL     1       3.027   6.000  18.713  0.00  0.00    +0.000 NA
ATOM      7  H   UNL     1       3.668   2.902  17.990  0.00  0.00    +0.000 HD
ENDROOT
BRANCH   1  11
ATOM      8  C   UNL     1       0.708  10.439  19.857  0.00  0.00    +0.000 A 
ATOM      9  C   UNL     1       1.166   9.867  18.660  0.00  0.00    +0.000 A 
ATOM     10  C   UNL     1       1.719   8.585  18.647  0.00  0.00    +0.000 A 
ATOM     11  C   UNL     1       1.871   7.868  19.837  0.00  0.00    +0.000 A 
ATOM     12  C   UNL     1       1.490   8.479  21.037  0.00  0.00    +0.000 A 
ATOM     13  C   UNL     1       0.919   9.762  21.065  0.00  0.00    +0.000 A 
BRANCH   8  15
ATOM     14  C   UNL     1      -1.341  11.610  19.714  0.00  0.00    +0.000 C 
ATOM     15  O   UNL     1       0.080  11.657  19.853  0.00  0.00    +0.000 OA
ENDBRANCH   8  15
BRANCH  13  16
ATOM     16  O   UNL     1       0.610  10.148  22.342  0.00  0.00    +0.000 OA
ATOM     17  C   UNL     1      -0.471   9.520  23.008  0.00  0.00    +0.000 C 
ENDBRANCH  13  16
ENDBRANCH   1  11
BRANCH   5  18
ATOM     18  C   UNL     1       4.773   4.270  16.971  0.00  0.00    +0.000 A 
ATOM     19  C   UNL     1       4.579   4.330  15.587  0.00  0.00    +0.000 A 
ATOM     20  C   UNL     1       5.617   4.703  14.730  0.00  0.00    +0.000 A 
ATOM     21  C   UNL     1       6.873   5.035  15.234  0.00  0.00    +0.000 A 
ATOM     22  C   UNL     1       7.101   4.878  16.601  0.00  0.00    +0.000 A 
ATOM     23  C   UNL     1       6.057   4.527  17.463  0.00  0.00    +0.000 A 
BRANCH  21  24
ATOM     24  N   UNL     1       7.938   5.288  14.361  0.00  0.00    +0.000 N 
ATOM     25  H   UNL     1       7.646   5.695  13.478  0.00  0.00    +0.000 HD
ATOM     26  H   UNL     1       8.700   5.803  14.788  0.00  0.00    +0.000 HD
ENDBRANCH  21  24
ENDBRANCH   5  18
TORSDOF 5
ENDMDL
MODEL 7
REMARK VINA RESULT:      -7.4      1.133      1.162
REMARK  Name = 
REMARK  7 active torsions:
REMARK  status: ('A' for Active; 'I' for Inactive)
REMARK    1  A    between atoms: C_1  and  O_2
REMARK    2  A    between atoms: O_2  and  C_3
REMARK    3  A    between atoms: C_6  and  C_7
REMARK    4  A    between atoms: N_11  and  C_12
REMARK    5  A    between atoms: C_15  and  N_16
REMARK    6  A    between atoms: C_21  and  O_22
REMARK    7  A    between atoms: O_22  and  C_23
REMARK                            x       y       z     vdW  Elec       q    Type
REMARK                         _______ _______ _______ _____ _____    ______ ____
ROOT
ATOM      1  C   UNL     1       3.309   4.992  19.034  0.00  0.00    +0.000 A 
ATOM      2  C   UNL     1       2.625   4.001  19.706  0.00  0.00    +0.000 A 
ATOM      3  S   UNL     1       1.563   4.705  20.853  0.00  0.00    +0.000 S 
ATOM      4  C   UNL     1       2.026   6.277  20.315  0.00  0.00    +0.000 A 
ATOM      5  N   UNL     1       1.511   7.373  20.918  0.00  0.00    +0.000 N 
ATOM      6  N   UNL     1       2.910   6.279  19.341  0.00  0.00    +0.000 NA
ATOM      7  H   UNL     1       0.984   7.237  21.770  0.00  0.00    +0.000 HD
ENDROOT
BRANCH   1  11
ATOM      8  C   UNL     1       6.541   4.570  16.270  0.00  0.00    +0.000 A 
ATOM      9  C   UNL     1       5.209   4.490  15.835  0.00  0.00    +0.000 A 
ATOM     10  C   UNL     1       4.153   4.604  16.742  0.00  0.00    +0.000 A 
ATOM     11  C   UNL     1       4.407   4.752  18.108  0.00  0.00    +0.000 A 
ATOM     12  C   UNL     1       5.737   4.747  18.544  0.00  0.00    +0.000 A 
ATOM     13  C   UNL     1       6.810   4.647  17.643  0.00  0.00    +0.000 A 
BRANCH   8  15
ATOM     14  C   UNL     1       7.211   4.860  14.022  0.00  0.00    +0.000 C 
ATOM     15  O   UNL     1       7.572   4.552  15.369  0.00  0.00    +0.000 OA
ENDBRANCH   8  15
BRANCH  13  16
ATOM     16  O   UNL     1       8.016   4.679  18.291  0.00  0.00    +0.000 OA
ATOM     17  C   UNL     1       8.242   5.676  19.273  0.00  0.00    +0.000 C 
ENDBRANCH  13  16
ENDBRANCH   1  11
BRANCH   5  18
ATOM     18  C   UNL     1       1.266   8.613  20.300  0.00  0.00    +0.000 A 
ATOM     19  C   UNL     1       0.620   9.669  20.950  0.00  0.00    +0.000 A 
ATOM     20  C   UNL     1       0.398  10.886  20.300  0.00  0.00    +0.000 A 
ATOM     21  C   UNL     1       0.824  11.082  18.988  0.00  0.00    +0.000 A 
ATOM     22  C   UNL     1       1.375   9.999  18.302  0.00  0.00    +0.000 A 
ATOM     23  C   UNL     1       1.619   8.788  18.958  0.00  0.00    +0.000 A 
BRANCH  21  24
ATOM     24  N   UNL     1       0.489  12.258  18.306  0.00  0.00    +0.000 N 
ATOM     25  H   UNL     1       1.186  12.538  17.622  0.00  0.00    +0.000 HD
ATOM     26  H   UNL     1      -0.448  12.250  17.919  0.00  0.00    +0.000 HD
ENDBRANCH  21  24
ENDBRANCH   5  18
TORSDOF 5
ENDMDL
MODEL 8
REMARK VINA RESULT:      -7.3      3.035      7.284
REMARK  Name = 
REMARK  7 active torsions:
REMARK  status: ('A' for Active; 'I' for Inactive)
REMARK    1  A    between atoms: C_1  and  O_2
REMARK    2  A    between atoms: O_2  and  C_3
REMARK    3  A    between atoms: C_6  and  C_7
REMARK    4  A    between atoms: N_11  and  C_12
REMARK    5  A    between atoms: C_15  and  N_16
REMARK    6  A    between atoms: C_21  and  O_22
REMARK    7  A    between atoms: O_22  and  C_23
REMARK                            x       y       z     vdW  Elec       q    Type
REMARK                         _______ _______ _______ _____ _____    ______ ____
ROOT
ATOM      1  C   UNL     1       2.383   5.873  19.985  0.00  0.00    +0.000 A 
ATOM      2  C   UNL     1       2.224   4.900  20.948  0.00  0.00    +0.000 A 
ATOM      3  S   UNL     1       2.897   3.423  20.397  0.00  0.00    +0.000 S 
ATOM      4  C   UNL     1       3.427   4.204  18.954  0.00  0.00    +0.000 A 
ATOM      5  N   UNL     1       4.058   3.489  17.994  0.00  0.00    +0.000 N 
ATOM      6  N   UNL     1       3.128   5.483  18.888  0.00  0.00    +0.000 NA
ATOM      7  H   UNL     1       4.065   2.482  18.086  0.00  0.00    +0.000 HD
ENDROOT
BRANCH   1  11
ATOM      8  C   UNL     1       0.885   9.864  20.282  0.00  0.00    +0.000 A 
ATOM      9  C   UNL     1       0.704   8.950  21.330  0.00  0.00    +0.000 A 
ATOM     10  C   UNL     1       1.173   7.639  21.224  0.00  0.00    +0.000 A 
ATOM     11  C   UNL     1       1.789   7.201  20.049  0.00  0.00    +0.000 A 
ATOM     12  C   UNL     1       1.891   8.095  18.977  0.00  0.00    +0.000 A 
ATOM     13  C   UNL     1       1.437   9.420  19.073  0.00  0.00    +0.000 A 
BRANCH   8  15
ATOM     14  C   UNL     1      -0.821  11.476  20.000  0.00  0.00    +0.000 C 
ATOM     15  O   UNL     1       0.509  11.174  20.424  0.00  0.00    +0.000 OA
ENDBRANCH   8  15
BRANCH  13  16
ATOM     16  O   UNL     1       1.655  10.113  17.911  0.00  0.00    +0.000 OA
ATOM     17  C   UNL     1       2.401  11.316  17.958  0.00  0.00    +0.000 C 
ENDBRANCH  13  16
ENDBRANCH   1  11
BRANCH   5  18
ATOM     18  C   UNL     1       5.045   3.978  17.119  0.00  0.00    +0.000 A 
ATOM     19  C   UNL     1       6.300   4.413  17.558  0.00  0.00    +0.000 A 
ATOM     20  C   UNL     1       7.253   4.890  16.655  0.00  0.00    +0.000 A 
ATOM     21  C   UNL     1       6.981   4.935  15.289  0.00  0.00    +0.000 A 
ATOM     22  C   UNL     1       5.697   4.600  14.858  0.00  0.00    +0.000 A 
ATOM     23  C   UNL     1       4.749   4.101  15.757  0.00  0.00    +0.000 A 
BRANCH  21  24
ATOM     24  N   UNL     1       7.893   5.527  14.408  0.00  0.00    +0.000 N 
ATOM     25  H   UNL     1       7.452   5.955  13.599  0.00  0.00    +0.000 HD
ATOM     26  H   UNL     1       8.550   6.152  14.862  0.00  0.00    +0.000 HD
ENDBRANCH  21  24
ENDBRANCH   5  18
TORSDOF 5
ENDMDL
MODEL 9
REMARK VINA RESULT:      -7.2      3.060      7.304
REMARK  Name = 
REMARK  7 active torsions:
REMARK  status: ('A' for Active; 'I' for Inactive)
REMARK    1  A    between atoms: C_1  and  O_2
REMARK    2  A    between atoms: O_2  and  C_3
REMARK    3  A    between atoms: C_6  and  C_7
REMARK    4  A    between atoms: N_11  and  C_12
REMARK    5  A    between atoms: C_15  and  N_16
REMARK    6  A    between atoms: C_21  and  O_22
REMARK    7  A    between atoms: O_22  and  C_23
REMARK                            x       y       z     vdW  Elec       q    Type
REMARK                         _______ _______ _______ _____ _____    ______ ____
ROOT
ATOM      1  C   UNL     1       2.808   5.598  19.523  0.00  0.00    +0.000 A 
ATOM      2  C   UNL     1       2.807   4.617  20.491  0.00  0.00    +0.000 A 
ATOM      3  S   UNL     1       3.541   3.195  19.878  0.00  0.00    +0.000 S 
ATOM      4  C   UNL     1       3.884   4.012  18.398  0.00  0.00    +0.000 A 
ATOM      5  N   UNL     1       4.483   3.345  17.385  0.00  0.00    +0.000 N 
ATOM      6  N   UNL     1       3.483   5.264  18.364  0.00  0.00    +0.000 NA
ATOM      7  H   UNL     1       4.575   2.341  17.471  0.00  0.00    +0.000 HD
ENDROOT
BRANCH   1  11
ATOM      8  C   UNL     1       1.030   9.454  19.999  0.00  0.00    +0.000 A 
ATOM      9  C   UNL     1       0.884   8.469  20.989  0.00  0.00    +0.000 A 
ATOM     10  C   UNL     1       1.446   7.202  20.823  0.00  0.00    +0.000 A 
ATOM     11  C   UNL     1       2.122   6.877  19.644  0.00  0.00    +0.000 A 
ATOM     12  C   UNL     1       2.190   7.836  18.627  0.00  0.00    +0.000 A 
ATOM     13  C   UNL     1       1.642   9.120  18.785  0.00  0.00    +0.000 A 
BRANCH   8  15
ATOM     14  C   UNL     1      -0.804  10.938  19.836  0.00  0.00    +0.000 C 
ATOM     15  O   UNL     1       0.560  10.724  20.204  0.00  0.00    +0.000 OA
ENDBRANCH   8  15
BRANCH  13  16
ATOM     16  O   UNL     1       1.842   9.892  17.671  0.00  0.00    +0.000 OA
ATOM     17  C   UNL     1       2.438  11.169  17.818  0.00  0.00    +0.000 C 
ENDBRANCH  13  16
ENDBRANCH   1  11
BRANCH   5  18
ATOM     18  C   UNL     1       5.351   3.906  16.431  0.00  0.00    +0.000 A 
ATOM     19  C   UNL     1       5.123   3.819  15.054  0.00  0.00    +0.000 A 
ATOM     20  C   UNL     1       6.011   4.392  14.140  0.00  0.00    +0.000 A 
ATOM     21  C   UNL     1       7.143   5.076  14.578  0.00  0.00    +0.000 A 
ATOM     22  C   UNL     1       7.430   5.077  15.943  0.00  0.00    +0.000 A 
ATOM     23  C   UNL     1       6.531   4.523  16.861  0.00  0.00    +0.000 A 
BRANCH  21  24
ATOM     24  N   UNL     1       8.088   5.540  13.655  0.00  0.00    +0.000 N 
ATOM     25  H   UNL     1       8.670   6.289  14.017  0.00  0.00    +0.000 HD
ATOM     26  H   UNL     1       8.635   4.801  13.227  0.00  0.00    +0.000 HD
ENDBRANCH  21  24
ENDBRANCH   5  18
TORSDOF 5
ENDMDL
