MODEL 1
REMARK VINA RESULT:      -7.8      0.000      0.000
REMARK  Name = 
REMARK  6 active torsions:
REMARK  status: ('A' for Active; 'I' for Inactive)
REMARK    1  A    between atoms: C_1  and  O_2
REMARK    2  A    between atoms: O_2  and  C_3
REMARK    3  A    between atoms: C_3  and  C_5
REMARK    4  A    between atoms: C_9  and  N_10
REMARK    5  A    between atoms: C_11  and  C_13
REMARK    6  A    between atoms: C_13  and  C_14
REMARK                            x       y       z     vdW  Elec       q    Type
REMARK                         _______ _______ _______ _____ _____    ______ ____
ROOT
ATOM      1  N   UNL     1       4.443   5.803  18.516  0.00  0.00    +0.000 N 
ATOM      2  C   UNL     1       3.082   5.578  18.696  0.00  0.00    +0.000 C 
ATOM      3  O   UNL     1       2.381   4.832  18.016  0.00  0.00    +0.000 OA
ATOM      4  H   UNL     1       4.965   6.278  19.248  0.00  0.00    +0.000 HD
ENDROOT
BRANCH   1   9
ATOM      5  C   UNL     1       6.500   5.679  17.147  0.00  0.00    +0.000 A 
ATOM      6  S   UNL     1       7.106   4.828  15.771  0.00  0.00    +0.000 S 
ATOM      7  C   UNL     1       5.668   3.949  15.581  0.00  0.00    +0.000 A 
ATOM      8  C   UNL     1       4.731   4.301  16.521  0.00  0.00    +0.000 A 
ATOM      9  C   UNL     1       5.196   5.289  17.453  0.00  0.00    +0.000 A 
BRANCH   5  10
ATOM     10  C   UNL     1       7.429   6.606  17.776  0.00  0.00    +0.000 C 
ATOM     11  O   UNL     1       8.034   6.419  18.829  0.00  0.00    +0.000 OA
BRANCH  10  13
ATOM     12  C   UNL     1       8.034   8.859  17.823  0.00  0.00    +0.000 C 
ATOM     13  O   UNL     1       7.550   7.757  17.043  0.00  0.00    +0.000 OA
ENDBRANCH  10  13
ENDBRANCH   5  10
ENDBRANCH   1   9
BRANCH   2  14
ATOM     14  C   UNL     1       2.464   6.363  19.840  0.00  0.00    +0.000 C 
BRANCH  14  15
ATOM     15  C   UNL     1       2.021   7.758  19.454  0.00  0.00    +0.000 A 
ATOM     16  C   UNL     1       2.324   8.194  18.154  0.00  0.00    +0.000 A 
ATOM     17  C   UNL     1       1.917   9.450  17.721  0.00  0.00    +0.000 A 
ATOM     18  C   UNL     1       1.202  10.278  18.582  0.00  0.00    +0.000 A 
ATOM     19  C   UNL     1       0.887   9.897  19.876  0.00  0.00    +0.000 A 
ATOM     20  N   UNL     1       0.189  10.767  20.626  0.00  0.00    +0.000 NA
ATOM     21  C   UNL     1      -0.125  10.415  21.889  0.00  0.00    +0.000 A 
ATOM     22  C   UNL     1       0.231   9.210  22.452  0.00  0.00    +0.000 A 
ATOM     23  C   UNL     1       0.954   8.310  21.670  0.00  0.00    +0.000 A 
ATOM     24  C   UNL     1       1.304   8.624  20.337  0.00  0.00    +0.000 A 
ENDBRANCH  14  15
ENDBRANCH   2  14
TORSDOF 5
ENDMDL
MODEL 2
REMARK VINA RESULT:      -7.5      3.201      6.707
REMARK  Name = 
REMARK  6 active torsions:
REMARK  status: ('A' for Active; 'I' for Inactive)
REMARK    1  A    between atoms: C_1  and  O_2
REMARK    2  A    between atoms: O_2  and  C_3
REMARK    3  A    between atoms: C_3  and  C_5
REMARK    4  A    between atoms: C_9  and  N_10
REMARK    5  A    between atoms: C_11  and  C_13
REMARK    6  A    between atoms: C_13  and  C_14
REMARK                            x       y       z     vdW  Elec       q    Type
REMARK                         _______ _______ _______ _____ _____    ______ ____
ROOT
ATOM      1  N   UNL     1       2.308   7.008  20.444  0.00  0.00    +0.000 N 
ATOM      2  C   UNL     1       1.876   5.685  20.449  0.00  0.00    +0.000 C 
ATOM      3  O   UNL     1       0.705   5.311  20.452  0.00  0.00    +0.000 OA
ATOM      4  H   UNL     1       3.283   7.207  20.242  0.00  0.00    +0.000 HD
ENDROOT
BRANCH   1   9
ATOM      5  C   UNL     1       1.279   9.076  19.556  0.00  0.00    +0.000 A 
ATOM      6  S   UNL     1       0.154  10.292  20.046  0.00  0.00    +0.000 S 
ATOM      7  C   UNL     1      -0.101   9.562  21.555  0.00  0.00    +0.000 A 
ATOM      8  C   UNL     1       0.664   8.431  21.706  0.00  0.00    +0.000 A 
ATOM      9  C   UNL     1       1.459   8.117  20.553  0.00  0.00    +0.000 A 
BRANCH   5  10
ATOM     10  C   UNL     1       1.813   9.214  18.209  0.00  0.00    +0.000 C 
ATOM     11  O   UNL     1       2.018  10.272  17.619  0.00  0.00    +0.000 OA
BRANCH  10  13
ATOM     12  C   UNL     1       3.458   7.745  17.447  0.00  0.00    +0.000 C 
ATOM     13  O   UNL     1       2.059   7.989  17.647  0.00  0.00    +0.000 OA
ENDBRANCH  10  13
ENDBRANCH   5  10
ENDBRANCH   1   9
BRANCH   2  14
ATOM     14  C   UNL     1       2.998   4.662  20.467  0.00  0.00    +0.000 C 
BRANCH  14  15
ATOM     15  C   UNL     1       3.495   4.275  19.091  0.00  0.00    +0.000 A 
ATOM     16  C   UNL     1       2.595   3.605  18.245  0.00  0.00    +0.000 A 
ATOM     17  C   UNL     1       2.972   3.251  16.956  0.00  0.00    +0.000 A 
ATOM     18  C   UNL     1       4.250   3.566  16.500  0.00  0.00    +0.000 A 
ATOM     19  C   UNL     1       5.176   4.217  17.298  0.00  0.00    +0.000 A 
ATOM     20  N   UNL     1       6.379   4.480  16.762  0.00  0.00    +0.000 NA
ATOM     21  C   UNL     1       7.295   5.112  17.525  0.00  0.00    +0.000 A 
ATOM     22  C   UNL     1       7.062   5.503  18.825  0.00  0.00    +0.000 A 
ATOM     23  C   UNL     1       5.810   5.229  19.375  0.00  0.00    +0.000 A 
ATOM     24  C   UNL     1       4.811   4.575  18.620  0.00  0.00    +0.000 A 
ENDBRANCH  14  15
ENDBRANCH   2  14
TORSDOF 5
ENDMDL
MODEL 3
REMARK VINA RESULT:      -7.5      2.080      2.854
REMARK  Name = 
REMARK  6 active torsions:
REMARK  status: ('A' for Active; 'I' for Inactive)
REMARK    1  A    between atoms: C_1  and  O_2
REMARK    2  A    between atoms: O_2  and  C_3
REMARK    3  A    between atoms: C_3  and  C_5
REMARK    4  A    between atoms: C_9  and  N_10
REMARK    5  A    between atoms: C_11  and  C_13
REMARK    6  A    between atoms: C_13  and  C_14
REMARK                            x       y       z     vdW  Elec       q    Type
REMARK                         _______ _______ _______ _____ _____    ______ ____
ROOT
ATOM      1  N   UNL     1       3.895   6.310  18.780  0.00  0.00    +0.000 N 
ATOM      2  C   UNL     1       2.552   6.136  19.098  0.00  0.00    +0.000 C 
ATOM      3  O   UNL     1       1.765   5.394  18.514  0.00  0.00    +0.000 OA
ATOM      4  H   UNL     1       4.500   6.789  19.441  0.00  0.00    +0.000 HD
ENDROOT
BRANCH   1   9
ATOM      5  C   UNL     1       4.847   4.387  17.548  0.00  0.00    +0.000 A 
ATOM      6  S   UNL     1       5.609   4.051  16.034  0.00  0.00    +0.000 S 
ATOM      7  C   UNL     1       5.510   5.669  15.534  0.00  0.00    +0.000 A 
ATOM      8  C   UNL     1       4.935   6.462  16.496  0.00  0.00    +0.000 A 
ATOM      9  C   UNL     1       4.524   5.739  17.666  0.00  0.00    +0.000 A 
BRANCH   5  10
ATOM     10  C   UNL     1       4.630   3.239  18.415  0.00  0.00    +0.000 C 
ATOM     11  O   UNL     1       5.111   3.078  19.534  0.00  0.00    +0.000 OA
BRANCH  10  13
ATOM     12  C   UNL     1       2.725   1.915  18.669  0.00  0.00    +0.000 C 
ATOM     13  O   UNL     1       3.808   2.318  17.820  0.00  0.00    +0.000 OA
ENDBRANCH  10  13
ENDBRANCH   5  10
ENDBRANCH   1   9
BRANCH   2  14
ATOM     14  C   UNL     1       2.073   6.975  20.270  0.00  0.00    +0.000 C 
BRANCH  14  15
ATOM     15  C   UNL     1       1.569   8.346  19.873  0.00  0.00    +0.000 A 
ATOM     16  C   UNL     1       1.824   8.772  18.559  0.00  0.00    +0.000 A 
ATOM     17  C   UNL     1       1.360  10.004  18.116  0.00  0.00    +0.000 A 
ATOM     18  C   UNL     1       0.636  10.820  18.982  0.00  0.00    +0.000 A 
ATOM     19  C   UNL     1       0.365  10.449  20.289  0.00  0.00    +0.000 A 
ATOM     20  N   UNL     1      -0.347  11.304  21.041  0.00  0.00    +0.000 NA
ATOM     21  C   UNL     1      -0.617  10.962  22.317  0.00  0.00    +0.000 A 
ATOM     22  C   UNL     1      -0.203   9.780  22.890  0.00  0.00    +0.000 A 
ATOM     23  C   UNL     1       0.534   8.895  22.105  0.00  0.00    +0.000 A 
ATOM     24  C   UNL     1       0.841   9.200  20.760  0.00  0.00    +0.000 A 
ENDBRANCH  14  15
ENDBRANCH   2  14
TORSDOF 5
ENDMDL
MODEL 4
REMARK VINA RESULT:      -7.5      2.219      3.116
REMARK  Name = 
REMARK  6 active torsions:
REMARK  status: ('A' for Active; 'I' for Inactive)
REMARK    1  A    between atoms: C_1  and  O_2
REMARK    2  A    between atoms: O_2  and  C_3
REMARK    3  A    between atoms: C_3  and  C_5
REMARK    4  A    between atoms: C_9  and  N_10
REMARK    5  A    between atoms: C_11  and  C_13
REMARK    6  A    between atoms: C_13  and  C_14
REMARK                            x       y       z     vdW  Elec       q    Type
REMARK                         _______ _______ _______ _____ _____    ______ ____
ROOT
ATOM      1  N   UNL     1       3.012   6.279  19.850  0.00  0.00    +0.000 N 
ATOM      2  C   UNL     1       2.398   6.834  18.731  0.00  0.00    +0.000 C 
ATOM      3  O   UNL     1       1.783   6.214  17.867  0.00  0.00    +0.000 OA
ATOM      4  H   UNL     1       3.319   6.892  20.599  0.00  0.00    +0.000 HD
ENDROOT
BRANCH   1   9
ATOM      5  C   UNL     1       4.062   4.063  19.520  0.00  0.00    +0.000 A 
ATOM      6  S   UNL     1       3.876   2.433  20.063  0.00  0.00    +0.000 S 
ATOM      7  C   UNL     1       2.557   2.829  21.052  0.00  0.00    +0.000 A 
ATOM      8  C   UNL     1       2.239   4.162  20.964  0.00  0.00    +0.000 A 
ATOM      9  C   UNL     1       3.109   4.903  20.096  0.00  0.00    +0.000 A 
BRANCH   5  10
ATOM     10  C   UNL     1       5.173   4.304  18.611  0.00  0.00    +0.000 C 
ATOM     11  O   UNL     1       6.366   4.214  18.889  0.00  0.00    +0.000 OA
BRANCH  10  13
ATOM     12  C   UNL     1       5.423   5.801  16.839  0.00  0.00    +0.000 C 
ATOM     13  O   UNL     1       4.724   4.666  17.368  0.00  0.00    +0.000 OA
ENDBRANCH  10  13
ENDBRANCH   5  10
ENDBRANCH   1   9
BRANCH   2  14
ATOM     14  C   UNL     1       2.552   8.341  18.618  0.00  0.00    +0.000 C 
BRANCH  14  15
ATOM     15  C   UNL     1       1.285   9.109  18.929  0.00  0.00    +0.000 A 
ATOM     16  C   UNL     1       0.525   9.566  17.839  0.00  0.00    +0.000 A 
ATOM     17  C   UNL     1      -0.667  10.248  18.050  0.00  0.00    +0.000 A 
ATOM     18  C   UNL     1      -1.109  10.477  19.351  0.00  0.00    +0.000 A 
ATOM     19  C   UNL     1      -0.391  10.054  20.458  0.00  0.00    +0.000 A 
ATOM     20  N   UNL     1      -0.907  10.319  21.669  0.00  0.00    +0.000 NA
ATOM     21  C   UNL     1      -0.221   9.918  22.758  0.00  0.00    +0.000 A 
ATOM     22  C   UNL     1       0.982   9.250  22.695  0.00  0.00    +0.000 A 
ATOM     23  C   UNL     1       1.512   8.976  21.435  0.00  0.00    +0.000 A 
ATOM     24  C   UNL     1       0.832   9.367  20.260  0.00  0.00    +0.000 A 
ENDBRANCH  14  15
ENDBRANCH   2  14
TORSDOF 5
ENDMDL
MODEL 5
REMARK VINA RESULT:      -7.5      4.039      7.429
REMARK  Name = 
REMARK  6 active torsions:
REMARK  status: ('A' for Active; 'I' for Inactive)
REMARK    1  A    between atoms: C_1  and  O_2
REMARK    2  A    between atoms: O_2  and  C_3
REMARK    3  A    between atoms: C_3  and  C_5
REMARK    4  A    between atoms: C_9  and  N_10
REMARK    5  A    between atoms: C_11  and  C_13
REMARK    6  A    between atoms: C_13  and  C_14
REMARK                            x       y       z     vdW  Elec       q    Type
REMARK                         _______ _______ _______ _____ _____    ______ ____
ROOT
ATOM      1  N   UNL     1       1.037   9.130  19.839  0.00  0.00    +0.000 N 
ATOM      2  C   UNL     1       1.728   8.297  18.964  0.00  0.00    +0.000 C 
ATOM      3  O   UNL     1       1.703   8.364  17.737  0.00  0.00    +0.000 OA
ATOM      4  H   UNL     1       1.279   9.117  20.825  0.00  0.00    +0.000 HD
ENDROOT
BRANCH   1   9
ATOM      5  C   UNL     1      -0.202  11.244  20.183  0.00  0.00    +0.000 A 
ATOM      6  S   UNL     1      -1.371  12.222  19.370  0.00  0.00    +0.000 S 
ATOM      7  C   UNL     1      -1.452  11.166  18.046  0.00  0.00    +0.000 A 
ATOM      8  C   UNL     1      -0.633  10.077  18.216  0.00  0.00    +0.000 A 
ATOM      9  C   UNL     1       0.118  10.108  19.438  0.00  0.00    +0.000 A 
BRANCH   5  10
ATOM     10  C   UNL     1       0.283  11.761  21.454  0.00  0.00    +0.000 C 
ATOM     11  O   UNL     1       0.699  12.899  21.659  0.00  0.00    +0.000 OA
BRANCH  10  13
ATOM     12  C   UNL     1      -1.059  10.713  23.049  0.00  0.00    +0.000 C 
ATOM     13  O   UNL     1       0.231  10.801  22.430  0.00  0.00    +0.000 OA
ENDBRANCH  10  13
ENDBRANCH   5  10
ENDBRANCH   1   9
BRANCH   2  14
ATOM     14  C   UNL     1       2.554   7.221  19.647  0.00  0.00    +0.000 C 
BRANCH  14  15
ATOM     15  C   UNL     1       2.961   6.088  18.729  0.00  0.00    +0.000 A 
ATOM     16  C   UNL     1       3.981   6.347  17.798  0.00  0.00    +0.000 A 
ATOM     17  C   UNL     1       4.429   5.343  16.948  0.00  0.00    +0.000 A 
ATOM     18  C   UNL     1       3.862   4.074  17.022  0.00  0.00    +0.000 A 
ATOM     19  C   UNL     1       2.847   3.771  17.915  0.00  0.00    +0.000 A 
ATOM     20  N   UNL     1       2.373   2.514  17.911  0.00  0.00    +0.000 NA
ATOM     21  C   UNL     1       1.383   2.202  18.772  0.00  0.00    +0.000 A 
ATOM     22  C   UNL     1       0.833   3.103  19.657  0.00  0.00    +0.000 A 
ATOM     23  C   UNL     1       1.331   4.405  19.658  0.00  0.00    +0.000 A 
ATOM     24  C   UNL     1       2.372   4.786  18.782  0.00  0.00    +0.000 A 
ENDBRANCH  14  15
ENDBRANCH   2  14
TORSDOF 5
ENDMDL
MODEL 6
REMARK VINA RESULT:      -7.4      3.129      7.228
REMARK  Name = 
REMARK  6 active torsions:
REMARK  status: ('A' for Active; 'I' for Inactive)
REMARK    1  A    between atoms: C_1  and  O_2
REMARK    2  A    between atoms: O_2  and  C_3
REMARK    3  A    between atoms: C_3  and  C_5
REMARK    4  A    between atoms: C_9  and  N_10
REMARK    5  A    between atoms: C_11  and  C_13
REMARK    6  A    between atoms: C_13  and  C_14
REMARK                            x       y       z     vdW  Elec       q    Type
REMARK                         _______ _______ _______ _____ _____    ______ ____
ROOT
ATOM      1  N   UNL     1       3.014   6.923  18.808  0.00  0.00    +0.000 N 
ATOM      2  C   UNL     1       2.602   5.681  18.335  0.00  0.00    +0.000 C 
ATOM      3  O   UNL     1       1.569   5.456  17.709  0.00  0.00    +0.000 OA
ATOM      4  H   UNL     1       3.969   7.034  19.136  0.00  0.00    +0.000 HD
ENDROOT
BRANCH   1   9
ATOM      5  C   UNL     1       1.354   8.518  19.715  0.00  0.00    +0.000 A 
ATOM      6  S   UNL     1       0.590  10.003  19.274  0.00  0.00    +0.000 S 
ATOM      7  C   UNL     1       1.429  10.090  17.803  0.00  0.00    +0.000 A 
ATOM      8  C   UNL     1       2.256   9.009  17.627  0.00  0.00    +0.000 A 
ATOM      9  C   UNL     1       2.246   8.092  18.731  0.00  0.00    +0.000 A 
BRANCH   5  10
ATOM     10  C   UNL     1       0.992   7.984  21.020  0.00  0.00    +0.000 C 
ATOM     11  O   UNL     1       1.450   6.967  21.536  0.00  0.00    +0.000 OA
BRANCH  10  13
ATOM     12  C   UNL     1       0.490   9.309  22.874  0.00  0.00    +0.000 C 
ATOM     13  O   UNL     1       0.042   8.763  21.626  0.00  0.00    +0.000 OA
ENDBRANCH  10  13
ENDBRANCH   5  10
ENDBRANCH   1   9
BRANCH   2  14
ATOM     14  C   UNL     1       3.549   4.541  18.669  0.00  0.00    +0.000 C 
BRANCH  14  15
ATOM     15  C   UNL     1       5.002   4.847  18.374  0.00  0.00    +0.000 A 
ATOM     16  C   UNL     1       5.809   5.243  19.454  0.00  0.00    +0.000 A 
ATOM     17  C   UNL     1       7.159   5.506  19.263  0.00  0.00    +0.000 A 
ATOM     18  C   UNL     1       7.715   5.374  17.993  0.00  0.00    +0.000 A 
ATOM     19  C   UNL     1       6.959   4.996  16.895  0.00  0.00    +0.000 A 
ATOM     20  N   UNL     1       7.591   4.892  15.714  0.00  0.00    +0.000 NA
ATOM     21  C   UNL     1       6.871   4.528  14.634  0.00  0.00    +0.000 A 
ATOM     22  C   UNL     1       5.522   4.256  14.676  0.00  0.00    +0.000 A 
ATOM     23  C   UNL     1       4.872   4.363  15.904  0.00  0.00    +0.000 A 
ATOM     24  C   UNL     1       5.578   4.735  17.071  0.00  0.00    +0.000 A 
ENDBRANCH  14  15
ENDBRANCH   2  14
TORSDOF 5
ENDMDL
MODEL 7
REMARK VINA RESULT:      -7.4      4.413      7.411
REMARK  Name = 
REMARK  6 active torsions:
REMARK  status: ('A' for Active; 'I' for Inactive)
REMARK    1  A    between atoms: C_1  and  O_2
REMARK    2  A    between atoms: O_2  and  C_3
REMARK    3  A    between atoms: C_3  and  C_5
REMARK    4  A    between atoms: C_9  and  N_10
REMARK    5  A    between atoms: C_11  and  C_13
REMARK    6  A    between atoms: C_13  and  C_14
REMARK                            x       y       z     vdW  Elec       q    Type
REMARK                         _______ _______ _______ _____ _____    ______ ____
ROOT
ATOM      1  N   UNL     1       0.863   9.415  19.726  0.00  0.00    +0.000 N 
ATOM      2  C   UNL     1       0.702   8.373  20.635  0.00  0.00    +0.000 C 
ATOM      3  O   UNL     1      -0.338   8.089  21.225  0.00  0.00    +0.000 OA
ATOM      4  H   UNL     1       1.700   9.441  19.151  0.00  0.00    +0.000 HD
ENDROOT
BRANCH   1   9
ATOM      5  C   UNL     1      -0.407  11.478  20.224  0.00  0.00    +0.000 A 
ATOM      6  S   UNL     1      -1.679  12.428  19.543  0.00  0.00    +0.000 S 
ATOM      7  C   UNL     1      -1.850  11.390  18.213  0.00  0.00    +0.000 A 
ATOM      8  C   UNL     1      -0.982  10.328  18.284  0.00  0.00    +0.000 A 
ATOM      9  C   UNL     1      -0.121  10.366  19.432  0.00  0.00    +0.000 A 
BRANCH   5  10
ATOM     10  C   UNL     1       0.177  11.992  21.455  0.00  0.00    +0.000 C 
ATOM     11  O   UNL     1       0.677  13.104  21.607  0.00  0.00    +0.000 OA
BRANCH  10  13
ATOM     12  C   UNL     1      -1.189  10.977  23.051  0.00  0.00    +0.000 C 
ATOM     13  O   UNL     1       0.114  11.062  22.458  0.00  0.00    +0.000 OA
ENDBRANCH  10  13
ENDBRANCH   5  10
ENDBRANCH   1   9
BRANCH   2  14
ATOM     14  C   UNL     1       1.962   7.565  20.889  0.00  0.00    +0.000 C 
BRANCH  14  15
ATOM     15  C   UNL     1       2.341   6.649  19.745  0.00  0.00    +0.000 A 
ATOM     16  C   UNL     1       3.061   7.213  18.678  0.00  0.00    +0.000 A 
ATOM     17  C   UNL     1       3.472   6.424  17.612  0.00  0.00    +0.000 A 
ATOM     18  C   UNL     1       3.169   5.065  17.603  0.00  0.00    +0.000 A 
ATOM     19  C   UNL     1       2.455   4.463  18.626  0.00  0.00    +0.000 A 
ATOM     20  N   UNL     1       2.220   3.144  18.526  0.00  0.00    +0.000 NA
ATOM     21  C   UNL     1       1.524   2.542  19.511  0.00  0.00    +0.000 A 
ATOM     22  C   UNL     1       1.040   3.207  20.616  0.00  0.00    +0.000 A 
ATOM     23  C   UNL     1       1.289   4.575  20.716  0.00  0.00    +0.000 A 
ATOM     24  C   UNL     1       2.019   5.257  19.716  0.00  0.00    +0.000 A 
ENDBRANCH  14  15
ENDBRANCH   2  14
TORSDOF 5
ENDMDL
MODEL 8
REMARK VINA RESULT:      -7.4      3.189      7.358
REMARK  Name = 
REMARK  6 active torsions:
REMARK  status: ('A' for Active; 'I' for Inactive)
REMARK    1  A    between atoms: C_1  and  O_2
REMARK    2  A    between atoms: O_2  and  C_3
REMARK    3  A    between atoms: C_3  and  C_5
REMARK    4  A    between atoms: C_9  and  N_10
REMARK    5  A    between atoms: C_11  and  C_13
REMARK    6  A    between atoms: C_13  and  C_14
REMARK                            x       y       z     vdW  Elec       q    Type
REMARK                         _______ _______ _______ _____ _____    ______ ____
ROOT
ATOM      1  N   UNL     1       2.234   6.995  19.071  0.00  0.00    +0.000 N 
ATOM      2  C   UNL     1       2.537   5.679  19.409  0.00  0.00    +0.000 C 
ATOM      3  O   UNL     1       2.346   5.156  20.504  0.00  0.00    +0.000 OA
ATOM      4  H   UNL     1       2.246   7.267  18.092  0.00  0.00    +0.000 HD
ENDROOT
BRANCH   1   9
ATOM      5  C   UNL     1       1.307   9.223  19.616  0.00  0.00    +0.000 A 
ATOM      6  S   UNL     1       0.802  10.127  20.999  0.00  0.00    +0.000 S 
ATOM      7  C   UNL     1       1.173   8.860  22.062  0.00  0.00    +0.000 A 
ATOM      8  C   UNL     1       1.693   7.776  21.398  0.00  0.00    +0.000 A 
ATOM      9  C   UNL     1       1.763   7.954  19.976  0.00  0.00    +0.000 A 
BRANCH   5  10
ATOM     10  C   UNL     1       1.143   9.888  18.331  0.00  0.00    +0.000 C 
ATOM     11  O   UNL     1       1.866   9.746  17.348  0.00  0.00    +0.000 OA
BRANCH  10  13
ATOM     12  C   UNL     1      -1.111  10.126  17.780  0.00  0.00    +0.000 C 
ATOM     13  O   UNL     1       0.062  10.728  18.344  0.00  0.00    +0.000 OA
ENDBRANCH  10  13
ENDBRANCH   5  10
ENDBRANCH   1   9
BRANCH   2  14
ATOM     14  C   UNL     1       3.171   4.876  18.286  0.00  0.00    +0.000 C 
BRANCH  14  15
ATOM     15  C   UNL     1       4.672   5.044  18.186  0.00  0.00    +0.000 A 
ATOM     16  C   UNL     1       5.367   5.344  19.370  0.00  0.00    +0.000 A 
ATOM     17  C   UNL     1       6.750   5.478  19.358  0.00  0.00    +0.000 A 
ATOM     18  C   UNL     1       7.449   5.311  18.166  0.00  0.00    +0.000 A 
ATOM     19  C   UNL     1       6.808   5.024  16.971  0.00  0.00    +0.000 A 
ATOM     20  N   UNL     1       7.574   4.876  15.877  0.00  0.00    +0.000 NA
ATOM     21  C   UNL     1       6.968   4.599  14.705  0.00  0.00    +0.000 A 
ATOM     22  C   UNL     1       5.605   4.459  14.569  0.00  0.00    +0.000 A 
ATOM     23  C   UNL     1       4.815   4.611  15.708  0.00  0.00    +0.000 A 
ATOM     24  C   UNL     1       5.397   4.895  16.964  0.00  0.00    +0.000 A 
ENDBRANCH  14  15
ENDBRANCH   2  14
TORSDOF 5
ENDMDL
MODEL 9
REMARK VINA RESULT:      -7.4      3.804      7.601
REMARK  Name = 
REMARK  6 active torsions:
REMARK  status: ('A' for Active; 'I' for Inactive)
REMARK    1  A    between atoms: C_1  and  O_2
REMARK    2  A    between atoms: O_2  and  C_3
REMARK    3  A    between atoms: C_3  and  C_5
REMARK    4  A    between atoms: C_9  and  N_10
REMARK    5  A    between atoms: C_11  and  C_13
REMARK    6  A    between atoms: C_13  and  C_14
REMARK                            x       y       z     vdW  Elec       q    Type
REMARK                         _______ _______ _______ _____ _____    ______ ____
ROOT
ATOM      1  N   UNL     1       1.105   8.958  19.758  0.00  0.00    +0.000 N 
ATOM      2  C   UNL     1       1.915   8.251  18.873  0.00  0.00    +0.000 C 
ATOM      3  O   UNL     1       2.007   8.453  17.665  0.00  0.00    +0.000 OA
ATOM      4  H   UNL     1       1.251   8.844  20.757  0.00  0.00    +0.000 HD
ENDROOT
BRANCH   1   9
ATOM      5  C   UNL     1      -0.172  11.038  20.159  0.00  0.00    +0.000 A 
ATOM      6  S   UNL     1      -1.326  12.041  19.354  0.00  0.00    +0.000 S 
ATOM      7  C   UNL     1      -1.349  11.048  17.980  0.00  0.00    +0.000 A 
ATOM      8  C   UNL     1      -0.521   9.962  18.125  0.00  0.00    +0.000 A 
ATOM      9  C   UNL     1       0.188   9.943  19.373  0.00  0.00    +0.000 A 
BRANCH   5  10
ATOM     10  C   UNL     1       0.262  11.501  21.469  0.00  0.00    +0.000 C 
ATOM     11  O   UNL     1       0.330  12.671  21.836  0.00  0.00    +0.000 OA
BRANCH  10  13
ATOM     12  C   UNL     1      -0.482   9.985  23.079  0.00  0.00    +0.000 C 
ATOM     13  O   UNL     1       0.610  10.448  22.274  0.00  0.00    +0.000 OA
ENDBRANCH  10  13
ENDBRANCH   5  10
ENDBRANCH   1   9
BRANCH   2  14
ATOM     14  C   UNL     1       2.717   7.134  19.518  0.00  0.00    +0.000 C 
BRANCH  14  15
ATOM     15  C   UNL     1       2.806   5.880  18.674  0.00  0.00    +0.000 A 
ATOM     16  C   UNL     1       1.768   4.942  18.800  0.00  0.00    +0.000 A 
ATOM     17  C   UNL     1       1.767   3.786  18.030  0.00  0.00    +0.000 A 
ATOM     18  C   UNL     1       2.803   3.558  17.128  0.00  0.00    +0.000 A 
ATOM     19  C   UNL     1       3.854   4.448  16.973  0.00  0.00    +0.000 A 
ATOM     20  N   UNL     1       4.800   4.138  16.072  0.00  0.00    +0.000 NA
ATOM     21  C   UNL     1       5.832   4.990  15.910  0.00  0.00    +0.000 A 
ATOM     22  C   UNL     1       5.968   6.163  16.619  0.00  0.00    +0.000 A 
ATOM     23  C   UNL     1       4.982   6.480  17.552  0.00  0.00    +0.000 A 
ATOM     24  C   UNL     1       3.875   5.626  17.759  0.00  0.00    +0.000 A 
ENDBRANCH  14  15
ENDBRANCH   2  14
TORSDOF 5
ENDMDL
