MODEL 1
REMARK VINA RESULT:      -8.3      0.000      0.000
REMARK  Name = 
REMARK  7 active torsions:
REMARK  status: ('A' for Active; 'I' for Inactive)
REMARK    1  A    between atoms: C_1  and  O_2
REMARK    2  A    between atoms: O_2  and  C_3
REMARK    3  A    between atoms: C_6  and  C_7
REMARK    4  A    between atoms: N_9  and  C_10
REMARK    5  A    between atoms: C_15  and  C_16
REMARK    6  A    between atoms: C_18  and  C_19
REMARK    7  A    between atoms: C_24  and  C_25
REMARK                            x       y       z     vdW  Elec       q    Type
REMARK                         _______ _______ _______ _____ _____    ______ ____
ROOT
ATOM      1  C   UNL     1       2.876   3.930  18.931  0.00  0.00    +0.000 C 
ATOM      2  C   UNL     1       3.035   3.548  17.447  0.00  0.00    +0.000 C 
ATOM      3  C   UNL     1       4.500   3.797  17.098  0.00  0.00    +0.000 C 
ATOM      4  C   UNL     1       4.740   4.756  15.946  0.00  0.00    +0.000 C 
ATOM      5  N   UNL     1       6.190   4.846  15.748  0.00  0.00    +0.000 N 
ATOM      6  C   UNL     1       6.885   4.521  14.598  0.00  0.00    +0.000 C 
ATOM      7  C   UNL     1       6.153   3.975  13.395  0.00  0.00    +0.000 C 
ATOM      8  O   UNL     1       8.110   4.654  14.527  0.00  0.00    +0.000 OA
ATOM      9  C   UNL     1       6.961   5.288  16.945  0.00  0.00    +0.000 C 
ATOM     10  C   UNL     1       7.080   6.814  16.949  0.00  0.00    +0.000 C 
ATOM     11  C   UNL     1       6.379   4.838  18.329  0.00  0.00    +0.000 C 
ATOM     12  O   UNL     1       6.968   5.058  19.385  0.00  0.00    +0.000 OA
ATOM     13  N   UNL     1       5.107   4.305  18.305  0.00  0.00    +0.000 N 
ATOM     14  C   UNL     1       4.322   3.958  19.467  0.00  0.00    +0.000 C 
ENDROOT
BRANCH   1  17
ATOM     15  C   UNL     1       2.040   5.817  20.355  0.00  0.00    +0.000 C 
ATOM     16  O   UNL     1       2.277   5.235  21.404  0.00  0.00    +0.000 OA
ATOM     17  N   UNL     1       2.210   5.222  19.108  0.00  0.00    +0.000 N 
ATOM     18  H   UNL     1       2.247   5.850  18.314  0.00  0.00    +0.000 HD
BRANCH  15  22
ATOM     19  C   UNL     1       0.466   9.845  20.384  0.00  0.00    +0.000 A 
ATOM     20  C   UNL     1       0.242   8.977  21.443  0.00  0.00    +0.000 A 
ATOM     21  C   UNL     1       0.794   7.691  21.419  0.00  0.00    +0.000 A 
ATOM     22  C   UNL     1       1.558   7.240  20.323  0.00  0.00    +0.000 A 
ATOM     23  C   UNL     1       1.820   8.131  19.262  0.00  0.00    +0.000 A 
ATOM     24  C   UNL     1       2.720   7.849  18.091  0.00  0.00    +0.000 C 
ATOM     25  C   UNL     1       1.246   9.422  19.307  0.00  0.00    +0.000 A 
BRANCH  19  27
ATOM     26  C   UNL     1      -0.777  11.390  19.103  0.00  0.00    +0.000 C 
ATOM     27  O   UNL     1      -0.035  11.113  20.287  0.00  0.00    +0.000 OA
ENDBRANCH  19  27
ENDBRANCH  15  22
ENDBRANCH   1  17
TORSDOF 3
ENDMDL
MODEL 2
REMARK VINA RESULT:      -7.9      1.267      1.424
REMARK  Name = 
REMARK  7 active torsions:
REMARK  status: ('A' for Active; 'I' for Inactive)
REMARK    1  A    between atoms: C_1  and  O_2
REMARK    2  A    between atoms: O_2  and  C_3
REMARK    3  A    between atoms: C_6  and  C_7
REMARK    4  A    between atoms: N_9  and  C_10
REMARK    5  A    between atoms: C_15  and  C_16
REMARK    6  A    between atoms: C_18  and  C_19
REMARK    7  A    between atoms: C_24  and  C_25
REMARK                            x       y       z     vdW  Elec       q    Type
REMARK                         _______ _______ _______ _____ _____    ______ ____
ROOT
ATOM      1  C   UNL     1       3.372   4.634  19.778  0.00  0.00    +0.000 C 
ATOM      2  C   UNL     1       3.248   4.371  18.265  0.00  0.00    +0.000 C 
ATOM      3  C   UNL     1       4.660   4.479  17.697  0.00  0.00    +0.000 C 
ATOM      4  C   UNL     1       4.840   5.505  16.591  0.00  0.00    +0.000 C 
ATOM      5  N   UNL     1       6.241   5.443  16.163  0.00  0.00    +0.000 N 
ATOM      6  C   UNL     1       6.701   5.145  14.893  0.00  0.00    +0.000 C 
ATOM      7  C   UNL     1       5.726   4.797  13.792  0.00  0.00    +0.000 C 
ATOM      8  O   UNL     1       7.907   5.141  14.630  0.00  0.00    +0.000 OA
ATOM      9  C   UNL     1       7.239   5.684  17.243  0.00  0.00    +0.000 C 
ATOM     10  C   UNL     1       7.552   7.179  17.335  0.00  0.00    +0.000 C 
ATOM     11  C   UNL     1       6.826   5.181  18.670  0.00  0.00    +0.000 C 
ATOM     12  O   UNL     1       7.596   5.235  19.626  0.00  0.00    +0.000 OA
ATOM     13  N   UNL     1       5.508   4.803  18.819  0.00  0.00    +0.000 N 
ATOM     14  C   UNL     1       4.875   4.447  20.068  0.00  0.00    +0.000 C 
ENDROOT
BRANCH   1  17
ATOM     15  C   UNL     1       2.197   6.793  19.285  0.00  0.00    +0.000 C 
ATOM     16  O   UNL     1       2.045   6.531  18.100  0.00  0.00    +0.000 OA
ATOM     17  N   UNL     1       2.913   5.973  20.152  0.00  0.00    +0.000 N 
ATOM     18  H   UNL     1       2.761   6.128  21.142  0.00  0.00    +0.000 HD
BRANCH  15  22
ATOM     19  C   UNL     1       0.360  10.193  21.228  0.00  0.00    +0.000 A 
ATOM     20  C   UNL     1       0.599   9.012  21.917  0.00  0.00    +0.000 A 
ATOM     21  C   UNL     1       1.226   7.941  21.269  0.00  0.00    +0.000 A 
ATOM     22  C   UNL     1       1.603   8.023  19.913  0.00  0.00    +0.000 A 
ATOM     23  C   UNL     1       1.397   9.233  19.220  0.00  0.00    +0.000 A 
ATOM     24  C   UNL     1       1.860   9.523  17.818  0.00  0.00    +0.000 C 
ATOM     25  C   UNL     1       0.756  10.297  19.895  0.00  0.00    +0.000 A 
BRANCH  19  27
ATOM     26  C   UNL     1      -1.061  11.058  22.901  0.00  0.00    +0.000 C 
ATOM     27  O   UNL     1      -0.259  11.294  21.748  0.00  0.00    +0.000 OA
ENDBRANCH  19  27
ENDBRANCH  15  22
ENDBRANCH   1  17
TORSDOF 3
ENDMDL
MODEL 3
REMARK VINA RESULT:      -7.8      1.127      1.841
REMARK  Name = 
REMARK  7 active torsions:
REMARK  status: ('A' for Active; 'I' for Inactive)
REMARK    1  A    between atoms: C_1  and  O_2
REMARK    2  A    between atoms: O_2  and  C_3
REMARK    3  A    between atoms: C_6  and  C_7
REMARK    4  A    between atoms: N_9  and  C_10
REMARK    5  A    between atoms: C_15  and  C_16
REMARK    6  A    between atoms: C_18  and  C_19
REMARK    7  A    between atoms: C_24  and  C_25
REMARK                            x       y       z     vdW  Elec       q    Type
REMARK                         _______ _______ _______ _____ _____    ______ ____
ROOT
ATOM      1  C   UNL     1       2.492   5.120  19.091  0.00  0.00    +0.000 C 
ATOM      2  C   UNL     1       2.703   4.544  17.678  0.00  0.00    +0.000 C 
ATOM      3  C   UNL     1       4.210   4.552  17.436  0.00  0.00    +0.000 C 
ATOM      4  C   UNL     1       4.668   5.325  16.212  0.00  0.00    +0.000 C 
ATOM      5  N   UNL     1       6.127   5.196  16.136  0.00  0.00    +0.000 N 
ATOM      6  C   UNL     1       6.851   4.646  15.094  0.00  0.00    +0.000 C 
ATOM      7  C   UNL     1       6.138   4.060  13.898  0.00  0.00    +0.000 C 
ATOM      8  O   UNL     1       8.084   4.606  15.119  0.00  0.00    +0.000 OA
ATOM      9  C   UNL     1       6.863   5.674  17.340  0.00  0.00    +0.000 C 
ATOM     10  C   UNL     1       7.197   7.160  17.188  0.00  0.00    +0.000 C 
ATOM     11  C   UNL     1       6.123   5.475  18.708  0.00  0.00    +0.000 C 
ATOM     12  O   UNL     1       6.658   5.741  19.782  0.00  0.00    +0.000 OA
ATOM     13  N   UNL     1       4.793   5.117  18.630  0.00  0.00    +0.000 N 
ATOM     14  C   UNL     1       3.884   5.021  19.748  0.00  0.00    +0.000 C 
ENDROOT
BRANCH   1  17
ATOM     15  C   UNL     1       1.619   7.185  20.214  0.00  0.00    +0.000 C 
ATOM     16  O   UNL     1       1.495   6.637  21.301  0.00  0.00    +0.000 OA
ATOM     17  N   UNL     1       2.005   6.500  19.065  0.00  0.00    +0.000 N 
ATOM     18  H   UNL     1       2.334   7.071  18.295  0.00  0.00    +0.000 HD
BRANCH  15  22
ATOM     19  C   UNL     1       1.098  11.422  19.524  0.00  0.00    +0.000 A 
ATOM     20  C   UNL     1       1.450  10.562  18.492  0.00  0.00    +0.000 A 
ATOM     21  C   UNL     1       1.578   9.191  18.741  0.00  0.00    +0.000 A 
ATOM     22  C   UNL     1       1.381   8.657  20.032  0.00  0.00    +0.000 A 
ATOM     23  C   UNL     1       0.986   9.521  21.073  0.00  0.00    +0.000 A 
ATOM     24  C   UNL     1       0.611   9.090  22.465  0.00  0.00    +0.000 C 
ATOM     25  C   UNL     1       0.870  10.902  20.798  0.00  0.00    +0.000 A 
BRANCH  19  27
ATOM     26  C   UNL     1      -0.120  13.215  18.591  0.00  0.00    +0.000 C 
ATOM     27  O   UNL     1       0.962  12.777  19.406  0.00  0.00    +0.000 OA
ENDBRANCH  19  27
ENDBRANCH  15  22
ENDBRANCH   1  17
TORSDOF 3
ENDMDL
MODEL 4
REMARK VINA RESULT:      -7.6      1.653      2.297
REMARK  Name = 
REMARK  7 active torsions:
REMARK  status: ('A' for Active; 'I' for Inactive)
REMARK    1  A    between atoms: C_1  and  O_2
REMARK    2  A    between atoms: O_2  and  C_3
REMARK    3  A    between atoms: C_6  and  C_7
REMARK    4  A    between atoms: N_9  and  C_10
REMARK    5  A    between atoms: C_15  and  C_16
REMARK    6  A    between atoms: C_18  and  C_19
REMARK    7  A    between atoms: C_24  and  C_25
REMARK                            x       y       z     vdW  Elec       q    Type
REMARK                         _______ _______ _______ _____ _____    ______ ____
ROOT
ATOM      1  C   UNL     1       2.600   5.622  19.488  0.00  0.00    +0.000 C 
ATOM      2  C   UNL     1       2.654   5.241  17.996  0.00  0.00    +0.000 C 
ATOM      3  C   UNL     1       4.125   4.998  17.672  0.00  0.00    +0.000 C 
ATOM      4  C   UNL     1       4.694   5.848  16.550  0.00  0.00    +0.000 C 
ATOM      5  N   UNL     1       6.095   5.455  16.373  0.00  0.00    +0.000 N 
ATOM      6  C   UNL     1       6.667   4.944  15.222  0.00  0.00    +0.000 C 
ATOM      7  C   UNL     1       5.820   4.697  13.996  0.00  0.00    +0.000 C 
ATOM      8  O   UNL     1       7.868   4.664  15.170  0.00  0.00    +0.000 OA
ATOM      9  C   UNL     1       6.944   5.591  17.590  0.00  0.00    +0.000 C 
ATOM     10  C   UNL     1       7.562   6.991  17.637  0.00  0.00    +0.000 C 
ATOM     11  C   UNL     1       6.217   5.329  18.954  0.00  0.00    +0.000 C 
ATOM     12  O   UNL     1       6.824   5.318  20.023  0.00  0.00    +0.000 OA
ATOM     13  N   UNL     1       4.841   5.249  18.900  0.00  0.00    +0.000 N 
ATOM     14  C   UNL     1       3.962   5.157  20.042  0.00  0.00    +0.000 C 
ENDROOT
BRANCH   1  17
ATOM     15  C   UNL     1       1.887   7.893  18.702  0.00  0.00    +0.000 C 
ATOM     16  O   UNL     1       1.733   7.531  17.544  0.00  0.00    +0.000 OA
ATOM     17  N   UNL     1       2.396   7.057  19.692  0.00  0.00    +0.000 N 
ATOM     18  H   UNL     1       2.238   7.350  20.649  0.00  0.00    +0.000 HD
BRANCH  15  22
ATOM     19  C   UNL     1       1.014  11.955  19.906  0.00  0.00    +0.000 A 
ATOM     20  C   UNL     1       1.595  11.677  18.676  0.00  0.00    +0.000 A 
ATOM     21  C   UNL     1       1.833  10.350  18.302  0.00  0.00    +0.000 A 
ATOM     22  C   UNL     1       1.519   9.277  19.161  0.00  0.00    +0.000 A 
ATOM     23  C   UNL     1       0.895   9.552  20.394  0.00  0.00    +0.000 A 
ATOM     24  C   UNL     1       0.381   8.518  21.359  0.00  0.00    +0.000 C 
ATOM     25  C   UNL     1       0.671  10.901  20.752  0.00  0.00    +0.000 A 
BRANCH  19  27
ATOM     26  C   UNL     1       1.056  14.279  19.499  0.00  0.00    +0.000 C 
ATOM     27  O   UNL     1       0.752  13.207  20.386  0.00  0.00    +0.000 OA
ENDBRANCH  19  27
ENDBRANCH  15  22
ENDBRANCH   1  17
TORSDOF 3
ENDMDL
MODEL 5
REMARK VINA RESULT:      -7.3      0.895      1.594
REMARK  Name = 
REMARK  7 active torsions:
REMARK  status: ('A' for Active; 'I' for Inactive)
REMARK    1  A    between atoms: C_1  and  O_2
REMARK    2  A    between atoms: O_2  and  C_3
REMARK    3  A    between atoms: C_6  and  C_7
REMARK    4  A    between atoms: N_9  and  C_10
REMARK    5  A    between atoms: C_15  and  C_16
REMARK    6  A    between atoms: C_18  and  C_19
REMARK    7  A    between atoms: C_24  and  C_25
REMARK                            x       y       z     vdW  Elec       q    Type
REMARK                         _______ _______ _______ _____ _____    ______ ____
ROOT
ATOM      1  C   UNL     1       2.599   4.014  18.643  0.00  0.00    +0.000 C 
ATOM      2  C   UNL     1       2.836   3.646  17.166  0.00  0.00    +0.000 C 
ATOM      3  C   UNL     1       4.332   3.821  16.918  0.00  0.00    +0.000 C 
ATOM      4  C   UNL     1       4.699   4.784  15.802  0.00  0.00    +0.000 C 
ATOM      5  N   UNL     1       6.162   4.798  15.702  0.00  0.00    +0.000 N 
ATOM      6  C   UNL     1       6.913   4.454  14.593  0.00  0.00    +0.000 C 
ATOM      7  C   UNL     1       6.235   3.965  13.335  0.00  0.00    +0.000 C 
ATOM      8  O   UNL     1       8.146   4.522  14.605  0.00  0.00    +0.000 OA
ATOM      9  C   UNL     1       6.873   5.181  16.954  0.00  0.00    +0.000 C 
ATOM     10  C   UNL     1       7.072   6.698  16.993  0.00  0.00    +0.000 C 
ATOM     11  C   UNL     1       6.178   4.741  18.288  0.00  0.00    +0.000 C 
ATOM     12  O   UNL     1       6.706   4.914  19.384  0.00  0.00    +0.000 OA
ATOM     13  N   UNL     1       4.884   4.278  18.172  0.00  0.00    +0.000 N 
ATOM     14  C   UNL     1       4.006   3.957  19.273  0.00  0.00    +0.000 C 
ENDROOT
BRANCH   1  17
ATOM     15  C   UNL     1       2.636   6.390  19.443  0.00  0.00    +0.000 C 
ATOM     16  O   UNL     1       3.676   6.245  20.071  0.00  0.00    +0.000 OA
ATOM     17  N   UNL     1       1.992   5.337  18.799  0.00  0.00    +0.000 N 
ATOM     18  H   UNL     1       1.306   5.594  18.099  0.00  0.00    +0.000 HD
BRANCH  15  22
ATOM     19  C   UNL     1       0.891  10.306  18.871  0.00  0.00    +0.000 A 
ATOM     20  C   UNL     1       1.542   9.649  17.836  0.00  0.00    +0.000 A 
ATOM     21  C   UNL     1       2.067   8.368  18.044  0.00  0.00    +0.000 A 
ATOM     22  C   UNL     1       1.972   7.730  19.297  0.00  0.00    +0.000 A 
ATOM     23  C   UNL     1       1.278   8.377  20.340  0.00  0.00    +0.000 A 
ATOM     24  C   UNL     1       0.977   7.778  21.687  0.00  0.00    +0.000 C 
ATOM     25  C   UNL     1       0.763   9.672  20.107  0.00  0.00    +0.000 A 
BRANCH  19  27
ATOM     26  C   UNL     1       1.093  12.582  19.459  0.00  0.00    +0.000 C 
ATOM     27  O   UNL     1       0.357  11.561  18.793  0.00  0.00    +0.000 OA
ENDBRANCH  19  27
ENDBRANCH  15  22
ENDBRANCH   1  17
TORSDOF 3
ENDMDL
MODEL 6
REMARK VINA RESULT:      -7.1      3.123      7.942
REMARK  Name = 
REMARK  7 active torsions:
REMARK  status: ('A' for Active; 'I' for Inactive)
REMARK    1  A    between atoms: C_1  and  O_2
REMARK    2  A    between atoms: O_2  and  C_3
REMARK    3  A    between atoms: C_6  and  C_7
REMARK    4  A    between atoms: N_9  and  C_10
REMARK    5  A    between atoms: C_15  and  C_16
REMARK    6  A    between atoms: C_18  and  C_19
REMARK    7  A    between atoms: C_24  and  C_25
REMARK                            x       y       z     vdW  Elec       q    Type
REMARK                         _______ _______ _______ _____ _____    ______ ____
ROOT
ATOM      1  C   UNL     1       5.134   7.175  16.708  0.00  0.00    +0.000 C 
ATOM      2  C   UNL     1       3.704   7.091  17.274  0.00  0.00    +0.000 C 
ATOM      3  C   UNL     1       3.768   6.120  18.450  0.00  0.00    +0.000 C 
ATOM      4  C   UNL     1       2.835   4.925  18.358  0.00  0.00    +0.000 C 
ATOM      5  N   UNL     1       3.022   4.131  19.577  0.00  0.00    +0.000 N 
ATOM      6  C   UNL     1       2.054   3.826  20.515  0.00  0.00    +0.000 C 
ATOM      7  C   UNL     1       0.649   4.360  20.362  0.00  0.00    +0.000 C 
ATOM      8  O   UNL     1       2.310   3.128  21.501  0.00  0.00    +0.000 OA
ATOM      9  C   UNL     1       4.417   3.666  19.816  0.00  0.00    +0.000 C 
ATOM     10  C   UNL     1       4.631   2.305  19.149  0.00  0.00    +0.000 C 
ATOM     11  C   UNL     1       5.547   4.636  19.324  0.00  0.00    +0.000 C 
ATOM     12  O   UNL     1       6.735   4.414  19.544  0.00  0.00    +0.000 OA
ATOM     13  N   UNL     1       5.140   5.677  18.515  0.00  0.00    +0.000 N 
ATOM     14  C   UNL     1       6.017   6.602  17.835  0.00  0.00    +0.000 C 
ENDROOT
BRANCH   1  17
ATOM     15  C   UNL     1       6.438   5.694  15.161  0.00  0.00    +0.000 C 
ATOM     16  O   UNL     1       7.464   5.773  15.822  0.00  0.00    +0.000 OA
ATOM     17  N   UNL     1       5.288   6.417  15.465  0.00  0.00    +0.000 N 
ATOM     18  H   UNL     1       4.429   6.092  15.036  0.00  0.00    +0.000 HD
BRANCH  15  22
ATOM     19  C   UNL     1       6.014   2.930  11.861  0.00  0.00    +0.000 A 
ATOM     20  C   UNL     1       5.072   2.987  12.879  0.00  0.00    +0.000 A 
ATOM     21  C   UNL     1       5.220   3.916  13.915  0.00  0.00    +0.000 A 
ATOM     22  C   UNL     1       6.327   4.788  13.967  0.00  0.00    +0.000 A 
ATOM     23  C   UNL     1       7.266   4.760  12.916  0.00  0.00    +0.000 A 
ATOM     24  C   UNL     1       8.422   5.710  12.757  0.00  0.00    +0.000 C 
ATOM     25  C   UNL     1       7.098   3.809  11.885  0.00  0.00    +0.000 A 
BRANCH  19  27
ATOM     26  C   UNL     1       6.361   0.717  11.120  0.00  0.00    +0.000 C 
ATOM     27  O   UNL     1       5.986   2.055  10.812  0.00  0.00    +0.000 OA
ENDBRANCH  19  27
ENDBRANCH  15  22
ENDBRANCH   1  17
TORSDOF 3
ENDMDL
MODEL 7
REMARK VINA RESULT:      -6.9      2.788      8.449
REMARK  Name = 
REMARK  7 active torsions:
REMARK  status: ('A' for Active; 'I' for Inactive)
REMARK    1  A    between atoms: C_1  and  O_2
REMARK    2  A    between atoms: O_2  and  C_3
REMARK    3  A    between atoms: C_6  and  C_7
REMARK    4  A    between atoms: N_9  and  C_10
REMARK    5  A    between atoms: C_15  and  C_16
REMARK    6  A    between atoms: C_18  and  C_19
REMARK    7  A    between atoms: C_24  and  C_25
REMARK                            x       y       z     vdW  Elec       q    Type
REMARK                         _______ _______ _______ _____ _____    ______ ____
ROOT
ATOM      1  C   UNL     1       0.746   8.323  21.601  0.00  0.00    +0.000 C 
ATOM      2  C   UNL     1       1.047   9.635  22.351  0.00  0.00    +0.000 C 
ATOM      3  C   UNL     1       0.278  10.731  21.618  0.00  0.00    +0.000 C 
ATOM      4  C   UNL     1       1.120  11.885  21.104  0.00  0.00    +0.000 C 
ATOM      5  N   UNL     1       0.210  12.836  20.459  0.00  0.00    +0.000 N 
ATOM      6  C   UNL     1       0.017  14.158  20.813  0.00  0.00    +0.000 C 
ATOM      7  C   UNL     1       0.750  14.745  21.996  0.00  0.00    +0.000 C 
ATOM      8  O   UNL     1      -0.761  14.885  20.188  0.00  0.00    +0.000 OA
ATOM      9  C   UNL     1      -0.606  12.270  19.348  0.00  0.00    +0.000 C 
ATOM     10  C   UNL     1       0.148  12.418  18.024  0.00  0.00    +0.000 C 
ATOM     11  C   UNL     1      -1.020  10.766  19.510  0.00  0.00    +0.000 C 
ATOM     12  O   UNL     1      -1.769  10.208  18.711  0.00  0.00    +0.000 OA
ATOM     13  N   UNL     1      -0.389  10.071  20.521  0.00  0.00    +0.000 N 
ATOM     14  C   UNL     1      -0.505   8.652  20.762  0.00  0.00    +0.000 C 
ENDROOT
BRANCH   1  17
ATOM     15  C   UNL     1       2.010   6.579  20.319  0.00  0.00    +0.000 C 
ATOM     16  O   UNL     1       1.321   5.659  20.738  0.00  0.00    +0.000 OA
ATOM     17  N   UNL     1       1.862   7.891  20.759  0.00  0.00    +0.000 N 
ATOM     18  H   UNL     1       2.279   8.608  20.176  0.00  0.00    +0.000 HD
BRANCH  15  22
ATOM     19  C   UNL     1       5.201   5.904  17.479  0.00  0.00    +0.000 A 
ATOM     20  C   UNL     1       5.051   5.098  18.600  0.00  0.00    +0.000 A 
ATOM     21  C   UNL     1       3.988   5.321  19.482  0.00  0.00    +0.000 A 
ATOM     22  C   UNL     1       3.069   6.370  19.274  0.00  0.00    +0.000 A 
ATOM     23  C   UNL     1       3.195   7.167  18.118  0.00  0.00    +0.000 A 
ATOM     24  C   UNL     1       2.226   8.234  17.687  0.00  0.00    +0.000 C 
ATOM     25  C   UNL     1       4.281   6.926  17.246  0.00  0.00    +0.000 A 
BRANCH  19  27
ATOM     26  C   UNL     1       7.198   4.814  16.853  0.00  0.00    +0.000 C 
ATOM     27  O   UNL     1       6.207   5.794  16.561  0.00  0.00    +0.000 OA
ENDBRANCH  19  27
ENDBRANCH  15  22
ENDBRANCH   1  17
TORSDOF 3
ENDMDL
MODEL 8
REMARK VINA RESULT:      -6.9      6.804     11.777
REMARK  Name = 
REMARK  7 active torsions:
REMARK  status: ('A' for Active; 'I' for Inactive)
REMARK    1  A    between atoms: C_1  and  O_2
REMARK    2  A    between atoms: O_2  and  C_3
REMARK    3  A    between atoms: C_6  and  C_7
REMARK    4  A    between atoms: N_9  and  C_10
REMARK    5  A    between atoms: C_15  and  C_16
REMARK    6  A    between atoms: C_18  and  C_19
REMARK    7  A    between atoms: C_24  and  C_25
REMARK                            x       y       z     vdW  Elec       q    Type
REMARK                         _______ _______ _______ _____ _____    ______ ____
ROOT
ATOM      1  C   UNL     1      -0.455  12.351  22.047  0.00  0.00    +0.000 C 
ATOM      2  C   UNL     1      -0.288  13.845  22.387  0.00  0.00    +0.000 C 
ATOM      3  C   UNL     1      -1.477  14.217  23.269  0.00  0.00    +0.000 C 
ATOM      4  C   UNL     1      -2.338  15.356  22.754  0.00  0.00    +0.000 C 
ATOM      5  N   UNL     1      -3.401  15.579  23.739  0.00  0.00    +0.000 N 
ATOM      6  C   UNL     1      -3.644  16.748  24.436  0.00  0.00    +0.000 C 
ATOM      7  C   UNL     1      -2.743  17.947  24.250  0.00  0.00    +0.000 C 
ATOM      8  O   UNL     1      -4.584  16.840  25.231  0.00  0.00    +0.000 OA
ATOM      9  C   UNL     1      -4.252  14.390  24.024  0.00  0.00    +0.000 C 
ATOM     10  C   UNL     1      -5.441  14.361  23.060  0.00  0.00    +0.000 C 
ATOM     11  C   UNL     1      -3.525  13.003  23.948  0.00  0.00    +0.000 C 
ATOM     12  O   UNL     1      -4.090  11.955  24.251  0.00  0.00    +0.000 OA
ATOM     13  N   UNL     1      -2.263  13.012  23.391  0.00  0.00    +0.000 N 
ATOM     14  C   UNL     1      -1.471  11.843  23.090  0.00  0.00    +0.000 C 
ENDROOT
BRANCH   1  17
ATOM     15  C   UNL     1      -0.971  10.883  20.082  0.00  0.00    +0.000 C 
ATOM     16  O   UNL     1      -0.453   9.896  20.583  0.00  0.00    +0.000 OA
ATOM     17  N   UNL     1      -0.934  12.140  20.680  0.00  0.00    +0.000 N 
ATOM     18  H   UNL     1      -1.603  12.819  20.335  0.00  0.00    +0.000 HD
BRANCH  15  22
ATOM     19  C   UNL     1      -3.304  10.719  16.443  0.00  0.00    +0.000 A 
ATOM     20  C   UNL     1      -3.720  11.473  17.532  0.00  0.00    +0.000 A 
ATOM     21  C   UNL     1      -2.925  11.533  18.683  0.00  0.00    +0.000 A 
ATOM     22  C   UNL     1      -1.713  10.819  18.776  0.00  0.00    +0.000 A 
ATOM     23  C   UNL     1      -1.268  10.083  17.659  0.00  0.00    +0.000 A 
ATOM     24  C   UNL     1       0.058   9.381  17.553  0.00  0.00    +0.000 C 
ATOM     25  C   UNL     1      -2.091  10.033  16.511  0.00  0.00    +0.000 A 
BRANCH  19  27
ATOM     26  C   UNL     1      -3.257  10.055  14.180  0.00  0.00    +0.000 C 
ATOM     27  O   UNL     1      -4.002  10.570  15.278  0.00  0.00    +0.000 OA
ENDBRANCH  19  27
ENDBRANCH  15  22
ENDBRANCH   1  17
TORSDOF 3
ENDMDL
MODEL 9
REMARK VINA RESULT:      -6.9      3.275      6.024
REMARK  Name = 
REMARK  7 active torsions:
REMARK  status: ('A' for Active; 'I' for Inactive)
REMARK    1  A    between atoms: C_1  and  O_2
REMARK    2  A    between atoms: O_2  and  C_3
REMARK    3  A    between atoms: C_6  and  C_7
REMARK    4  A    between atoms: N_9  and  C_10
REMARK    5  A    between atoms: C_15  and  C_16
REMARK    6  A    between atoms: C_18  and  C_19
REMARK    7  A    between atoms: C_24  and  C_25
REMARK                            x       y       z     vdW  Elec       q    Type
REMARK                         _______ _______ _______ _____ _____    ______ ____
ROOT
ATOM      1  C   UNL     1       1.002   9.019  20.643  0.00  0.00    +0.000 C 
ATOM      2  C   UNL     1       0.825   7.777  21.537  0.00  0.00    +0.000 C 
ATOM      3  C   UNL     1       1.667   6.673  20.903  0.00  0.00    +0.000 C 
ATOM      4  C   UNL     1       0.912   5.406  20.539  0.00  0.00    +0.000 C 
ATOM      5  N   UNL     1       1.885   4.466  19.974  0.00  0.00    +0.000 N 
ATOM      6  C   UNL     1       2.193   3.209  20.461  0.00  0.00    +0.000 C 
ATOM      7  C   UNL     1       1.534   2.698  21.721  0.00  0.00    +0.000 C 
ATOM      8  O   UNL     1       3.015   2.484  19.895  0.00  0.00    +0.000 OA
ATOM      9  C   UNL     1       2.628   4.971  18.785  0.00  0.00    +0.000 C 
ATOM     10  C   UNL     1       1.862   4.620  17.507  0.00  0.00    +0.000 C 
ATOM     11  C   UNL     1       2.921   6.512  18.774  0.00  0.00    +0.000 C 
ATOM     12  O   UNL     1       3.604   7.038  17.899  0.00  0.00    +0.000 OA
ATOM     13  N   UNL     1       2.255   7.260  19.723  0.00  0.00    +0.000 N 
ATOM     14  C   UNL     1       2.259   8.702  19.807  0.00  0.00    +0.000 C 
ENDROOT
BRANCH   1  17
ATOM     15  C   UNL     1      -0.521  10.540  19.358  0.00  0.00    +0.000 C 
ATOM     16  O   UNL     1       0.004  11.558  19.787  0.00  0.00    +0.000 OA
ATOM     17  N   UNL     1      -0.163   9.267  19.793  0.00  0.00    +0.000 N 
ATOM     18  H   UNL     1      -0.451   8.495  19.202  0.00  0.00    +0.000 HD
BRANCH  15  22
ATOM     19  C   UNL     1      -3.436  10.606  16.164  0.00  0.00    +0.000 A 
ATOM     20  C   UNL     1      -2.321   9.782  16.103  0.00  0.00    +0.000 A 
ATOM     21  C   UNL     1      -1.413   9.759  17.169  0.00  0.00    +0.000 A 
ATOM     22  C   UNL     1      -1.591  10.577  18.303  0.00  0.00    +0.000 A 
ATOM     23  C   UNL     1      -2.742  11.387  18.386  0.00  0.00    +0.000 A 
ATOM     24  C   UNL     1      -3.142  12.212  19.578  0.00  0.00    +0.000 C 
ATOM     25  C   UNL     1      -3.640  11.398  17.294  0.00  0.00    +0.000 A 
BRANCH  19  27
ATOM     26  C   UNL     1      -4.062  10.088  13.949  0.00  0.00    +0.000 C 
ATOM     27  O   UNL     1      -4.377  10.728  15.181  0.00  0.00    +0.000 OA
ENDBRANCH  19  27
ENDBRANCH  15  22
ENDBRANCH   1  17
TORSDOF 3
ENDMDL
