MODEL 1
REMARK VINA RESULT:      -9.3      0.000      0.000
REMARK  Name = 
REMARK  8 active torsions:
REMARK  status: ('A' for Active; 'I' for Inactive)
REMARK    1  A    between atoms: C_1  and  C_2
REMARK    2  A    between atoms: C_2  and  C_3
REMARK    3  A    between atoms: C_2  and  C_4
REMARK    4  A    between atoms: C_2  and  N_5
REMARK    5  A    between atoms: C_6  and  C_7
REMARK    6  A    between atoms: C_17  and  C_18
REMARK    7  A    between atoms: N_22  and  C_23
REMARK    8  A    between atoms: C_23  and  C_24
REMARK                            x       y       z     vdW  Elec       q    Type
REMARK                         _______ _______ _______ _____ _____    ______ ____
ROOT
ATOM      1  N   UNL     1       3.076   4.808  18.916  0.00  0.00    +0.000 N 
ATOM      2  C   UNL     1       3.881   5.576  18.039  0.00  0.00    +0.000 A 
ATOM      3  N   UNL     1       3.640   6.871  18.212  0.00  0.00    +0.000 NA
ATOM      4  C   UNL     1       2.676   6.983  19.166  0.00  0.00    +0.000 A 
ATOM      5  C   UNL     1       2.084   8.159  19.693  0.00  0.00    +0.000 A 
ATOM      6  C   UNL     1       1.100   8.084  20.696  0.00  0.00    +0.000 A 
ATOM      7  C   UNL     1       0.755   6.807  21.151  0.00  0.00    +0.000 A 
ATOM      8  C   UNL     1       1.322   5.636  20.636  0.00  0.00    +0.000 A 
ATOM      9  C   UNL     1       2.295   5.726  19.630  0.00  0.00    +0.000 A 
ENDROOT
BRANCH   6  10
ATOM     10  C   UNL     1       0.454   9.262  21.305  0.00  0.00    +0.000 A 
ATOM     11  C   UNL     1       0.246  10.443  20.611  0.00  0.00    +0.000 A 
ATOM     12  N   UNL     1      -0.453  11.504  21.067  0.00  0.00    +0.000 NA
ATOM     13  C   UNL     1      -1.028  11.379  22.264  0.00  0.00    +0.000 A 
ATOM     14  N   UNL     1      -1.906  12.390  22.606  0.00  0.00    +0.000 N 
ATOM     15  N   UNL     1      -0.842  10.319  23.060  0.00  0.00    +0.000 NA
ATOM     16  C   UNL     1      -0.089   9.299  22.574  0.00  0.00    +0.000 A 
ATOM     17  H   UNL     1      -1.366  13.229  22.784  0.00  0.00    +0.000 HD
BRANCH  14  18
ATOM     18  C   UNL     1      -2.871  12.077  23.644  0.00  0.00    +0.000 C 
BRANCH  18  19
ATOM     19  C   UNL     1      -4.164  12.840  23.393  0.00  0.00    +0.000 A 
ATOM     20  C   UNL     1      -4.171  13.929  22.512  0.00  0.00    +0.000 A 
ATOM     21  C   UNL     1      -5.369  14.588  22.251  0.00  0.00    +0.000 A 
ATOM     22  C   UNL     1      -6.528  14.146  22.874  0.00  0.00    +0.000 A 
ATOM     23  C   UNL     1      -6.434  13.068  23.738  0.00  0.00    +0.000 A 
ATOM     24  F   UNL     1      -7.553  12.638  24.338  0.00  0.00    +0.000 F 
ATOM     25  N   UNL     1      -5.288  12.402  24.011  0.00  0.00    +0.000 NA
ENDBRANCH  18  19
ENDBRANCH  14  18
ENDBRANCH   6  10
BRANCH   2  26
ATOM     26  C   UNL     1       4.916   5.105  17.091  0.00  0.00    +0.000 A 
ATOM     27  C   UNL     1       4.684   5.047  15.719  0.00  0.00    +0.000 A 
ATOM     28  C   UNL     1       5.727   4.689  14.861  0.00  0.00    +0.000 A 
ATOM     29  C   UNL     1       6.973   4.397  15.394  0.00  0.00    +0.000 A 
ATOM     30  C   UNL     1       7.107   4.433  16.764  0.00  0.00    +0.000 A 
ATOM     31  F   UNL     1       8.304   4.176  17.310  0.00  0.00    +0.000 F 
ATOM     32  N   UNL     1       6.109   4.761  17.606  0.00  0.00    +0.000 NA
ENDBRANCH   2  26
BRANCH   1  34
ATOM     33  C   UNL     1       4.408   2.936  19.898  0.00  0.00    +0.000 C 
ATOM     34  C   UNL     1       3.129   3.328  19.120  0.00  0.00    +0.000 C 
ATOM     35  C   UNL     1       2.946   2.547  17.792  0.00  0.00    +0.000 C 
ATOM     36  C   UNL     1       1.985   2.748  19.998  0.00  0.00    +0.000 C 
ENDBRANCH   1  34
TORSDOF 5
ENDMDL
MODEL 2
REMARK VINA RESULT:      -9.2      0.983      1.369
REMARK  Name = 
REMARK  8 active torsions:
REMARK  status: ('A' for Active; 'I' for Inactive)
REMARK    1  A    between atoms: C_1  and  C_2
REMARK    2  A    between atoms: C_2  and  C_3
REMARK    3  A    between atoms: C_2  and  C_4
REMARK    4  A    between atoms: C_2  and  N_5
REMARK    5  A    between atoms: C_6  and  C_7
REMARK    6  A    between atoms: C_17  and  C_18
REMARK    7  A    between atoms: N_22  and  C_23
REMARK    8  A    between atoms: C_23  and  C_24
REMARK                            x       y       z     vdW  Elec       q    Type
REMARK                         _______ _______ _______ _____ _____    ______ ____
ROOT
ATOM      1  N   UNL     1       3.039   4.840  19.096  0.00  0.00    +0.000 N 
ATOM      2  C   UNL     1       3.843   5.521  18.149  0.00  0.00    +0.000 A 
ATOM      3  N   UNL     1       3.627   6.830  18.223  0.00  0.00    +0.000 NA
ATOM      4  C   UNL     1       2.682   7.035  19.180  0.00  0.00    +0.000 A 
ATOM      5  C   UNL     1       2.120   8.260  19.622  0.00  0.00    +0.000 A 
ATOM      6  C   UNL     1       1.152   8.282  20.644  0.00  0.00    +0.000 A 
ATOM      7  C   UNL     1       0.792   7.052  21.202  0.00  0.00    +0.000 A 
ATOM      8  C   UNL     1       1.330   5.833  20.773  0.00  0.00    +0.000 A 
ATOM      9  C   UNL     1       2.287   5.826  19.748  0.00  0.00    +0.000 A 
ENDROOT
BRANCH   6  10
ATOM     10  C   UNL     1       0.537   9.517  21.167  0.00  0.00    +0.000 A 
ATOM     11  C   UNL     1       0.120  10.551  20.346  0.00  0.00    +0.000 A 
ATOM     12  N   UNL     1      -0.565  11.642  20.750  0.00  0.00    +0.000 NA
ATOM     13  C   UNL     1      -0.907  11.697  22.038  0.00  0.00    +0.000 A 
ATOM     14  N   UNL     1      -1.784  12.710  22.374  0.00  0.00    +0.000 N 
ATOM     15  N   UNL     1      -0.504  10.797  22.944  0.00  0.00    +0.000 NA
ATOM     16  C   UNL     1       0.226   9.745  22.493  0.00  0.00    +0.000 A 
ATOM     17  H   UNL     1      -1.286  13.591  22.313  0.00  0.00    +0.000 HD
BRANCH  14  18
ATOM     18  C   UNL     1      -2.523  12.536  23.611  0.00  0.00    +0.000 C 
BRANCH  18  19
ATOM     19  C   UNL     1      -4.018  12.580  23.329  0.00  0.00    +0.000 A 
ATOM     20  C   UNL     1      -4.926  12.673  24.391  0.00  0.00    +0.000 A 
ATOM     21  C   UNL     1      -6.288  12.763  24.120  0.00  0.00    +0.000 A 
ATOM     22  C   UNL     1      -6.711  12.758  22.798  0.00  0.00    +0.000 A 
ATOM     23  C   UNL     1      -5.750  12.655  21.806  0.00  0.00    +0.000 A 
ATOM     24  F   UNL     1      -6.157  12.654  20.528  0.00  0.00    +0.000 F 
ATOM     25  N   UNL     1      -4.419  12.570  22.033  0.00  0.00    +0.000 NA
ENDBRANCH  18  19
ENDBRANCH  14  18
ENDBRANCH   6  10
BRANCH   2  26
ATOM     26  C   UNL     1       4.853   4.958  17.225  0.00  0.00    +0.000 A 
ATOM     27  C   UNL     1       4.552   4.666  15.898  0.00  0.00    +0.000 A 
ATOM     28  C   UNL     1       5.568   4.229  15.044  0.00  0.00    +0.000 A 
ATOM     29  C   UNL     1       6.857   4.094  15.537  0.00  0.00    +0.000 A 
ATOM     30  C   UNL     1       7.061   4.359  16.873  0.00  0.00    +0.000 A 
ATOM     31  F   UNL     1       8.300   4.259  17.376  0.00  0.00    +0.000 F 
ATOM     32  N   UNL     1       6.090   4.767  17.713  0.00  0.00    +0.000 NA
ENDBRANCH   2  26
BRANCH   1  34
ATOM     33  C   UNL     1       2.592   2.552  18.198  0.00  0.00    +0.000 C 
ATOM     34  C   UNL     1       3.070   3.381  19.415  0.00  0.00    +0.000 C 
ATOM     35  C   UNL     1       2.311   3.051  20.727  0.00  0.00    +0.000 C 
ATOM     36  C   UNL     1       4.484   2.804  19.706  0.00  0.00    +0.000 C 
ENDBRANCH   1  34
TORSDOF 5
ENDMDL
MODEL 3
REMARK VINA RESULT:      -9.1      1.042      1.439
REMARK  Name = 
REMARK  8 active torsions:
REMARK  status: ('A' for Active; 'I' for Inactive)
REMARK    1  A    between atoms: C_1  and  C_2
REMARK    2  A    between atoms: C_2  and  C_3
REMARK    3  A    between atoms: C_2  and  C_4
REMARK    4  A    between atoms: C_2  and  N_5
REMARK    5  A    between atoms: C_6  and  C_7
REMARK    6  A    between atoms: C_17  and  C_18
REMARK    7  A    between atoms: N_22  and  C_23
REMARK    8  A    between atoms: C_23  and  C_24
REMARK                            x       y       z     vdW  Elec       q    Type
REMARK                         _______ _______ _______ _____ _____    ______ ____
ROOT
ATOM      1  N   UNL     1       3.172   4.874  18.914  0.00  0.00    +0.000 N 
ATOM      2  C   UNL     1       3.963   5.649  18.031  0.00  0.00    +0.000 A 
ATOM      3  N   UNL     1       3.708   6.942  18.204  0.00  0.00    +0.000 NA
ATOM      4  C   UNL     1       2.748   7.045  19.163  0.00  0.00    +0.000 A 
ATOM      5  C   UNL     1       2.146   8.215  19.691  0.00  0.00    +0.000 A 
ATOM      6  C   UNL     1       1.169   8.131  20.700  0.00  0.00    +0.000 A 
ATOM      7  C   UNL     1       0.840   6.850  21.159  0.00  0.00    +0.000 A 
ATOM      8  C   UNL     1       1.418   5.685  20.643  0.00  0.00    +0.000 A 
ATOM      9  C   UNL     1       2.384   5.785  19.632  0.00  0.00    +0.000 A 
ENDROOT
BRANCH   6  10
ATOM     10  C   UNL     1       0.512   9.303  21.310  0.00  0.00    +0.000 A 
ATOM     11  C   UNL     1       0.336  10.497  20.633  0.00  0.00    +0.000 A 
ATOM     12  N   UNL     1      -0.369  11.556  21.087  0.00  0.00    +0.000 NA
ATOM     13  C   UNL     1      -0.983  11.413  22.262  0.00  0.00    +0.000 A 
ATOM     14  N   UNL     1      -1.864  12.424  22.595  0.00  0.00    +0.000 N 
ATOM     15  N   UNL     1      -0.831  10.336  23.043  0.00  0.00    +0.000 NA
ATOM     16  C   UNL     1      -0.071   9.320  22.562  0.00  0.00    +0.000 A 
ATOM     17  H   UNL     1      -1.323  13.255  22.807  0.00  0.00    +0.000 HD
BRANCH  14  18
ATOM     18  C   UNL     1      -2.864  12.100  23.596  0.00  0.00    +0.000 C 
BRANCH  18  19
ATOM     19  C   UNL     1      -4.241  12.519  23.103  0.00  0.00    +0.000 A 
ATOM     20  C   UNL     1      -4.432  12.835  21.752  0.00  0.00    +0.000 A 
ATOM     21  C   UNL     1      -5.706  13.168  21.301  0.00  0.00    +0.000 A 
ATOM     22  C   UNL     1      -6.757  13.178  22.208  0.00  0.00    +0.000 A 
ATOM     23  C   UNL     1      -6.483  12.863  23.529  0.00  0.00    +0.000 A 
ATOM     24  F   UNL     1      -7.498  12.869  24.404  0.00  0.00    +0.000 F 
ATOM     25  N   UNL     1      -5.259  12.530  23.999  0.00  0.00    +0.000 NA
ENDBRANCH  18  19
ENDBRANCH  14  18
ENDBRANCH   6  10
BRANCH   2  26
ATOM     26  C   UNL     1       4.998   5.189  17.078  0.00  0.00    +0.000 A 
ATOM     27  C   UNL     1       6.317   4.978  17.472  0.00  0.00    +0.000 A 
ATOM     28  C   UNL     1       7.230   4.449  16.556  0.00  0.00    +0.000 A 
ATOM     29  C   UNL     1       6.804   4.145  15.272  0.00  0.00    +0.000 A 
ATOM     30  C   UNL     1       5.495   4.427  14.950  0.00  0.00    +0.000 A 
ATOM     31  F   UNL     1       5.046   4.125  13.723  0.00  0.00    +0.000 F 
ATOM     32  N   UNL     1       4.606   4.950  15.815  0.00  0.00    +0.000 NA
ENDBRANCH   2  26
BRANCH   1  34
ATOM     33  C   UNL     1       3.095   2.655  17.769  0.00  0.00    +0.000 C 
ATOM     34  C   UNL     1       3.243   3.396  19.120  0.00  0.00    +0.000 C 
ATOM     35  C   UNL     1       2.251   2.907  20.207  0.00  0.00    +0.000 C 
ATOM     36  C   UNL     1       4.603   2.876  19.665  0.00  0.00    +0.000 C 
ENDBRANCH   1  34
TORSDOF 5
ENDMDL
MODEL 4
REMARK VINA RESULT:      -9.0      1.221      1.368
REMARK  Name = 
REMARK  8 active torsions:
REMARK  status: ('A' for Active; 'I' for Inactive)
REMARK    1  A    between atoms: C_1  and  C_2
REMARK    2  A    between atoms: C_2  and  C_3
REMARK    3  A    between atoms: C_2  and  C_4
REMARK    4  A    between atoms: C_2  and  N_5
REMARK    5  A    between atoms: C_6  and  C_7
REMARK    6  A    between atoms: C_17  and  C_18
REMARK    7  A    between atoms: N_22  and  C_23
REMARK    8  A    between atoms: C_23  and  C_24
REMARK                            x       y       z     vdW  Elec       q    Type
REMARK                         _______ _______ _______ _____ _____    ______ ____
ROOT
ATOM      1  N   UNL     1       3.517   5.185  18.555  0.00  0.00    +0.000 N 
ATOM      2  C   UNL     1       4.110   5.946  17.517  0.00  0.00    +0.000 A 
ATOM      3  N   UNL     1       3.697   7.207  17.581  0.00  0.00    +0.000 NA
ATOM      4  C   UNL     1       2.823   7.299  18.620  0.00  0.00    +0.000 A 
ATOM      5  C   UNL     1       2.116   8.438  19.085  0.00  0.00    +0.000 A 
ATOM      6  C   UNL     1       1.256   8.348  20.195  0.00  0.00    +0.000 A 
ATOM      7  C   UNL     1       1.150   7.099  20.816  0.00  0.00    +0.000 A 
ATOM      8  C   UNL     1       1.833   5.964  20.366  0.00  0.00    +0.000 A 
ATOM      9  C   UNL     1       2.680   6.067  19.253  0.00  0.00    +0.000 A 
ENDROOT
BRANCH   6  10
ATOM     10  C   UNL     1       0.503   9.491  20.746  0.00  0.00    +0.000 A 
ATOM     11  C   UNL     1      -0.156  10.408  19.945  0.00  0.00    +0.000 A 
ATOM     12  N   UNL     1      -0.966  11.394  20.389  0.00  0.00    +0.000 NA
ATOM     13  C   UNL     1      -1.182  11.450  21.704  0.00  0.00    +0.000 A 
ATOM     14  N   UNL     1      -2.175  12.325  22.102  0.00  0.00    +0.000 N 
ATOM     15  N   UNL     1      -0.549  10.667  22.586  0.00  0.00    +0.000 NA
ATOM     16  C   UNL     1       0.294   9.726  22.091  0.00  0.00    +0.000 A 
ATOM     17  H   UNL     1      -1.836  13.270  21.964  0.00  0.00    +0.000 HD
BRANCH  14  18
ATOM     18  C   UNL     1      -2.748  12.091  23.414  0.00  0.00    +0.000 C 
BRANCH  18  19
ATOM     19  C   UNL     1      -4.028  12.900  23.570  0.00  0.00    +0.000 A 
ATOM     20  C   UNL     1      -3.995  14.292  23.420  0.00  0.00    +0.000 A 
ATOM     21  C   UNL     1      -5.179  15.018  23.515  0.00  0.00    +0.000 A 
ATOM     22  C   UNL     1      -6.365  14.338  23.757  0.00  0.00    +0.000 A 
ATOM     23  C   UNL     1      -6.311  12.961  23.902  0.00  0.00    +0.000 A 
ATOM     24  F   UNL     1      -7.456  12.303  24.132  0.00  0.00    +0.000 F 
ATOM     25  N   UNL     1      -5.179  12.225  23.811  0.00  0.00    +0.000 NA
ENDBRANCH  18  19
ENDBRANCH  14  18
ENDBRANCH   6  10
BRANCH   2  26
ATOM     26  C   UNL     1       5.107   5.511  16.513  0.00  0.00    +0.000 A 
ATOM     27  C   UNL     1       6.476   5.627  16.740  0.00  0.00    +0.000 A 
ATOM     28  C   UNL     1       7.373   5.111  15.801  0.00  0.00    +0.000 A 
ATOM     29  C   UNL     1       6.881   4.495  14.661  0.00  0.00    +0.000 A 
ATOM     30  C   UNL     1       5.515   4.464  14.490  0.00  0.00    +0.000 A 
ATOM     31  F   UNL     1       5.007   3.856  13.408  0.00  0.00    +0.000 F 
ATOM     32  N   UNL     1       4.637   4.969  15.377  0.00  0.00    +0.000 NA
ENDBRANCH   2  26
BRANCH   1  34
ATOM     33  C   UNL     1       5.276   3.610  19.372  0.00  0.00    +0.000 C 
ATOM     34  C   UNL     1       3.808   3.762  18.904  0.00  0.00    +0.000 C 
ATOM     35  C   UNL     1       3.417   2.786  17.764  0.00  0.00    +0.000 C 
ATOM     36  C   UNL     1       2.992   3.202  20.103  0.00  0.00    +0.000 C 
ENDBRANCH   1  34
TORSDOF 5
ENDMDL
MODEL 5
REMARK VINA RESULT:      -9.0      1.244      1.363
REMARK  Name = 
REMARK  8 active torsions:
REMARK  status: ('A' for Active; 'I' for Inactive)
REMARK    1  A    between atoms: C_1  and  C_2
REMARK    2  A    between atoms: C_2  and  C_3
REMARK    3  A    between atoms: C_2  and  C_4
REMARK    4  A    between atoms: C_2  and  N_5
REMARK    5  A    between atoms: C_6  and  C_7
REMARK    6  A    between atoms: C_17  and  C_18
REMARK    7  A    between atoms: N_22  and  C_23
REMARK    8  A    between atoms: C_23  and  C_24
REMARK                            x       y       z     vdW  Elec       q    Type
REMARK                         _______ _______ _______ _____ _____    ______ ____
ROOT
ATOM      1  N   UNL     1       3.010   4.748  18.977  0.00  0.00    +0.000 N 
ATOM      2  C   UNL     1       3.865   5.489  18.123  0.00  0.00    +0.000 A 
ATOM      3  N   UNL     1       3.701   6.791  18.329  0.00  0.00    +0.000 NA
ATOM      4  C   UNL     1       2.739   6.936  19.281  0.00  0.00    +0.000 A 
ATOM      5  C   UNL     1       2.216   8.133  19.836  0.00  0.00    +0.000 A 
ATOM      6  C   UNL     1       1.223   8.091  20.832  0.00  0.00    +0.000 A 
ATOM      7  C   UNL     1       0.798   6.826  21.251  0.00  0.00    +0.000 A 
ATOM      8  C   UNL     1       1.297   5.636  20.709  0.00  0.00    +0.000 A 
ATOM      9  C   UNL     1       2.281   5.694  19.711  0.00  0.00    +0.000 A 
ENDROOT
BRANCH   6  10
ATOM     10  C   UNL     1       0.645   9.290  21.468  0.00  0.00    +0.000 A 
ATOM     11  C   UNL     1       0.955  10.576  21.058  0.00  0.00    +0.000 A 
ATOM     12  N   UNL     1       0.363  11.703  21.509  0.00  0.00    +0.000 NA
ATOM     13  C   UNL     1      -0.633  11.554  22.383  0.00  0.00    +0.000 A 
ATOM     14  N   UNL     1      -1.354  12.700  22.659  0.00  0.00    +0.000 N 
ATOM     15  N   UNL     1      -0.978  10.371  22.908  0.00  0.00    +0.000 NA
ATOM     16  C   UNL     1      -0.317   9.274  22.458  0.00  0.00    +0.000 A 
ATOM     17  H   UNL     1      -0.765  13.319  23.205  0.00  0.00    +0.000 HD
BRANCH  14  18
ATOM     18  C   UNL     1      -2.680  12.506  23.215  0.00  0.00    +0.000 C 
BRANCH  18  19
ATOM     19  C   UNL     1      -3.196  13.818  23.788  0.00  0.00    +0.000 A 
ATOM     20  C   UNL     1      -2.322  14.671  24.472  0.00  0.00    +0.000 A 
ATOM     21  C   UNL     1      -2.792  15.892  24.950  0.00  0.00    +0.000 A 
ATOM     22  C   UNL     1      -4.121  16.229  24.734  0.00  0.00    +0.000 A 
ATOM     23  C   UNL     1      -4.923  15.325  24.056  0.00  0.00    +0.000 A 
ATOM     24  F   UNL     1      -6.205  15.652  23.844  0.00  0.00    +0.000 F 
ATOM     25  N   UNL     1      -4.498  14.134  23.576  0.00  0.00    +0.000 NA
ENDBRANCH  18  19
ENDBRANCH  14  18
ENDBRANCH   6  10
BRANCH   2  26
ATOM     26  C   UNL     1       4.876   4.981  17.169  0.00  0.00    +0.000 A 
ATOM     27  C   UNL     1       4.584   4.794  15.820  0.00  0.00    +0.000 A 
ATOM     28  C   UNL     1       5.602   4.407  14.945  0.00  0.00    +0.000 A 
ATOM     29  C   UNL     1       6.883   4.214  15.438  0.00  0.00    +0.000 A 
ATOM     30  C   UNL     1       7.077   4.374  16.792  0.00  0.00    +0.000 A 
ATOM     31  F   UNL     1       8.309   4.216  17.297  0.00  0.00    +0.000 F 
ATOM     32  N   UNL     1       6.105   4.733  17.652  0.00  0.00    +0.000 NA
ENDBRANCH   2  26
BRANCH   1  34
ATOM     33  C   UNL     1       4.294   2.756  19.766  0.00  0.00    +0.000 C 
ATOM     34  C   UNL     1       2.972   3.264  19.142  0.00  0.00    +0.000 C 
ATOM     35  C   UNL     1       2.587   2.537  17.827  0.00  0.00    +0.000 C 
ATOM     36  C   UNL     1       1.889   2.743  20.128  0.00  0.00    +0.000 C 
ENDBRANCH   1  34
TORSDOF 5
ENDMDL
MODEL 6
REMARK VINA RESULT:      -9.0      2.791     12.022
REMARK  Name = 
REMARK  8 active torsions:
REMARK  status: ('A' for Active; 'I' for Inactive)
REMARK    1  A    between atoms: C_1  and  C_2
REMARK    2  A    between atoms: C_2  and  C_3
REMARK    3  A    between atoms: C_2  and  C_4
REMARK    4  A    between atoms: C_2  and  N_5
REMARK    5  A    between atoms: C_6  and  C_7
REMARK    6  A    between atoms: C_17  and  C_18
REMARK    7  A    between atoms: N_22  and  C_23
REMARK    8  A    between atoms: C_23  and  C_24
REMARK                            x       y       z     vdW  Elec       q    Type
REMARK                         _______ _______ _______ _____ _____    ______ ____
ROOT
ATOM      1  N   UNL     1      -0.656  11.120  19.537  0.00  0.00    +0.000 N 
ATOM      2  C   UNL     1      -0.394  11.157  20.929  0.00  0.00    +0.000 A 
ATOM      3  N   UNL     1       0.524  10.250  21.246  0.00  0.00    +0.000 NA
ATOM      4  C   UNL     1       0.862   9.594  20.103  0.00  0.00    +0.000 A 
ATOM      5  C   UNL     1       1.797   8.541  19.930  0.00  0.00    +0.000 A 
ATOM      6  C   UNL     1       2.030   7.986  18.657  0.00  0.00    +0.000 A 
ATOM      7  C   UNL     1       1.313   8.531  17.587  0.00  0.00    +0.000 A 
ATOM      8  C   UNL     1       0.381   9.563  17.742  0.00  0.00    +0.000 A 
ATOM      9  C   UNL     1       0.153  10.100  19.017  0.00  0.00    +0.000 A 
ENDROOT
BRANCH   6  10
ATOM     10  C   UNL     1       2.999   6.905  18.397  0.00  0.00    +0.000 A 
ATOM     11  C   UNL     1       2.615   5.641  17.981  0.00  0.00    +0.000 A 
ATOM     12  N   UNL     1       3.455   4.655  17.601  0.00  0.00    +0.000 NA
ATOM     13  C   UNL     1       4.757   4.945  17.581  0.00  0.00    +0.000 A 
ATOM     14  N   UNL     1       5.565   3.994  16.989  0.00  0.00    +0.000 N 
ATOM     15  N   UNL     1       5.257   6.104  18.027  0.00  0.00    +0.000 NA
ATOM     16  C   UNL     1       4.372   7.044  18.445  0.00  0.00    +0.000 A 
ATOM     17  H   UNL     1       5.600   3.185  17.599  0.00  0.00    +0.000 HD
BRANCH  14  18
ATOM     18  C   UNL     1       6.867   4.449  16.539  0.00  0.00    +0.000 C 
BRANCH  18  19
ATOM     19  C   UNL     1       6.923   4.430  15.018  0.00  0.00    +0.000 A 
ATOM     20  C   UNL     1       6.061   3.593  14.299  0.00  0.00    +0.000 A 
ATOM     21  C   UNL     1       6.085   3.621  12.907  0.00  0.00    +0.000 A 
ATOM     22  C   UNL     1       6.967   4.481  12.268  0.00  0.00    +0.000 A 
ATOM     23  C   UNL     1       7.793   5.270  13.052  0.00  0.00    +0.000 A 
ATOM     24  F   UNL     1       8.643   6.104  12.436  0.00  0.00    +0.000 F 
ATOM     25  N   UNL     1       7.792   5.271  14.405  0.00  0.00    +0.000 NA
ENDBRANCH  18  19
ENDBRANCH  14  18
ENDBRANCH   6  10
BRANCH   2  26
ATOM     26  C   UNL     1      -0.951  12.078  21.946  0.00  0.00    +0.000 A 
ATOM     27  C   UNL     1      -2.024  11.716  22.755  0.00  0.00    +0.000 A 
ATOM     28  C   UNL     1      -2.447  12.584  23.765  0.00  0.00    +0.000 A 
ATOM     29  C   UNL     1      -1.788  13.792  23.938  0.00  0.00    +0.000 A 
ATOM     30  C   UNL     1      -0.767  14.094  23.066  0.00  0.00    +0.000 A 
ATOM     31  F   UNL     1      -0.095  15.245  23.221  0.00  0.00    +0.000 F 
ATOM     32  N   UNL     1      -0.357  13.275  22.079  0.00  0.00    +0.000 NA
ENDBRANCH   2  26
BRANCH   1  34
ATOM     33  C   UNL     1      -0.772  13.364  18.444  0.00  0.00    +0.000 C 
ATOM     34  C   UNL     1      -1.530  12.053  18.763  0.00  0.00    +0.000 C 
ATOM     35  C   UNL     1      -2.900  12.280  19.453  0.00  0.00    +0.000 C 
ATOM     36  C   UNL     1      -1.955  11.536  17.360  0.00  0.00    +0.000 C 
ENDBRANCH   1  34
TORSDOF 5
ENDMDL
MODEL 7
REMARK VINA RESULT:      -9.0      1.343      1.753
REMARK  Name = 
REMARK  8 active torsions:
REMARK  status: ('A' for Active; 'I' for Inactive)
REMARK    1  A    between atoms: C_1  and  C_2
REMARK    2  A    between atoms: C_2  and  C_3
REMARK    3  A    between atoms: C_2  and  C_4
REMARK    4  A    between atoms: C_2  and  N_5
REMARK    5  A    between atoms: C_6  and  C_7
REMARK    6  A    between atoms: C_17  and  C_18
REMARK    7  A    between atoms: N_22  and  C_23
REMARK    8  A    between atoms: C_23  and  C_24
REMARK                            x       y       z     vdW  Elec       q    Type
REMARK                         _______ _______ _______ _____ _____    ______ ____
ROOT
ATOM      1  N   UNL     1       3.189   4.911  18.891  0.00  0.00    +0.000 N 
ATOM      2  C   UNL     1       3.967   5.672  17.983  0.00  0.00    +0.000 A 
ATOM      3  N   UNL     1       3.709   6.966  18.133  0.00  0.00    +0.000 NA
ATOM      4  C   UNL     1       2.761   7.085  19.102  0.00  0.00    +0.000 A 
ATOM      5  C   UNL     1       2.162   8.264  19.614  0.00  0.00    +0.000 A 
ATOM      6  C   UNL     1       1.197   8.197  20.637  0.00  0.00    +0.000 A 
ATOM      7  C   UNL     1       0.879   6.925  21.125  0.00  0.00    +0.000 A 
ATOM      8  C   UNL     1       1.455   5.751  20.625  0.00  0.00    +0.000 A 
ATOM      9  C   UNL     1       2.408   5.834  19.600  0.00  0.00    +0.000 A 
ENDROOT
BRANCH   6  10
ATOM     10  C   UNL     1       0.545   9.378  21.232  0.00  0.00    +0.000 A 
ATOM     11  C   UNL     1       0.217  10.503  20.492  0.00  0.00    +0.000 A 
ATOM     12  N   UNL     1      -0.495  11.556  20.947  0.00  0.00    +0.000 NA
ATOM     13  C   UNL     1      -0.958  11.478  22.195  0.00  0.00    +0.000 A 
ATOM     14  N   UNL     1      -1.855  12.465  22.555  0.00  0.00    +0.000 N 
ATOM     15  N   UNL     1      -0.650  10.478  23.031  0.00  0.00    +0.000 NA
ATOM     16  C   UNL     1       0.111   9.468  22.539  0.00  0.00    +0.000 A 
ATOM     17  H   UNL     1      -1.347  13.338  22.637  0.00  0.00    +0.000 HD
BRANCH  14  18
ATOM     18  C   UNL     1      -2.711  12.172  23.691  0.00  0.00    +0.000 C 
BRANCH  18  19
ATOM     19  C   UNL     1      -4.163  12.448  23.327  0.00  0.00    +0.000 A 
ATOM     20  C   UNL     1      -5.094  12.721  24.336  0.00  0.00    +0.000 A 
ATOM     21  C   UNL     1      -6.409  13.020  23.990  0.00  0.00    +0.000 A 
ATOM     22  C   UNL     1      -6.761  13.040  22.647  0.00  0.00    +0.000 A 
ATOM     23  C   UNL     1      -5.782  12.751  21.711  0.00  0.00    +0.000 A 
ATOM     24  F   UNL     1      -6.120  12.773  20.414  0.00  0.00    +0.000 F 
ATOM     25  N   UNL     1      -4.496  12.460  22.012  0.00  0.00    +0.000 NA
ENDBRANCH  18  19
ENDBRANCH  14  18
ENDBRANCH   6  10
BRANCH   2  26
ATOM     26  C   UNL     1       4.991   5.195  17.026  0.00  0.00    +0.000 A 
ATOM     27  C   UNL     1       6.312   4.982  17.410  0.00  0.00    +0.000 A 
ATOM     28  C   UNL     1       7.215   4.438  16.493  0.00  0.00    +0.000 A 
ATOM     29  C   UNL     1       6.776   4.123  15.216  0.00  0.00    +0.000 A 
ATOM     30  C   UNL     1       5.466   4.408  14.902  0.00  0.00    +0.000 A 
ATOM     31  F   UNL     1       5.004   4.095  13.682  0.00  0.00    +0.000 F 
ATOM     32  N   UNL     1       4.587   4.945  15.769  0.00  0.00    +0.000 NA
ENDBRANCH   2  26
BRANCH   1  34
ATOM     33  C   UNL     1       3.086   2.669  17.795  0.00  0.00    +0.000 C 
ATOM     34  C   UNL     1       3.268   3.438  19.126  0.00  0.00    +0.000 C 
ATOM     35  C   UNL     1       2.306   2.971  20.249  0.00  0.00    +0.000 C 
ATOM     36  C   UNL     1       4.643   2.931  19.645  0.00  0.00    +0.000 C 
ENDBRANCH   1  34
TORSDOF 5
ENDMDL
MODEL 8
REMARK VINA RESULT:      -8.9      1.597      1.803
REMARK  Name = 
REMARK  8 active torsions:
REMARK  status: ('A' for Active; 'I' for Inactive)
REMARK    1  A    between atoms: C_1  and  C_2
REMARK    2  A    between atoms: C_2  and  C_3
REMARK    3  A    between atoms: C_2  and  C_4
REMARK    4  A    between atoms: C_2  and  N_5
REMARK    5  A    between atoms: C_6  and  C_7
REMARK    6  A    between atoms: C_17  and  C_18
REMARK    7  A    between atoms: N_22  and  C_23
REMARK    8  A    between atoms: C_23  and  C_24
REMARK                            x       y       z     vdW  Elec       q    Type
REMARK                         _______ _______ _______ _____ _____    ______ ____
ROOT
ATOM      1  N   UNL     1       3.231   4.785  18.788  0.00  0.00    +0.000 N 
ATOM      2  C   UNL     1       4.000   5.580  17.903  0.00  0.00    +0.000 A 
ATOM      3  N   UNL     1       3.755   6.868  18.113  0.00  0.00    +0.000 NA
ATOM      4  C   UNL     1       2.822   6.950  19.101  0.00  0.00    +0.000 A 
ATOM      5  C   UNL     1       2.238   8.109  19.674  0.00  0.00    +0.000 A 
ATOM      6  C   UNL     1       1.288   8.003  20.707  0.00  0.00    +0.000 A 
ATOM      7  C   UNL     1       0.968   6.713  21.143  0.00  0.00    +0.000 A 
ATOM      8  C   UNL     1       1.528   5.558  20.583  0.00  0.00    +0.000 A 
ATOM      9  C   UNL     1       2.466   5.680  19.549  0.00  0.00    +0.000 A 
ENDROOT
BRANCH   6  10
ATOM     10  C   UNL     1       0.653   9.161  21.363  0.00  0.00    +0.000 A 
ATOM     11  C   UNL     1       0.725  10.445  20.847  0.00  0.00    +0.000 A 
ATOM     12  N   UNL     1       0.059  11.517  21.326  0.00  0.00    +0.000 NA
ATOM     13  C   UNL     1      -0.771  11.306  22.348  0.00  0.00    +0.000 A 
ATOM     14  N   UNL     1      -1.591  12.369  22.673  0.00  0.00    +0.000 N 
ATOM     15  N   UNL     1      -0.874  10.129  22.978  0.00  0.00    +0.000 NA
ATOM     16  C   UNL     1      -0.144   9.094  22.488  0.00  0.00    +0.000 A 
ATOM     17  H   UNL     1      -1.018  13.093  23.092  0.00  0.00    +0.000 HD
BRANCH  14  18
ATOM     18  C   UNL     1      -2.785  12.049  23.435  0.00  0.00    +0.000 C 
BRANCH  18  19
ATOM     19  C   UNL     1      -3.627  13.303  23.623  0.00  0.00    +0.000 A 
ATOM     20  C   UNL     1      -4.957  13.322  23.185  0.00  0.00    +0.000 A 
ATOM     21  C   UNL     1      -5.734  14.455  23.407  0.00  0.00    +0.000 A 
ATOM     22  C   UNL     1      -5.165  15.540  24.059  0.00  0.00    +0.000 A 
ATOM     23  C   UNL     1      -3.841  15.445  24.454  0.00  0.00    +0.000 A 
ATOM     24  F   UNL     1      -3.292  16.491  25.088  0.00  0.00    +0.000 F 
ATOM     25  N   UNL     1      -3.059  14.358  24.258  0.00  0.00    +0.000 NA
ENDBRANCH  18  19
ENDBRANCH  14  18
ENDBRANCH   6  10
BRANCH   2  26
ATOM     26  C   UNL     1       5.007   5.139  16.911  0.00  0.00    +0.000 A 
ATOM     27  C   UNL     1       6.340   4.938  17.258  0.00  0.00    +0.000 A 
ATOM     28  C   UNL     1       7.228   4.428  16.306  0.00  0.00    +0.000 A 
ATOM     29  C   UNL     1       6.762   4.133  15.035  0.00  0.00    +0.000 A 
ATOM     30  C   UNL     1       5.440   4.404  14.759  0.00  0.00    +0.000 A 
ATOM     31  F   UNL     1       4.953   4.111  13.545  0.00  0.00    +0.000 F 
ATOM     32  N   UNL     1       4.575   4.910  15.659  0.00  0.00    +0.000 NA
ENDBRANCH   2  26
BRANCH   1  34
ATOM     33  C   UNL     1       4.595   2.905  19.709  0.00  0.00    +0.000 C 
ATOM     34  C   UNL     1       3.302   3.302  18.956  0.00  0.00    +0.000 C 
ATOM     35  C   UNL     1       3.111   2.550  17.613  0.00  0.00    +0.000 C 
ATOM     36  C   UNL     1       2.175   2.688  19.834  0.00  0.00    +0.000 C 
ENDBRANCH   1  34
TORSDOF 5
ENDMDL
MODEL 9
REMARK VINA RESULT:      -8.8      2.490     12.027
REMARK  Name = 
REMARK  8 active torsions:
REMARK  status: ('A' for Active; 'I' for Inactive)
REMARK    1  A    between atoms: C_1  and  C_2
REMARK    2  A    between atoms: C_2  and  C_3
REMARK    3  A    between atoms: C_2  and  C_4
REMARK    4  A    between atoms: C_2  and  N_5
REMARK    5  A    between atoms: C_6  and  C_7
REMARK    6  A    between atoms: C_17  and  C_18
REMARK    7  A    between atoms: N_22  and  C_23
REMARK    8  A    between atoms: C_23  and  C_24
REMARK                            x       y       z     vdW  Elec       q    Type
REMARK                         _______ _______ _______ _____ _____    ______ ____
ROOT
ATOM      1  N   UNL     1      -0.530  11.089  19.545  0.00  0.00    +0.000 N 
ATOM      2  C   UNL     1      -0.307  11.039  20.943  0.00  0.00    +0.000 A 
ATOM      3  N   UNL     1       0.584  10.097  21.232  0.00  0.00    +0.000 NA
ATOM      4  C   UNL     1       0.941   9.501  20.062  0.00  0.00    +0.000 A 
ATOM      5  C   UNL     1       1.860   8.441  19.852  0.00  0.00    +0.000 A 
ATOM      6  C   UNL     1       2.118   7.955  18.557  0.00  0.00    +0.000 A 
ATOM      7  C   UNL     1       1.442   8.576  17.501  0.00  0.00    +0.000 A 
ATOM      8  C   UNL     1       0.526   9.617  17.690  0.00  0.00    +0.000 A 
ATOM      9  C   UNL     1       0.273  10.084  18.988  0.00  0.00    +0.000 A 
ENDROOT
BRANCH   6  10
ATOM     10  C   UNL     1       3.073   6.870  18.260  0.00  0.00    +0.000 A 
ATOM     11  C   UNL     1       2.668   5.607  17.862  0.00  0.00    +0.000 A 
ATOM     12  N   UNL     1       3.490   4.617  17.451  0.00  0.00    +0.000 NA
ATOM     13  C   UNL     1       4.791   4.903  17.378  0.00  0.00    +0.000 A 
ATOM     14  N   UNL     1       5.572   3.949  16.756  0.00  0.00    +0.000 N 
ATOM     15  N   UNL     1       5.312   6.062  17.802  0.00  0.00    +0.000 NA
ATOM     16  C   UNL     1       4.447   7.006  18.253  0.00  0.00    +0.000 A 
ATOM     17  H   UNL     1       5.629   3.142  17.366  0.00  0.00    +0.000 HD
BRANCH  14  18
ATOM     18  C   UNL     1       6.857   4.399  16.253  0.00  0.00    +0.000 C 
BRANCH  18  19
ATOM     19  C   UNL     1       6.845   4.395  14.731  0.00  0.00    +0.000 A 
ATOM     20  C   UNL     1       7.732   5.216  14.025  0.00  0.00    +0.000 A 
ATOM     21  C   UNL     1       7.748   5.167  12.633  0.00  0.00    +0.000 A 
ATOM     22  C   UNL     1       6.880   4.302  11.983  0.00  0.00    +0.000 A 
ATOM     23  C   UNL     1       6.027   3.529  12.754  0.00  0.00    +0.000 A 
ATOM     24  F   UNL     1       5.191   2.690  12.127  0.00  0.00    +0.000 F 
ATOM     25  N   UNL     1       5.989   3.549  14.107  0.00  0.00    +0.000 NA
ENDBRANCH  18  19
ENDBRANCH  14  18
ENDBRANCH   6  10
BRANCH   2  26
ATOM     26  C   UNL     1      -0.874  11.912  21.996  0.00  0.00    +0.000 A 
ATOM     27  C   UNL     1      -0.361  13.180  22.255  0.00  0.00    +0.000 A 
ATOM     28  C   UNL     1      -0.996  13.999  23.191  0.00  0.00    +0.000 A 
ATOM     29  C   UNL     1      -2.125  13.531  23.846  0.00  0.00    +0.000 A 
ATOM     30  C   UNL     1      -2.540  12.249  23.567  0.00  0.00    +0.000 A 
ATOM     31  F   UNL     1      -3.641  11.774  24.169  0.00  0.00    +0.000 F 
ATOM     32  N   UNL     1      -1.931  11.440  22.679  0.00  0.00    +0.000 NA
ENDBRANCH   2  26
BRANCH   1  34
ATOM     33  C   UNL     1      -1.965  11.440  17.530  0.00  0.00    +0.000 C 
ATOM     34  C   UNL     1      -1.364  12.082  18.803  0.00  0.00    +0.000 C 
ATOM     35  C   UNL     1      -0.597  13.402  18.529  0.00  0.00    +0.000 C 
ATOM     36  C   UNL     1      -2.616  12.589  19.573  0.00  0.00    +0.000 C 
ENDBRANCH   1  34
TORSDOF 5
ENDMDL
