MODEL 1
REMARK VINA RESULT:      -7.1      0.000      0.000
REMARK  Name = 
REMARK  8 active torsions:
REMARK  status: ('A' for Active; 'I' for Inactive)
REMARK    1  A    between atoms: C_1  and  C_2
REMARK    2  A    between atoms: C_2  and  C_3
REMARK    3  A    between atoms: C_3  and  C_4
REMARK    4  A    between atoms: C_4  and  N_5
REMARK    5  A    between atoms: C_6  and  C_7
REMARK    6  A    between atoms: C_10  and  O_11
REMARK    7  A    between atoms: C_14  and  C_15
REMARK    8  A    between atoms: C_18  and  O_19
REMARK                            x       y       z     vdW  Elec       q    Type
REMARK                         _______ _______ _______ _____ _____    ______ ____
ROOT
ATOM      1  N   UNL     1       1.941   6.661  20.196  0.00  0.00    +0.000 N 
ATOM      2  C   UNL     1       2.562   6.928  18.940  0.00  0.00    +0.000 A 
ATOM      3  C   UNL     1       2.166   8.243  18.618  0.00  0.00    +0.000 A 
ATOM      4  C   UNL     1       2.457   9.143  17.459  0.00  0.00    +0.000 C 
ATOM      5  C   UNL     1       1.340   8.750  19.676  0.00  0.00    +0.000 A 
ATOM      6  C   UNL     1       0.650   9.980  19.844  0.00  0.00    +0.000 A 
ATOM      7  C   UNL     1      -0.033  10.229  21.030  0.00  0.00    +0.000 A 
ATOM      8  C   UNL     1      -0.004   9.320  22.067  0.00  0.00    +0.000 A 
ATOM      9  C   UNL     1       0.695   8.116  21.924  0.00  0.00    +0.000 A 
ATOM     10  C   UNL     1       1.318   7.807  20.692  0.00  0.00    +0.000 A 
ENDROOT
BRANCH   2  11
ATOM     11  C   UNL     1       3.425   5.944  18.145  0.00  0.00    +0.000 A 
ATOM     12  C   UNL     1       2.994   4.678  17.696  0.00  0.00    +0.000 A 
ATOM     13  C   UNL     1       3.792   3.817  16.918  0.00  0.00    +0.000 A 
ATOM     14  C   UNL     1       5.105   4.152  16.654  0.00  0.00    +0.000 A 
ATOM     15  C   UNL     1       5.599   5.354  17.113  0.00  0.00    +0.000 A 
ATOM     16  C   UNL     1       4.757   6.242  17.805  0.00  0.00    +0.000 A 
BRANCH  14  17
ATOM     17  O   UNL     1       5.936   3.333  15.956  0.00  0.00    +0.000 OA
ATOM     18  H   UNL     1       5.856   3.540  15.010  0.00  0.00    +0.000 HD
ENDBRANCH  14  17
ENDBRANCH   2  11
BRANCH   7  19
ATOM     19  O   UNL     1      -0.733  11.385  21.215  0.00  0.00    +0.000 OA
ATOM     20  H   UNL     1      -0.102  12.115  21.312  0.00  0.00    +0.000 HD
ENDBRANCH   7  19
BRANCH   1  21
ATOM     21  C   UNL     1       1.936   5.376  20.888  0.00  0.00    +0.000 C 
BRANCH  21  22
ATOM     22  C   UNL     1       0.961   4.255  20.533  0.00  0.00    +0.000 C 
BRANCH  22  24
ATOM     23  C   UNL     1       2.856   2.723  21.146  0.00  0.00    +0.000 C 
ATOM     24  C   UNL     1       1.352   2.923  21.168  0.00  0.00    +0.000 C 
ENDBRANCH  22  24
ENDBRANCH  21  22
ENDBRANCH   1  21
TORSDOF 6
ENDMDL
MODEL 2
REMARK VINA RESULT:      -7.1      0.097      1.015
REMARK  Name = 
REMARK  8 active torsions:
REMARK  status: ('A' for Active; 'I' for Inactive)
REMARK    1  A    between atoms: C_1  and  C_2
REMARK    2  A    between atoms: C_2  and  C_3
REMARK    3  A    between atoms: C_3  and  C_4
REMARK    4  A    between atoms: C_4  and  N_5
REMARK    5  A    between atoms: C_6  and  C_7
REMARK    6  A    between atoms: C_10  and  O_11
REMARK    7  A    between atoms: C_14  and  C_15
REMARK    8  A    between atoms: C_18  and  O_19
REMARK                            x       y       z     vdW  Elec       q    Type
REMARK                         _______ _______ _______ _____ _____    ______ ____
ROOT
ATOM      1  N   UNL     1       1.970   6.632  20.148  0.00  0.00    +0.000 N 
ATOM      2  C   UNL     1       2.610   6.943  18.912  0.00  0.00    +0.000 A 
ATOM      3  C   UNL     1       2.181   8.252  18.607  0.00  0.00    +0.000 A 
ATOM      4  C   UNL     1       2.469   9.184  17.474  0.00  0.00    +0.000 C 
ATOM      5  C   UNL     1       1.317   8.712  19.657  0.00  0.00    +0.000 A 
ATOM      6  C   UNL     1       0.586   9.916  19.834  0.00  0.00    +0.000 A 
ATOM      7  C   UNL     1      -0.130  10.120  21.010  0.00  0.00    +0.000 A 
ATOM      8  C   UNL     1      -0.096   9.191  22.028  0.00  0.00    +0.000 A 
ATOM      9  C   UNL     1       0.643   8.012  21.876  0.00  0.00    +0.000 A 
ATOM     10  C   UNL     1       1.301   7.747  20.653  0.00  0.00    +0.000 A 
ENDROOT
BRANCH   2  11
ATOM     11  C   UNL     1       3.520   6.002  18.117  0.00  0.00    +0.000 A 
ATOM     12  C   UNL     1       4.848   6.297  17.740  0.00  0.00    +0.000 A 
ATOM     13  C   UNL     1       5.680   5.389  17.057  0.00  0.00    +0.000 A 
ATOM     14  C   UNL     1       5.169   4.183  16.626  0.00  0.00    +0.000 A 
ATOM     15  C   UNL     1       3.861   3.861  16.919  0.00  0.00    +0.000 A 
ATOM     16  C   UNL     1       3.076   4.740  17.685  0.00  0.00    +0.000 A 
BRANCH  14  17
ATOM     17  O   UNL     1       5.912   3.293  15.915  0.00  0.00    +0.000 OA
ATOM     18  H   UNL     1       6.778   3.691  15.725  0.00  0.00    +0.000 HD
ENDBRANCH  14  17
ENDBRANCH   2  11
BRANCH   7  19
ATOM     19  O   UNL     1      -0.870  11.250  21.202  0.00  0.00    +0.000 OA
ATOM     20  H   UNL     1      -1.539  11.067  21.879  0.00  0.00    +0.000 HD
ENDBRANCH   7  19
BRANCH   1  21
ATOM     21  C   UNL     1       1.990   5.332  20.814  0.00  0.00    +0.000 C 
BRANCH  21  22
ATOM     22  C   UNL     1       0.951   4.248  20.531  0.00  0.00    +0.000 C 
BRANCH  22  24
ATOM     23  C   UNL     1       2.851   2.738  21.179  0.00  0.00    +0.000 C 
ATOM     24  C   UNL     1       1.343   2.900  21.128  0.00  0.00    +0.000 C 
ENDBRANCH  22  24
ENDBRANCH  21  22
ENDBRANCH   1  21
TORSDOF 6
ENDMDL
MODEL 3
REMARK VINA RESULT:      -6.7      2.915      5.362
REMARK  Name = 
REMARK  8 active torsions:
REMARK  status: ('A' for Active; 'I' for Inactive)
REMARK    1  A    between atoms: C_1  and  C_2
REMARK    2  A    between atoms: C_2  and  C_3
REMARK    3  A    between atoms: C_3  and  C_4
REMARK    4  A    between atoms: C_4  and  N_5
REMARK    5  A    between atoms: C_6  and  C_7
REMARK    6  A    between atoms: C_10  and  O_11
REMARK    7  A    between atoms: C_14  and  C_15
REMARK    8  A    between atoms: C_18  and  O_19
REMARK                            x       y       z     vdW  Elec       q    Type
REMARK                         _______ _______ _______ _____ _____    ______ ____
ROOT
ATOM      1  N   UNL     1       3.960   5.187  18.336  0.00  0.00    +0.000 N 
ATOM      2  C   UNL     1       4.429   4.137  17.492  0.00  0.00    +0.000 A 
ATOM      3  C   UNL     1       3.958   2.954  18.100  0.00  0.00    +0.000 A 
ATOM      4  C   UNL     1       4.076   1.505  17.746  0.00  0.00    +0.000 C 
ATOM      5  C   UNL     1       3.207   3.303  19.272  0.00  0.00    +0.000 A 
ATOM      6  C   UNL     1       2.560   2.516  20.262  0.00  0.00    +0.000 A 
ATOM      7  C   UNL     1       1.834   3.142  21.271  0.00  0.00    +0.000 A 
ATOM      8  C   UNL     1       1.691   4.513  21.293  0.00  0.00    +0.000 A 
ATOM      9  C   UNL     1       2.301   5.297  20.307  0.00  0.00    +0.000 A 
ATOM     10  C   UNL     1       3.118   4.686  19.328  0.00  0.00    +0.000 A 
ENDROOT
BRANCH   2  11
ATOM     11  C   UNL     1       5.287   4.316  16.237  0.00  0.00    +0.000 A 
ATOM     12  C   UNL     1       6.597   4.841  16.227  0.00  0.00    +0.000 A 
ATOM     13  C   UNL     1       7.384   4.942  15.064  0.00  0.00    +0.000 A 
ATOM     14  C   UNL     1       6.839   4.620  13.838  0.00  0.00    +0.000 A 
ATOM     15  C   UNL     1       5.545   4.150  13.778  0.00  0.00    +0.000 A 
ATOM     16  C   UNL     1       4.808   3.965  14.962  0.00  0.00    +0.000 A 
BRANCH  14  17
ATOM     17  O   UNL     1       7.536   4.751  12.677  0.00  0.00    +0.000 OA
ATOM     18  H   UNL     1       8.208   5.443  12.794  0.00  0.00    +0.000 HD
ENDBRANCH  14  17
ENDBRANCH   2  11
BRANCH   7  19
ATOM     19  O   UNL     1       1.226   2.421  22.257  0.00  0.00    +0.000 OA
ATOM     20  H   UNL     1       1.151   1.500  21.962  0.00  0.00    +0.000 HD
ENDBRANCH   7  19
BRANCH   1  21
ATOM     21  C   UNL     1       4.303   6.600  18.206  0.00  0.00    +0.000 C 
BRANCH  21  22
ATOM     22  C   UNL     1       3.424   7.592  17.445  0.00  0.00    +0.000 C 
BRANCH  22  24
ATOM     23  C   UNL     1       1.839   9.507  17.816  0.00  0.00    +0.000 C 
ATOM     24  C   UNL     1       2.294   8.145  18.309  0.00  0.00    +0.000 C 
ENDBRANCH  22  24
ENDBRANCH  21  22
ENDBRANCH   1  21
TORSDOF 6
ENDMDL
MODEL 4
REMARK VINA RESULT:      -6.7      1.798      3.730
REMARK  Name = 
REMARK  8 active torsions:
REMARK  status: ('A' for Active; 'I' for Inactive)
REMARK    1  A    between atoms: C_1  and  C_2
REMARK    2  A    between atoms: C_2  and  C_3
REMARK    3  A    between atoms: C_3  and  C_4
REMARK    4  A    between atoms: C_4  and  N_5
REMARK    5  A    between atoms: C_6  and  C_7
REMARK    6  A    between atoms: C_10  and  O_11
REMARK    7  A    between atoms: C_14  and  C_15
REMARK    8  A    between atoms: C_18  and  O_19
REMARK                            x       y       z     vdW  Elec       q    Type
REMARK                         _______ _______ _______ _____ _____    ______ ____
ROOT
ATOM      1  N   UNL     1       2.885   7.223  18.018  0.00  0.00    +0.000 N 
ATOM      2  C   UNL     1       2.557   6.173  18.926  0.00  0.00    +0.000 A 
ATOM      3  C   UNL     1       1.812   6.803  19.945  0.00  0.00    +0.000 A 
ATOM      4  C   UNL     1       1.157   6.300  21.192  0.00  0.00    +0.000 C 
ATOM      5  C   UNL     1       1.687   8.198  19.633  0.00  0.00    +0.000 A 
ATOM      6  C   UNL     1       1.086   9.282  20.325  0.00  0.00    +0.000 A 
ATOM      7  C   UNL     1       1.056  10.543  19.736  0.00  0.00    +0.000 A 
ATOM      8  C   UNL     1       1.556  10.742  18.467  0.00  0.00    +0.000 A 
ATOM      9  C   UNL     1       2.127   9.675  17.763  0.00  0.00    +0.000 A 
ATOM     10  C   UNL     1       2.248   8.409  18.382  0.00  0.00    +0.000 A 
ENDROOT
BRANCH   2  11
ATOM     11  C   UNL     1       2.985   4.709  18.790  0.00  0.00    +0.000 A 
ATOM     12  C   UNL     1       4.058   4.118  19.489  0.00  0.00    +0.000 A 
ATOM     13  C   UNL     1       4.394   2.754  19.386  0.00  0.00    +0.000 A 
ATOM     14  C   UNL     1       3.727   1.951  18.483  0.00  0.00    +0.000 A 
ATOM     15  C   UNL     1       2.702   2.486  17.733  0.00  0.00    +0.000 A 
ATOM     16  C   UNL     1       2.319   3.826  17.921  0.00  0.00    +0.000 A 
BRANCH  14  17
ATOM     17  O   UNL     1       4.047   0.642  18.303  0.00  0.00    +0.000 OA
ATOM     18  H   UNL     1       3.331   0.210  17.808  0.00  0.00    +0.000 HD
ENDBRANCH  14  17
ENDBRANCH   2  11
BRANCH   7  19
ATOM     19  O   UNL     1       0.516  11.615  20.385  0.00  0.00    +0.000 OA
ATOM     20  H   UNL     1      -0.213  11.962  19.849  0.00  0.00    +0.000 HD
ENDBRANCH   7  19
BRANCH   1  21
ATOM     21  C   UNL     1       3.768   7.103  16.861  0.00  0.00    +0.000 C 
BRANCH  21  22
ATOM     22  C   UNL     1       5.201   6.583  16.971  0.00  0.00    +0.000 C 
BRANCH  22  24
ATOM     23  C   UNL     1       5.540   4.275  16.038  0.00  0.00    +0.000 C 
ATOM     24  C   UNL     1       5.615   5.763  15.752  0.00  0.00    +0.000 C 
ENDBRANCH  22  24
ENDBRANCH  21  22
ENDBRANCH   1  21
TORSDOF 6
ENDMDL
MODEL 5
REMARK VINA RESULT:      -6.7      2.882      5.281
REMARK  Name = 
REMARK  8 active torsions:
REMARK  status: ('A' for Active; 'I' for Inactive)
REMARK    1  A    between atoms: C_1  and  C_2
REMARK    2  A    between atoms: C_2  and  C_3
REMARK    3  A    between atoms: C_3  and  C_4
REMARK    4  A    between atoms: C_4  and  N_5
REMARK    5  A    between atoms: C_6  and  C_7
REMARK    6  A    between atoms: C_10  and  O_11
REMARK    7  A    between atoms: C_14  and  C_15
REMARK    8  A    between atoms: C_18  and  O_19
REMARK                            x       y       z     vdW  Elec       q    Type
REMARK                         _______ _______ _______ _____ _____    ______ ____
ROOT
ATOM      1  N   UNL     1       3.843   5.167  18.321  0.00  0.00    +0.000 N 
ATOM      2  C   UNL     1       4.368   4.120  17.506  0.00  0.00    +0.000 A 
ATOM      3  C   UNL     1       3.954   2.931  18.142  0.00  0.00    +0.000 A 
ATOM      4  C   UNL     1       4.146   1.482  17.826  0.00  0.00    +0.000 C 
ATOM      5  C   UNL     1       3.180   3.271  19.302  0.00  0.00    +0.000 A 
ATOM      6  C   UNL     1       2.568   2.479  20.309  0.00  0.00    +0.000 A 
ATOM      7  C   UNL     1       1.806   3.093  21.299  0.00  0.00    +0.000 A 
ATOM      8  C   UNL     1       1.594   4.455  21.285  0.00  0.00    +0.000 A 
ATOM      9  C   UNL     1       2.170   5.243  20.282  0.00  0.00    +0.000 A 
ATOM     10  C   UNL     1       3.021   4.649  19.322  0.00  0.00    +0.000 A 
ENDROOT
BRANCH   2  11
ATOM     11  C   UNL     1       5.224   4.310  16.251  0.00  0.00    +0.000 A 
ATOM     12  C   UNL     1       4.806   4.000  14.939  0.00  0.00    +0.000 A 
ATOM     13  C   UNL     1       5.594   4.238  13.797  0.00  0.00    +0.000 A 
ATOM     14  C   UNL     1       6.887   4.698  13.941  0.00  0.00    +0.000 A 
ATOM     15  C   UNL     1       7.369   4.970  15.203  0.00  0.00    +0.000 A 
ATOM     16  C   UNL     1       6.533   4.817  16.323  0.00  0.00    +0.000 A 
BRANCH  14  17
ATOM     17  O   UNL     1       7.710   4.893  12.876  0.00  0.00    +0.000 OA
ATOM     18  H   UNL     1       7.286   4.526  12.082  0.00  0.00    +0.000 HD
ENDBRANCH  14  17
ENDBRANCH   2  11
BRANCH   7  19
ATOM     19  O   UNL     1       1.229   2.367  22.301  0.00  0.00    +0.000 OA
ATOM     20  H   UNL     1       0.270   2.506  22.267  0.00  0.00    +0.000 HD
ENDBRANCH   7  19
BRANCH   1  21
ATOM     21  C   UNL     1       4.115   6.592  18.156  0.00  0.00    +0.000 C 
BRANCH  21  22
ATOM     22  C   UNL     1       3.144   7.537  17.450  0.00  0.00    +0.000 C 
BRANCH  22  24
ATOM     23  C   UNL     1       1.802   9.612  17.906  0.00  0.00    +0.000 C 
ATOM     24  C   UNL     1       2.214   8.249  18.430  0.00  0.00    +0.000 C 
ENDBRANCH  22  24
ENDBRANCH  21  22
ENDBRANCH   1  21
TORSDOF 6
ENDMDL
MODEL 6
REMARK VINA RESULT:      -6.7      1.795      3.641
REMARK  Name = 
REMARK  8 active torsions:
REMARK  status: ('A' for Active; 'I' for Inactive)
REMARK    1  A    between atoms: C_1  and  C_2
REMARK    2  A    between atoms: C_2  and  C_3
REMARK    3  A    between atoms: C_3  and  C_4
REMARK    4  A    between atoms: C_4  and  N_5
REMARK    5  A    between atoms: C_6  and  C_7
REMARK    6  A    between atoms: C_10  and  O_11
REMARK    7  A    between atoms: C_14  and  C_15
REMARK    8  A    between atoms: C_18  and  O_19
REMARK                            x       y       z     vdW  Elec       q    Type
REMARK                         _______ _______ _______ _____ _____    ______ ____
ROOT
ATOM      1  N   UNL     1       2.854   7.229  17.983  0.00  0.00    +0.000 N 
ATOM      2  C   UNL     1       2.510   6.168  18.872  0.00  0.00    +0.000 A 
ATOM      3  C   UNL     1       1.791   6.794  19.912  0.00  0.00    +0.000 A 
ATOM      4  C   UNL     1       1.137   6.280  21.156  0.00  0.00    +0.000 C 
ATOM      5  C   UNL     1       1.696   8.198  19.630  0.00  0.00    +0.000 A 
ATOM      6  C   UNL     1       1.128   9.281  20.351  0.00  0.00    +0.000 A 
ATOM      7  C   UNL     1       1.123  10.555  19.789  0.00  0.00    +0.000 A 
ATOM      8  C   UNL     1       1.614  10.768  18.519  0.00  0.00    +0.000 A 
ATOM      9  C   UNL     1       2.152   9.703  17.787  0.00  0.00    +0.000 A 
ATOM     10  C   UNL     1       2.249   8.422  18.378  0.00  0.00    +0.000 A 
ENDROOT
BRANCH   2  11
ATOM     11  C   UNL     1       2.902   4.698  18.701  0.00  0.00    +0.000 A 
ATOM     12  C   UNL     1       2.273   3.797  17.816  0.00  0.00    +0.000 A 
ATOM     13  C   UNL     1       2.692   2.463  17.639  0.00  0.00    +0.000 A 
ATOM     14  C   UNL     1       3.696   1.950  18.434  0.00  0.00    +0.000 A 
ATOM     15  C   UNL     1       4.313   2.769  19.354  0.00  0.00    +0.000 A 
ATOM     16  C   UNL     1       3.946   4.123  19.448  0.00  0.00    +0.000 A 
BRANCH  14  17
ATOM     17  O   UNL     1       4.101   0.655  18.344  0.00  0.00    +0.000 OA
ATOM     18  H   UNL     1       4.896   0.538  18.890  0.00  0.00    +0.000 HD
ENDBRANCH  14  17
ENDBRANCH   2  11
BRANCH   7  19
ATOM     19  O   UNL     1       0.615  11.625  20.465  0.00  0.00    +0.000 OA
ATOM     20  H   UNL     1       0.757  12.421  19.931  0.00  0.00    +0.000 HD
ENDBRANCH   7  19
BRANCH   1  21
ATOM     21  C   UNL     1       3.722   7.112  16.814  0.00  0.00    +0.000 C 
BRANCH  21  22
ATOM     22  C   UNL     1       5.161   6.605  16.907  0.00  0.00    +0.000 C 
BRANCH  22  24
ATOM     23  C   UNL     1       5.556   4.282  16.036  0.00  0.00    +0.000 C 
ATOM     24  C   UNL     1       5.556   5.761  15.699  0.00  0.00    +0.000 C 
ENDBRANCH  22  24
ENDBRANCH  21  22
ENDBRANCH   1  21
TORSDOF 6
ENDMDL
MODEL 7
REMARK VINA RESULT:      -6.6      1.342      7.055
REMARK  Name = 
REMARK  8 active torsions:
REMARK  status: ('A' for Active; 'I' for Inactive)
REMARK    1  A    between atoms: C_1  and  C_2
REMARK    2  A    between atoms: C_2  and  C_3
REMARK    3  A    between atoms: C_3  and  C_4
REMARK    4  A    between atoms: C_4  and  N_5
REMARK    5  A    between atoms: C_6  and  C_7
REMARK    6  A    between atoms: C_10  and  O_11
REMARK    7  A    between atoms: C_14  and  C_15
REMARK    8  A    between atoms: C_18  and  O_19
REMARK                            x       y       z     vdW  Elec       q    Type
REMARK                         _______ _______ _______ _____ _____    ______ ____
ROOT
ATOM      1  N   UNL     1       2.711   7.492  18.691  0.00  0.00    +0.000 N 
ATOM      2  C   UNL     1       2.157   7.025  19.919  0.00  0.00    +0.000 A 
ATOM      3  C   UNL     1       2.526   5.665  19.982  0.00  0.00    +0.000 A 
ATOM      4  C   UNL     1       2.287   4.586  20.991  0.00  0.00    +0.000 C 
ATOM      5  C   UNL     1       3.303   5.341  18.820  0.00  0.00    +0.000 A 
ATOM      6  C   UNL     1       3.881   4.127  18.364  0.00  0.00    +0.000 A 
ATOM      7  C   UNL     1       4.657   4.125  17.208  0.00  0.00    +0.000 A 
ATOM      8  C   UNL     1       4.915   5.297  16.529  0.00  0.00    +0.000 A 
ATOM      9  C   UNL     1       4.373   6.504  16.983  0.00  0.00    +0.000 A 
ATOM     10  C   UNL     1       3.509   6.510  18.102  0.00  0.00    +0.000 A 
ENDROOT
BRANCH   2  11
ATOM     11  C   UNL     1       1.317   7.856  20.893  0.00  0.00    +0.000 A 
ATOM     12  C   UNL     1      -0.087   7.775  21.015  0.00  0.00    +0.000 A 
ATOM     13  C   UNL     1      -0.827   8.513  21.959  0.00  0.00    +0.000 A 
ATOM     14  C   UNL     1      -0.191   9.449  22.748  0.00  0.00    +0.000 A 
ATOM     15  C   UNL     1       1.174   9.610  22.637  0.00  0.00    +0.000 A 
ATOM     16  C   UNL     1       1.908   8.796  21.756  0.00  0.00    +0.000 A 
BRANCH  14  17
ATOM     17  O   UNL     1      -0.865  10.227  23.637  0.00  0.00    +0.000 OA
ATOM     18  H   UNL     1      -1.047   9.704  24.435  0.00  0.00    +0.000 HD
ENDBRANCH  14  17
ENDBRANCH   2  11
BRANCH   7  19
ATOM     19  O   UNL     1       5.201   2.972  16.723  0.00  0.00    +0.000 OA
ATOM     20  H   UNL     1       4.966   2.893  15.785  0.00  0.00    +0.000 HD
ENDBRANCH   7  19
BRANCH   1  21
ATOM     21  C   UNL     1       2.489   8.811  18.104  0.00  0.00    +0.000 C 
BRANCH  21  22
ATOM     22  C   UNL     1       1.090   9.368  17.842  0.00  0.00    +0.000 C 
BRANCH  22  24
ATOM     23  C   UNL     1      -0.647  10.777  18.987  0.00  0.00    +0.000 C 
ATOM     24  C   UNL     1       0.821  10.649  18.627  0.00  0.00    +0.000 C 
ENDBRANCH  22  24
ENDBRANCH  21  22
ENDBRANCH   1  21
TORSDOF 6
ENDMDL
MODEL 8
REMARK VINA RESULT:      -6.6      1.347      7.128
REMARK  Name = 
REMARK  8 active torsions:
REMARK  status: ('A' for Active; 'I' for Inactive)
REMARK    1  A    between atoms: C_1  and  C_2
REMARK    2  A    between atoms: C_2  and  C_3
REMARK    3  A    between atoms: C_3  and  C_4
REMARK    4  A    between atoms: C_4  and  N_5
REMARK    5  A    between atoms: C_6  and  C_7
REMARK    6  A    between atoms: C_10  and  O_11
REMARK    7  A    between atoms: C_14  and  C_15
REMARK    8  A    between atoms: C_18  and  O_19
REMARK                            x       y       z     vdW  Elec       q    Type
REMARK                         _______ _______ _______ _____ _____    ______ ____
ROOT
ATOM      1  N   UNL     1       2.725   7.516  18.674  0.00  0.00    +0.000 N 
ATOM      2  C   UNL     1       2.180   7.055  19.909  0.00  0.00    +0.000 A 
ATOM      3  C   UNL     1       2.552   5.696  19.978  0.00  0.00    +0.000 A 
ATOM      4  C   UNL     1       2.321   4.623  20.995  0.00  0.00    +0.000 C 
ATOM      5  C   UNL     1       3.319   5.366  18.811  0.00  0.00    +0.000 A 
ATOM      6  C   UNL     1       3.895   4.150  18.358  0.00  0.00    +0.000 A 
ATOM      7  C   UNL     1       4.662   4.142  17.197  0.00  0.00    +0.000 A 
ATOM      8  C   UNL     1       4.913   5.310  16.508  0.00  0.00    +0.000 A 
ATOM      9  C   UNL     1       4.374   6.520  16.960  0.00  0.00    +0.000 A 
ATOM     10  C   UNL     1       3.518   6.531  18.085  0.00  0.00    +0.000 A 
ENDROOT
BRANCH   2  11
ATOM     11  C   UNL     1       1.347   7.892  20.885  0.00  0.00    +0.000 A 
ATOM     12  C   UNL     1       1.874   8.861  21.765  0.00  0.00    +0.000 A 
ATOM     13  C   UNL     1       1.076   9.655  22.611  0.00  0.00    +0.000 A 
ATOM     14  C   UNL     1      -0.283   9.426  22.686  0.00  0.00    +0.000 A 
ATOM     15  C   UNL     1      -0.848   8.455  21.886  0.00  0.00    +0.000 A 
ATOM     16  C   UNL     1      -0.048   7.739  20.978  0.00  0.00    +0.000 A 
BRANCH  14  17
ATOM     17  O   UNL     1      -1.091  10.125  23.526  0.00  0.00    +0.000 OA
ATOM     18  H   UNL     1      -1.755  10.599  22.998  0.00  0.00    +0.000 HD
ENDBRANCH  14  17
ENDBRANCH   2  11
BRANCH   7  19
ATOM     19  O   UNL     1       5.204   2.987  16.714  0.00  0.00    +0.000 OA
ATOM     20  H   UNL     1       4.558   2.273  16.830  0.00  0.00    +0.000 HD
ENDBRANCH   7  19
BRANCH   1  21
ATOM     21  C   UNL     1       2.496   8.831  18.080  0.00  0.00    +0.000 C 
BRANCH  21  22
ATOM     22  C   UNL     1       1.095   9.393  17.846  0.00  0.00    +0.000 C 
BRANCH  22  24
ATOM     23  C   UNL     1      -0.594  10.849  19.005  0.00  0.00    +0.000 C 
ATOM     24  C   UNL     1       0.861  10.699  18.600  0.00  0.00    +0.000 C 
ENDBRANCH  22  24
ENDBRANCH  21  22
ENDBRANCH   1  21
TORSDOF 6
ENDMDL
MODEL 9
REMARK VINA RESULT:      -6.5      1.312      6.135
REMARK  Name = 
REMARK  8 active torsions:
REMARK  status: ('A' for Active; 'I' for Inactive)
REMARK    1  A    between atoms: C_1  and  C_2
REMARK    2  A    between atoms: C_2  and  C_3
REMARK    3  A    between atoms: C_3  and  C_4
REMARK    4  A    between atoms: C_4  and  N_5
REMARK    5  A    between atoms: C_6  and  C_7
REMARK    6  A    between atoms: C_10  and  O_11
REMARK    7  A    between atoms: C_14  and  C_15
REMARK    8  A    between atoms: C_18  and  O_19
REMARK                            x       y       z     vdW  Elec       q    Type
REMARK                         _______ _______ _______ _____ _____    ______ ____
ROOT
ATOM      1  N   UNL     1       2.738   5.751  19.929  0.00  0.00    +0.000 N 
ATOM      2  C   UNL     1       2.255   7.083  19.769  0.00  0.00    +0.000 A 
ATOM      3  C   UNL     1       2.780   7.507  18.531  0.00  0.00    +0.000 A 
ATOM      4  C   UNL     1       2.666   8.781  17.754  0.00  0.00    +0.000 C 
ATOM      5  C   UNL     1       3.545   6.436  17.960  0.00  0.00    +0.000 A 
ATOM      6  C   UNL     1       4.312   6.337  16.769  0.00  0.00    +0.000 A 
ATOM      7  C   UNL     1       4.903   5.123  16.430  0.00  0.00    +0.000 A 
ATOM      8  C   UNL     1       4.710   4.001  17.208  0.00  0.00    +0.000 A 
ATOM      9  C   UNL     1       3.934   4.079  18.371  0.00  0.00    +0.000 A 
ATOM     10  C   UNL     1       3.402   5.325  18.778  0.00  0.00    +0.000 A 
ENDROOT
BRANCH   2  11
ATOM     11  C   UNL     1       1.392   7.846  20.778  0.00  0.00    +0.000 A 
ATOM     12  C   UNL     1      -0.014   7.757  20.863  0.00  0.00    +0.000 A 
ATOM     13  C   UNL     1      -0.777   8.428  21.838  0.00  0.00    +0.000 A 
ATOM     14  C   UNL     1      -0.160   9.309  22.703  0.00  0.00    +0.000 A 
ATOM     15  C   UNL     1       1.206   9.478  22.633  0.00  0.00    +0.000 A 
ATOM     16  C   UNL     1       1.961   8.726  21.716  0.00  0.00    +0.000 A 
BRANCH  14  17
ATOM     17  O   UNL     1      -0.856  10.025  23.627  0.00  0.00    +0.000 OA
ATOM     18  H   UNL     1      -0.427   9.918  24.492  0.00  0.00    +0.000 HD
ENDBRANCH  14  17
ENDBRANCH   2  11
BRANCH   7  19
ATOM     19  O   UNL     1       5.673   4.998  15.311  0.00  0.00    +0.000 OA
ATOM     20  H   UNL     1       5.135   4.596  14.612  0.00  0.00    +0.000 HD
ENDBRANCH   7  19
BRANCH   1  21
ATOM     21  C   UNL     1       2.580   4.925  21.123  0.00  0.00    +0.000 C 
BRANCH  21  22
ATOM     22  C   UNL     1       1.747   3.644  21.130  0.00  0.00    +0.000 C 
BRANCH  22  24
ATOM     23  C   UNL     1       0.779   2.531  19.096  0.00  0.00    +0.000 C 
ATOM     24  C   UNL     1       0.633   3.671  20.087  0.00  0.00    +0.000 C 
ENDBRANCH  22  24
ENDBRANCH  21  22
ENDBRANCH   1  21
TORSDOF 6
ENDMDL
