MODEL 1
REMARK VINA RESULT:      -6.1      0.000      0.000
REMARK  Name = 
REMARK  8 active torsions:
REMARK  status: ('A' for Active; 'I' for Inactive)
REMARK    1  A    between atoms: C_1  and  O_2
REMARK    2  A    between atoms: O_2  and  C_3
REMARK    3  A    between atoms: C_3  and  C_5
REMARK    4  A    between atoms: C_8  and  C_9
REMARK    5  A    between atoms: C_9  and  C_10
REMARK    6  A    between atoms: C_10  and  N_11
REMARK    7  A    between atoms: C_12  and  O_13
REMARK    8  A    between atoms: O_13  and  C_14
REMARK                            x       y       z     vdW  Elec       q    Type
REMARK                         _______ _______ _______ _____ _____    ______ ____
ROOT
ATOM      1  C   UNL     1       6.219   4.528  15.670  0.00  0.00    +0.000 A 
ATOM      2  C   UNL     1       4.878   4.142  15.706  0.00  0.00    +0.000 A 
ATOM      3  C   UNL     1       4.237   3.975  16.931  0.00  0.00    +0.000 A 
ATOM      4  C   UNL     1       4.915   4.200  18.143  0.00  0.00    +0.000 A 
ATOM      5  C   UNL     1       6.261   4.618  18.110  0.00  0.00    +0.000 A 
ATOM      6  C   UNL     1       6.903   4.765  16.873  0.00  0.00    +0.000 A 
ENDROOT
BRANCH   1   7
ATOM      7  C   UNL     1       6.876   4.680  14.343  0.00  0.00    +0.000 C 
ATOM      8  O   UNL     1       7.794   5.451  14.124  0.00  0.00    +0.000 OA
BRANCH   7  10
ATOM      9  C   UNL     1       6.926   3.845  12.152  0.00  0.00    +0.000 C 
ATOM     10  O   UNL     1       6.311   3.835  13.439  0.00  0.00    +0.000 OA
ENDBRANCH   7  10
ENDBRANCH   1   7
BRANCH   5  11
ATOM     11  O   UNL     1       6.867   4.849  19.319  0.00  0.00    +0.000 OA
ATOM     12  C   UNL     1       7.920   5.812  19.346  0.00  0.00    +0.000 C 
ENDBRANCH   5  11
BRANCH   4  13
ATOM     13  C   UNL     1       4.162   3.941  19.434  0.00  0.00    +0.000 C 
BRANCH  13  14
ATOM     14  C   UNL     1       3.933   2.466  19.801  0.00  0.00    +0.000 C 
BRANCH  14  15
ATOM     15  N   UNL     1       5.151   1.763  20.212  0.00  0.00    +0.000 NA
ATOM     16  H   UNL     1       5.497   2.191  21.073  0.00  0.00    +0.000 HD
ATOM     17  H   UNL     1       5.878   1.917  19.514  0.00  0.00    +0.000 HD
ENDBRANCH  14  15
ENDBRANCH  13  14
ENDBRANCH   4  13
TORSDOF 6
ENDMDL
MODEL 2
REMARK VINA RESULT:      -6.0      3.545      5.860
REMARK  Name = 
REMARK  8 active torsions:
REMARK  status: ('A' for Active; 'I' for Inactive)
REMARK    1  A    between atoms: C_1  and  O_2
REMARK    2  A    between atoms: O_2  and  C_3
REMARK    3  A    between atoms: C_3  and  C_5
REMARK    4  A    between atoms: C_8  and  C_9
REMARK    5  A    between atoms: C_9  and  C_10
REMARK    6  A    between atoms: C_10  and  N_11
REMARK    7  A    between atoms: C_12  and  O_13
REMARK    8  A    between atoms: O_13  and  C_14
REMARK                            x       y       z     vdW  Elec       q    Type
REMARK                         _______ _______ _______ _____ _____    ______ ____
ROOT
ATOM      1  C   UNL     1       2.174   3.712  18.332  0.00  0.00    +0.000 A 
ATOM      2  C   UNL     1       3.095   2.882  17.691  0.00  0.00    +0.000 A 
ATOM      3  C   UNL     1       4.205   3.437  17.058  0.00  0.00    +0.000 A 
ATOM      4  C   UNL     1       4.425   4.827  17.062  0.00  0.00    +0.000 A 
ATOM      5  C   UNL     1       3.510   5.665  17.733  0.00  0.00    +0.000 A 
ATOM      6  C   UNL     1       2.387   5.100  18.350  0.00  0.00    +0.000 A 
ENDROOT
BRANCH   1   7
ATOM      7  C   UNL     1       0.990   3.084  18.981  0.00  0.00    +0.000 C 
ATOM      8  O   UNL     1       0.307   2.221  18.458  0.00  0.00    +0.000 OA
BRANCH   7  10
ATOM      9  C   UNL     1       1.382   2.843  21.280  0.00  0.00    +0.000 C 
ATOM     10  O   UNL     1       0.803   3.605  20.223  0.00  0.00    +0.000 OA
ENDBRANCH   7  10
ENDBRANCH   1   7
BRANCH   5  11
ATOM     11  O   UNL     1       3.786   7.009  17.728  0.00  0.00    +0.000 OA
ATOM     12  C   UNL     1       2.698   7.898  17.983  0.00  0.00    +0.000 C 
ENDBRANCH   5  11
BRANCH   4  13
ATOM     13  C   UNL     1       5.627   5.356  16.302  0.00  0.00    +0.000 C 
BRANCH  13  14
ATOM     14  C   UNL     1       6.943   5.442  17.090  0.00  0.00    +0.000 C 
BRANCH  14  15
ATOM     15  N   UNL     1       7.792   4.257  16.956  0.00  0.00    +0.000 NA
ATOM     16  H   UNL     1       8.115   3.982  17.885  0.00  0.00    +0.000 HD
ATOM     17  H   UNL     1       8.631   4.504  16.432  0.00  0.00    +0.000 HD
ENDBRANCH  14  15
ENDBRANCH  13  14
ENDBRANCH   4  13
TORSDOF 6
ENDMDL
MODEL 3
REMARK VINA RESULT:      -5.9      2.442      3.303
REMARK  Name = 
REMARK  8 active torsions:
REMARK  status: ('A' for Active; 'I' for Inactive)
REMARK    1  A    between atoms: C_1  and  O_2
REMARK    2  A    between atoms: O_2  and  C_3
REMARK    3  A    between atoms: C_3  and  C_5
REMARK    4  A    between atoms: C_8  and  C_9
REMARK    5  A    between atoms: C_9  and  C_10
REMARK    6  A    between atoms: C_10  and  N_11
REMARK    7  A    between atoms: C_12  and  O_13
REMARK    8  A    between atoms: O_13  and  C_14
REMARK                            x       y       z     vdW  Elec       q    Type
REMARK                         _______ _______ _______ _____ _____    ______ ____
ROOT
ATOM      1  C   UNL     1       5.713   4.828  17.014  0.00  0.00    +0.000 A 
ATOM      2  C   UNL     1       5.109   6.014  17.436  0.00  0.00    +0.000 A 
ATOM      3  C   UNL     1       3.793   5.996  17.894  0.00  0.00    +0.000 A 
ATOM      4  C   UNL     1       3.059   4.797  17.950  0.00  0.00    +0.000 A 
ATOM      5  C   UNL     1       3.677   3.594  17.551  0.00  0.00    +0.000 A 
ATOM      6  C   UNL     1       4.994   3.624  17.074  0.00  0.00    +0.000 A 
ENDROOT
BRANCH   1   7
ATOM      7  C   UNL     1       7.114   4.889  16.514  0.00  0.00    +0.000 C 
ATOM      8  O   UNL     1       8.061   4.370  17.081  0.00  0.00    +0.000 OA
BRANCH   7  10
ATOM      9  C   UNL     1       6.951   4.804  14.176  0.00  0.00    +0.000 C 
ATOM     10  O   UNL     1       7.169   5.587  15.349  0.00  0.00    +0.000 OA
ENDBRANCH   7  10
ENDBRANCH   1   7
BRANCH   5  11
ATOM     11  O   UNL     1       2.925   2.450  17.651  0.00  0.00    +0.000 OA
ATOM     12  C   UNL     1       3.461   1.385  18.435  0.00  0.00    +0.000 C 
ENDBRANCH   5  11
BRANCH   4  13
ATOM     13  C   UNL     1       1.615   4.873  18.407  0.00  0.00    +0.000 C 
BRANCH  13  14
ATOM     14  C   UNL     1       1.338   4.440  19.855  0.00  0.00    +0.000 C 
BRANCH  14  15
ATOM     15  N   UNL     1       0.659   3.147  19.967  0.00  0.00    +0.000 NA
ATOM     16  H   UNL     1       0.831   2.615  19.112  0.00  0.00    +0.000 HD
ATOM     17  H   UNL     1      -0.348   3.300  20.000  0.00  0.00    +0.000 HD
ENDBRANCH  14  15
ENDBRANCH  13  14
ENDBRANCH   4  13
TORSDOF 6
ENDMDL
MODEL 4
REMARK VINA RESULT:      -5.8      2.905      5.208
REMARK  Name = 
REMARK  8 active torsions:
REMARK  status: ('A' for Active; 'I' for Inactive)
REMARK    1  A    between atoms: C_1  and  O_2
REMARK    2  A    between atoms: O_2  and  C_3
REMARK    3  A    between atoms: C_3  and  C_5
REMARK    4  A    between atoms: C_8  and  C_9
REMARK    5  A    between atoms: C_9  and  C_10
REMARK    6  A    between atoms: C_10  and  N_11
REMARK    7  A    between atoms: C_12  and  O_13
REMARK    8  A    between atoms: O_13  and  C_14
REMARK                            x       y       z     vdW  Elec       q    Type
REMARK                         _______ _______ _______ _____ _____    ______ ____
ROOT
ATOM      1  C   UNL     1       3.148   4.384  18.044  0.00  0.00    +0.000 A 
ATOM      2  C   UNL     1       3.761   5.094  19.078  0.00  0.00    +0.000 A 
ATOM      3  C   UNL     1       5.139   5.298  19.056  0.00  0.00    +0.000 A 
ATOM      4  C   UNL     1       5.930   4.810  17.999  0.00  0.00    +0.000 A 
ATOM      5  C   UNL     1       5.309   4.117  16.939  0.00  0.00    +0.000 A 
ATOM      6  C   UNL     1       3.925   3.900  16.979  0.00  0.00    +0.000 A 
ENDROOT
BRANCH   1   7
ATOM      7  C   UNL     1       1.676   4.170  18.110  0.00  0.00    +0.000 C 
ATOM      8  O   UNL     1       0.939   4.212  17.140  0.00  0.00    +0.000 OA
BRANCH   7  10
ATOM      9  C   UNL     1       1.310   2.536  19.752  0.00  0.00    +0.000 C 
ATOM     10  O   UNL     1       1.295   3.915  19.390  0.00  0.00    +0.000 OA
ENDBRANCH   7  10
ENDBRANCH   1   7
BRANCH   5  11
ATOM     11  O   UNL     1       6.122   3.686  15.922  0.00  0.00    +0.000 OA
ATOM     12  C   UNL     1       5.993   4.343  14.661  0.00  0.00    +0.000 C 
ENDBRANCH   5  11
BRANCH   4  13
ATOM     13  C   UNL     1       7.429   5.025  18.079  0.00  0.00    +0.000 C 
BRANCH  13  14
ATOM     14  C   UNL     1       7.915   6.022  19.143  0.00  0.00    +0.000 C 
BRANCH  14  15
ATOM     15  N   UNL     1       8.256   5.401  20.424  0.00  0.00    +0.000 NA
ATOM     16  H   UNL     1       8.938   4.660  20.253  0.00  0.00    +0.000 HD
ATOM     17  H   UNL     1       7.431   4.937  20.802  0.00  0.00    +0.000 HD
ENDBRANCH  14  15
ENDBRANCH  13  14
ENDBRANCH   4  13
TORSDOF 6
ENDMDL
MODEL 5
REMARK VINA RESULT:      -5.8      2.879      5.670
REMARK  Name = 
REMARK  8 active torsions:
REMARK  status: ('A' for Active; 'I' for Inactive)
REMARK    1  A    between atoms: C_1  and  O_2
REMARK    2  A    between atoms: O_2  and  C_3
REMARK    3  A    between atoms: C_3  and  C_5
REMARK    4  A    between atoms: C_8  and  C_9
REMARK    5  A    between atoms: C_9  and  C_10
REMARK    6  A    between atoms: C_10  and  N_11
REMARK    7  A    between atoms: C_12  and  O_13
REMARK    8  A    between atoms: O_13  and  C_14
REMARK                            x       y       z     vdW  Elec       q    Type
REMARK                         _______ _______ _______ _____ _____    ______ ____
ROOT
ATOM      1  C   UNL     1       3.161   4.628  19.471  0.00  0.00    +0.000 A 
ATOM      2  C   UNL     1       2.578   4.279  18.251  0.00  0.00    +0.000 A 
ATOM      3  C   UNL     1       3.386   4.033  17.143  0.00  0.00    +0.000 A 
ATOM      4  C   UNL     1       4.788   4.119  17.231  0.00  0.00    +0.000 A 
ATOM      5  C   UNL     1       5.380   4.444  18.469  0.00  0.00    +0.000 A 
ATOM      6  C   UNL     1       4.559   4.708  19.573  0.00  0.00    +0.000 A 
ENDROOT
BRANCH   1   7
ATOM      7  C   UNL     1       2.266   4.902  20.628  0.00  0.00    +0.000 C 
ATOM      8  O   UNL     1       1.536   5.875  20.708  0.00  0.00    +0.000 OA
BRANCH   7  10
ATOM      9  C   UNL     1       1.442   2.849  21.406  0.00  0.00    +0.000 C 
ATOM     10  O   UNL     1       2.379   3.914  21.555  0.00  0.00    +0.000 OA
ENDBRANCH   7  10
ENDBRANCH   1   7
BRANCH   5  11
ATOM     11  O   UNL     1       6.750   4.489  18.505  0.00  0.00    +0.000 OA
ATOM     12  C   UNL     1       7.348   5.631  19.117  0.00  0.00    +0.000 C 
ENDBRANCH   5  11
BRANCH   4  13
ATOM     13  C   UNL     1       5.591   3.891  15.964  0.00  0.00    +0.000 C 
BRANCH  13  14
ATOM     14  C   UNL     1       6.033   5.153  15.206  0.00  0.00    +0.000 C 
BRANCH  14  15
ATOM     15  N   UNL     1       7.402   5.575  15.508  0.00  0.00    +0.000 NA
ATOM     16  H   UNL     1       7.363   6.450  16.034  0.00  0.00    +0.000 HD
ATOM     17  H   UNL     1       7.884   5.797  14.637  0.00  0.00    +0.000 HD
ENDBRANCH  14  15
ENDBRANCH  13  14
ENDBRANCH   4  13
TORSDOF 6
ENDMDL
MODEL 6
REMARK VINA RESULT:      -5.8      2.768      3.857
REMARK  Name = 
REMARK  8 active torsions:
REMARK  status: ('A' for Active; 'I' for Inactive)
REMARK    1  A    between atoms: C_1  and  O_2
REMARK    2  A    between atoms: O_2  and  C_3
REMARK    3  A    between atoms: C_3  and  C_5
REMARK    4  A    between atoms: C_8  and  C_9
REMARK    5  A    between atoms: C_9  and  C_10
REMARK    6  A    between atoms: C_10  and  N_11
REMARK    7  A    between atoms: C_12  and  O_13
REMARK    8  A    between atoms: O_13  and  C_14
REMARK                            x       y       z     vdW  Elec       q    Type
REMARK                         _______ _______ _______ _____ _____    ______ ____
ROOT
ATOM      1  C   UNL     1       5.522   5.541  17.074  0.00  0.00    +0.000 A 
ATOM      2  C   UNL     1       5.136   4.236  16.762  0.00  0.00    +0.000 A 
ATOM      3  C   UNL     1       3.841   3.810  17.046  0.00  0.00    +0.000 A 
ATOM      4  C   UNL     1       2.903   4.678  17.636  0.00  0.00    +0.000 A 
ATOM      5  C   UNL     1       3.282   6.004  17.927  0.00  0.00    +0.000 A 
ATOM      6  C   UNL     1       4.592   6.418  17.655  0.00  0.00    +0.000 A 
ENDROOT
BRANCH   1   7
ATOM      7  C   UNL     1       6.920   5.955  16.773  0.00  0.00    +0.000 C 
ATOM      8  O   UNL     1       7.486   5.718  15.719  0.00  0.00    +0.000 OA
BRANCH   7  10
ATOM      9  C   UNL     1       7.854   5.809  18.919  0.00  0.00    +0.000 C 
ATOM     10  O   UNL     1       7.448   6.632  17.827  0.00  0.00    +0.000 OA
ENDBRANCH   7  10
ENDBRANCH   1   7
BRANCH   5  11
ATOM     11  O   UNL     1       2.322   6.815  18.477  0.00  0.00    +0.000 OA
ATOM     12  C   UNL     1       2.231   8.149  17.977  0.00  0.00    +0.000 C 
ENDBRANCH   5  11
BRANCH   4  13
ATOM     13  C   UNL     1       1.531   4.118  17.965  0.00  0.00    +0.000 C 
BRANCH  13  14
ATOM     14  C   UNL     1       1.458   3.172  19.173  0.00  0.00    +0.000 C 
BRANCH  14  15
ATOM     15  N   UNL     1       0.639   3.681  20.275  0.00  0.00    +0.000 NA
ATOM     16  H   UNL     1       0.850   3.138  21.114  0.00  0.00    +0.000 HD
ATOM     17  H   UNL     1      -0.344   3.506  20.070  0.00  0.00    +0.000 HD
ENDBRANCH  14  15
ENDBRANCH  13  14
ENDBRANCH   4  13
TORSDOF 6
ENDMDL
MODEL 7
REMARK VINA RESULT:      -5.8      2.723      5.394
REMARK  Name = 
REMARK  8 active torsions:
REMARK  status: ('A' for Active; 'I' for Inactive)
REMARK    1  A    between atoms: C_1  and  O_2
REMARK    2  A    between atoms: O_2  and  C_3
REMARK    3  A    between atoms: C_3  and  C_5
REMARK    4  A    between atoms: C_8  and  C_9
REMARK    5  A    between atoms: C_9  and  C_10
REMARK    6  A    between atoms: C_10  and  N_11
REMARK    7  A    between atoms: C_12  and  O_13
REMARK    8  A    between atoms: O_13  and  C_14
REMARK                            x       y       z     vdW  Elec       q    Type
REMARK                         _______ _______ _______ _____ _____    ______ ____
ROOT
ATOM      1  C   UNL     1       4.404   3.289  19.126  0.00  0.00    +0.000 A 
ATOM      2  C   UNL     1       3.821   2.951  17.903  0.00  0.00    +0.000 A 
ATOM      3  C   UNL     1       4.109   3.704  16.767  0.00  0.00    +0.000 A 
ATOM      4  C   UNL     1       4.990   4.799  16.824  0.00  0.00    +0.000 A 
ATOM      5  C   UNL     1       5.602   5.125  18.052  0.00  0.00    +0.000 A 
ATOM      6  C   UNL     1       5.293   4.375  19.193  0.00  0.00    +0.000 A 
ENDROOT
BRANCH   1   7
ATOM      7  C   UNL     1       4.059   2.473  20.322  0.00  0.00    +0.000 C 
ATOM      8  O   UNL     1       4.885   1.918  21.026  0.00  0.00    +0.000 OA
BRANCH   7  10
ATOM      9  C   UNL     1       2.256   3.209  21.629  0.00  0.00    +0.000 C 
ATOM     10  O   UNL     1       2.712   2.454  20.507  0.00  0.00    +0.000 OA
ENDBRANCH   7  10
ENDBRANCH   1   7
BRANCH   5  11
ATOM     11  O   UNL     1       6.473   6.186  18.046  0.00  0.00    +0.000 OA
ATOM     12  C   UNL     1       7.691   6.032  18.774  0.00  0.00    +0.000 C 
ENDBRANCH   5  11
BRANCH   4  13
ATOM     13  C   UNL     1       5.205   5.601  15.554  0.00  0.00    +0.000 C 
BRANCH  13  14
ATOM     14  C   UNL     1       6.287   5.077  14.597  0.00  0.00    +0.000 C 
BRANCH  14  15
ATOM     15  N   UNL     1       7.654   5.282  15.079  0.00  0.00    +0.000 NA
ATOM     16  H   UNL     1       8.280   5.325  14.273  0.00  0.00    +0.000 HD
ATOM     17  H   UNL     1       7.946   4.466  15.615  0.00  0.00    +0.000 HD
ENDBRANCH  14  15
ENDBRANCH  13  14
ENDBRANCH   4  13
TORSDOF 6
ENDMDL
MODEL 8
REMARK VINA RESULT:      -5.7      2.737      3.586
REMARK  Name = 
REMARK  8 active torsions:
REMARK  status: ('A' for Active; 'I' for Inactive)
REMARK    1  A    between atoms: C_1  and  O_2
REMARK    2  A    between atoms: O_2  and  C_3
REMARK    3  A    between atoms: C_3  and  C_5
REMARK    4  A    between atoms: C_8  and  C_9
REMARK    5  A    between atoms: C_9  and  C_10
REMARK    6  A    between atoms: C_10  and  N_11
REMARK    7  A    between atoms: C_12  and  O_13
REMARK    8  A    between atoms: O_13  and  C_14
REMARK                            x       y       z     vdW  Elec       q    Type
REMARK                         _______ _______ _______ _____ _____    ______ ____
ROOT
ATOM      1  C   UNL     1       4.200   5.027  17.156  0.00  0.00    +0.000 A 
ATOM      2  C   UNL     1       3.593   3.780  16.997  0.00  0.00    +0.000 A 
ATOM      3  C   UNL     1       2.567   3.394  17.858  0.00  0.00    +0.000 A 
ATOM      4  C   UNL     1       2.120   4.246  18.884  0.00  0.00    +0.000 A 
ATOM      5  C   UNL     1       2.712   5.518  19.028  0.00  0.00    +0.000 A 
ATOM      6  C   UNL     1       3.755   5.890  18.170  0.00  0.00    +0.000 A 
ENDROOT
BRANCH   1   7
ATOM      7  C   UNL     1       5.304   5.398  16.229  0.00  0.00    +0.000 C 
ATOM      8  O   UNL     1       5.336   6.437  15.592  0.00  0.00    +0.000 OA
BRANCH   7  10
ATOM      9  C   UNL     1       7.267   4.567  17.208  0.00  0.00    +0.000 C 
ATOM     10  O   UNL     1       6.253   4.424  16.214  0.00  0.00    +0.000 OA
ENDBRANCH   7  10
ENDBRANCH   1   7
BRANCH   5  11
ATOM     11  O   UNL     1       2.220   6.319  20.028  0.00  0.00    +0.000 OA
ATOM     12  C   UNL     1       2.066   7.707  19.733  0.00  0.00    +0.000 C 
ENDBRANCH   5  11
BRANCH   4  13
ATOM     13  C   UNL     1       1.038   3.727  19.813  0.00  0.00    +0.000 C 
BRANCH  13  14
ATOM     14  C   UNL     1       1.474   2.665  20.834  0.00  0.00    +0.000 C 
BRANCH  14  15
ATOM     15  N   UNL     1       2.180   3.214  21.994  0.00  0.00    +0.000 NA
ATOM     16  H   UNL     1       2.296   4.220  21.857  0.00  0.00    +0.000 HD
ATOM     17  H   UNL     1       3.122   2.827  22.027  0.00  0.00    +0.000 HD
ENDBRANCH  14  15
ENDBRANCH  13  14
ENDBRANCH   4  13
TORSDOF 6
ENDMDL
MODEL 9
REMARK VINA RESULT:      -5.7      2.738      3.139
REMARK  Name = 
REMARK  8 active torsions:
REMARK  status: ('A' for Active; 'I' for Inactive)
REMARK    1  A    between atoms: C_1  and  O_2
REMARK    2  A    between atoms: O_2  and  C_3
REMARK    3  A    between atoms: C_3  and  C_5
REMARK    4  A    between atoms: C_8  and  C_9
REMARK    5  A    between atoms: C_9  and  C_10
REMARK    6  A    between atoms: C_10  and  N_11
REMARK    7  A    between atoms: C_12  and  O_13
REMARK    8  A    between atoms: O_13  and  C_14
REMARK                            x       y       z     vdW  Elec       q    Type
REMARK                         _______ _______ _______ _____ _____    ______ ____
ROOT
ATOM      1  C   UNL     1       5.493   5.328  16.785  0.00  0.00    +0.000 A 
ATOM      2  C   UNL     1       5.006   4.028  16.639  0.00  0.00    +0.000 A 
ATOM      3  C   UNL     1       3.726   3.713  17.090  0.00  0.00    +0.000 A 
ATOM      4  C   UNL     1       2.903   4.689  17.682  0.00  0.00    +0.000 A 
ATOM      5  C   UNL     1       3.382   6.010  17.804  0.00  0.00    +0.000 A 
ATOM      6  C   UNL     1       4.678   6.313  17.366  0.00  0.00    +0.000 A 
ENDROOT
BRANCH   1   7
ATOM      7  C   UNL     1       6.872   5.623  16.308  0.00  0.00    +0.000 C 
ATOM      8  O   UNL     1       7.497   6.624  16.615  0.00  0.00    +0.000 OA
BRANCH   7  10
ATOM      9  C   UNL     1       7.159   4.863  14.108  0.00  0.00    +0.000 C 
ATOM     10  O   UNL     1       7.318   4.621  15.505  0.00  0.00    +0.000 OA
ENDBRANCH   7  10
ENDBRANCH   1   7
BRANCH   5  11
ATOM     11  O   UNL     1       2.530   6.927  18.366  0.00  0.00    +0.000 OA
ATOM     12  C   UNL     1       2.586   8.261  17.862  0.00  0.00    +0.000 C 
ENDBRANCH   5  11
BRANCH   4  13
ATOM     13  C   UNL     1       1.545   4.251  18.197  0.00  0.00    +0.000 C 
BRANCH  13  14
ATOM     14  C   UNL     1       1.540   3.057  19.165  0.00  0.00    +0.000 C 
BRANCH  14  15
ATOM     15  N   UNL     1       0.593   3.198  20.273  0.00  0.00    +0.000 NA
ATOM     16  H   UNL     1       1.101   3.531  21.094  0.00  0.00    +0.000 HD
ATOM     17  H   UNL     1       0.232   2.278  20.524  0.00  0.00    +0.000 HD
ENDBRANCH  14  15
ENDBRANCH  13  14
ENDBRANCH   4  13
TORSDOF 6
ENDMDL
