MODEL 1
REMARK VINA RESULT:      -7.2      0.000      0.000
REMARK  Name = 
REMARK  6 active torsions:
REMARK  status: ('A' for Active; 'I' for Inactive)
REMARK    1  A    between atoms: C_1  and  N_2
REMARK    2  A    between atoms: N_2  and  C_3
REMARK    3  A    between atoms: C_3  and  C_4
REMARK    4  A    between atoms: C_3  and  C_5
REMARK    5  A    between atoms: C_5  and  C_7
REMARK    6  A    between atoms: C_10  and  C_11
REMARK                            x       y       z     vdW  Elec       q    Type
REMARK                         _______ _______ _______ _____ _____    ______ ____
ROOT
ATOM      1  C   UNL     1       4.172   5.439  17.084  0.00  0.00    +0.000 A 
ATOM      2  C   UNL     1       4.067   4.051  16.905  0.00  0.00    +0.000 A 
ATOM      3  C   UNL     1       3.107   3.309  17.610  0.00  0.00    +0.000 A 
ATOM      4  C   UNL     1       2.242   3.946  18.506  0.00  0.00    +0.000 A 
ATOM      5  C   UNL     1       2.345   5.338  18.672  0.00  0.00    +0.000 A 
ATOM      6  C   UNL     1       3.295   6.085  17.960  0.00  0.00    +0.000 A 
ENDROOT
BRANCH   4   7
ATOM      7  C   UNL     1       1.239   3.153  19.315  0.00  0.00    +0.000 C 
ATOM      8  F   UNL     1       0.458   3.920  20.125  0.00  0.00    +0.000 F 
ATOM      9  F   UNL     1       0.379   2.445  18.531  0.00  0.00    +0.000 F 
ATOM     10  F   UNL     1       1.838   2.240  20.129  0.00  0.00    +0.000 F 
ENDBRANCH   4   7
BRANCH   1  11
ATOM     11  C   UNL     1       5.290   6.149  16.391  0.00  0.00    +0.000 C 
ATOM     12  O   UNL     1       4.972   6.973  15.530  0.00  0.00    +0.000 OA
BRANCH  11  13
ATOM     13  C   UNL     1       6.769   5.792  16.708  0.00  0.00    +0.000 C 
ATOM     14  C   UNL     1       7.445   6.912  17.496  0.00  0.00    +0.000 C 
BRANCH  13  16
ATOM     15  C   UNL     1       6.920   4.479  14.622  0.00  0.00    +0.000 C 
ATOM     16  N   UNL     1       7.464   5.562  15.421  0.00  0.00    +0.000 NA
ATOM     17  H   UNL     1       7.457   6.438  14.890  0.00  0.00    +0.000 HD
ENDBRANCH  13  16
ENDBRANCH  11  13
ENDBRANCH   1  11
TORSDOF 4
ENDMDL
MODEL 2
REMARK VINA RESULT:      -7.0      0.227      1.541
REMARK  Name = 
REMARK  6 active torsions:
REMARK  status: ('A' for Active; 'I' for Inactive)
REMARK    1  A    between atoms: C_1  and  N_2
REMARK    2  A    between atoms: N_2  and  C_3
REMARK    3  A    between atoms: C_3  and  C_4
REMARK    4  A    between atoms: C_3  and  C_5
REMARK    5  A    between atoms: C_5  and  C_7
REMARK    6  A    between atoms: C_10  and  C_11
REMARK                            x       y       z     vdW  Elec       q    Type
REMARK                         _______ _______ _______ _____ _____    ______ ____
ROOT
ATOM      1  C   UNL     1       4.303   5.232  17.321  0.00  0.00    +0.000 A 
ATOM      2  C   UNL     1       3.408   5.891  18.177  0.00  0.00    +0.000 A 
ATOM      3  C   UNL     1       2.399   5.179  18.845  0.00  0.00    +0.000 A 
ATOM      4  C   UNL     1       2.272   3.798  18.661  0.00  0.00    +0.000 A 
ATOM      5  C   UNL     1       3.178   3.142  17.811  0.00  0.00    +0.000 A 
ATOM      6  C   UNL     1       4.195   3.849  17.151  0.00  0.00    +0.000 A 
ENDROOT
BRANCH   4   7
ATOM      7  C   UNL     1       1.156   3.025  19.330  0.00  0.00    +0.000 C 
ATOM      8  F   UNL     1       0.304   2.423  18.455  0.00  0.00    +0.000 F 
ATOM      9  F   UNL     1       1.620   2.033  20.140  0.00  0.00    +0.000 F 
ATOM     10  F   UNL     1       0.380   3.819  20.120  0.00  0.00    +0.000 F 
ENDBRANCH   4   7
BRANCH   1  11
ATOM     11  C   UNL     1       5.277   6.066  16.554  0.00  0.00    +0.000 C 
ATOM     12  O   UNL     1       4.801   6.873  15.752  0.00  0.00    +0.000 OA
BRANCH  11  13
ATOM     13  C   UNL     1       6.807   5.855  16.727  0.00  0.00    +0.000 C 
ATOM     14  C   UNL     1       7.447   7.045  17.440  0.00  0.00    +0.000 C 
BRANCH  13  16
ATOM     15  C   UNL     1       6.902   4.514  14.656  0.00  0.00    +0.000 C 
ATOM     16  N   UNL     1       7.393   5.673  15.380  0.00  0.00    +0.000 NA
ATOM     17  H   UNL     1       7.231   6.527  14.840  0.00  0.00    +0.000 HD
ENDBRANCH  13  16
ENDBRANCH  11  13
ENDBRANCH   1  11
TORSDOF 4
ENDMDL
MODEL 3
REMARK VINA RESULT:      -6.9      1.463      1.648
REMARK  Name = 
REMARK  6 active torsions:
REMARK  status: ('A' for Active; 'I' for Inactive)
REMARK    1  A    between atoms: C_1  and  N_2
REMARK    2  A    between atoms: N_2  and  C_3
REMARK    3  A    between atoms: C_3  and  C_4
REMARK    4  A    between atoms: C_3  and  C_5
REMARK    5  A    between atoms: C_5  and  C_7
REMARK    6  A    between atoms: C_10  and  C_11
REMARK                            x       y       z     vdW  Elec       q    Type
REMARK                         _______ _______ _______ _____ _____    ______ ____
ROOT
ATOM      1  C   UNL     1       4.967   4.594  18.249  0.00  0.00    +0.000 A 
ATOM      2  C   UNL     1       4.305   3.532  17.615  0.00  0.00    +0.000 A 
ATOM      3  C   UNL     1       3.070   3.068  18.095  0.00  0.00    +0.000 A 
ATOM      4  C   UNL     1       2.484   3.660  19.220  0.00  0.00    +0.000 A 
ATOM      5  C   UNL     1       3.148   4.731  19.843  0.00  0.00    +0.000 A 
ATOM      6  C   UNL     1       4.376   5.204  19.359  0.00  0.00    +0.000 A 
ENDROOT
BRANCH   4   7
ATOM      7  C   UNL     1       1.181   3.137  19.783  0.00  0.00    +0.000 C 
ATOM      8  F   UNL     1       0.383   4.106  20.310  0.00  0.00    +0.000 F 
ATOM      9  F   UNL     1       0.425   2.501  18.845  0.00  0.00    +0.000 F 
ATOM     10  F   UNL     1       1.377   2.230  20.781  0.00  0.00    +0.000 F 
ENDBRANCH   4   7
BRANCH   1  11
ATOM     11  C   UNL     1       6.330   4.960  17.757  0.00  0.00    +0.000 C 
ATOM     12  O   UNL     1       7.283   4.400  18.304  0.00  0.00    +0.000 OA
BRANCH  11  13
ATOM     13  C   UNL     1       6.509   6.046  16.660  0.00  0.00    +0.000 C 
ATOM     14  C   UNL     1       5.158   6.478  16.091  0.00  0.00    +0.000 C 
BRANCH  13  16
ATOM     15  C   UNL     1       6.706   4.527  14.723  0.00  0.00    +0.000 C 
ATOM     16  N   UNL     1       7.369   5.478  15.597  0.00  0.00    +0.000 NA
ATOM     17  H   UNL     1       7.761   6.252  15.053  0.00  0.00    +0.000 HD
ENDBRANCH  13  16
ENDBRANCH  11  13
ENDBRANCH   1  11
TORSDOF 4
ENDMDL
MODEL 4
REMARK VINA RESULT:      -6.9      1.532      2.251
REMARK  Name = 
REMARK  6 active torsions:
REMARK  status: ('A' for Active; 'I' for Inactive)
REMARK    1  A    between atoms: C_1  and  N_2
REMARK    2  A    between atoms: N_2  and  C_3
REMARK    3  A    between atoms: C_3  and  C_4
REMARK    4  A    between atoms: C_3  and  C_5
REMARK    5  A    between atoms: C_5  and  C_7
REMARK    6  A    between atoms: C_10  and  C_11
REMARK                            x       y       z     vdW  Elec       q    Type
REMARK                         _______ _______ _______ _____ _____    ______ ____
ROOT
ATOM      1  C   UNL     1       4.964   4.426  18.120  0.00  0.00    +0.000 A 
ATOM      2  C   UNL     1       4.162   3.513  17.419  0.00  0.00    +0.000 A 
ATOM      3  C   UNL     1       2.921   3.105  17.935  0.00  0.00    +0.000 A 
ATOM      4  C   UNL     1       2.471   3.603  19.163  0.00  0.00    +0.000 A 
ATOM      5  C   UNL     1       3.275   4.525  19.854  0.00  0.00    +0.000 A 
ATOM      6  C   UNL     1       4.509   4.944  19.336  0.00  0.00    +0.000 A 
ENDROOT
BRANCH   4   7
ATOM      7  C   UNL     1       1.162   3.132  19.759  0.00  0.00    +0.000 C 
ATOM      8  F   UNL     1       1.314   2.272  20.804  0.00  0.00    +0.000 F 
ATOM      9  F   UNL     1       0.402   4.159  20.229  0.00  0.00    +0.000 F 
ATOM     10  F   UNL     1       0.386   2.480  18.849  0.00  0.00    +0.000 F 
ENDBRANCH   4   7
BRANCH   1  11
ATOM     11  C   UNL     1       6.321   4.727  17.571  0.00  0.00    +0.000 C 
ATOM     12  O   UNL     1       7.284   4.316  18.222  0.00  0.00    +0.000 OA
BRANCH  11  13
ATOM     13  C   UNL     1       6.480   5.579  16.282  0.00  0.00    +0.000 C 
ATOM     14  C   UNL     1       6.781   4.695  15.074  0.00  0.00    +0.000 C 
BRANCH  13  16
ATOM     15  C   UNL     1       7.238   7.654  17.387  0.00  0.00    +0.000 C 
ATOM     16  N   UNL     1       7.577   6.546  16.512  0.00  0.00    +0.000 NA
ATOM     17  H   UNL     1       8.385   6.034  16.878  0.00  0.00    +0.000 HD
ENDBRANCH  13  16
ENDBRANCH  11  13
ENDBRANCH   1  11
TORSDOF 4
ENDMDL
MODEL 5
REMARK VINA RESULT:      -6.8      0.929      1.737
REMARK  Name = 
REMARK  6 active torsions:
REMARK  status: ('A' for Active; 'I' for Inactive)
REMARK    1  A    between atoms: C_1  and  N_2
REMARK    2  A    between atoms: N_2  and  C_3
REMARK    3  A    between atoms: C_3  and  C_4
REMARK    4  A    between atoms: C_3  and  C_5
REMARK    5  A    between atoms: C_5  and  C_7
REMARK    6  A    between atoms: C_10  and  C_11
REMARK                            x       y       z     vdW  Elec       q    Type
REMARK                         _______ _______ _______ _____ _____    ______ ____
ROOT
ATOM      1  C   UNL     1       4.310   4.723  17.393  0.00  0.00    +0.000 A 
ATOM      2  C   UNL     1       3.847   5.465  18.490  0.00  0.00    +0.000 A 
ATOM      3  C   UNL     1       2.801   4.982  19.292  0.00  0.00    +0.000 A 
ATOM      4  C   UNL     1       2.203   3.750  19.003  0.00  0.00    +0.000 A 
ATOM      5  C   UNL     1       2.679   3.007  17.910  0.00  0.00    +0.000 A 
ATOM      6  C   UNL     1       3.732   3.481  17.114  0.00  0.00    +0.000 A 
ENDROOT
BRANCH   4   7
ATOM      7  C   UNL     1       1.038   3.241  19.825  0.00  0.00    +0.000 C 
ATOM      8  F   UNL     1       1.407   2.444  20.865  0.00  0.00    +0.000 F 
ATOM      9  F   UNL     1       0.304   4.249  20.372  0.00  0.00    +0.000 F 
ATOM     10  F   UNL     1       0.165   2.505  19.082  0.00  0.00    +0.000 F 
ENDBRANCH   4   7
BRANCH   1  11
ATOM     11  C   UNL     1       5.345   5.348  16.515  0.00  0.00    +0.000 C 
ATOM     12  O   UNL     1       5.034   6.406  15.963  0.00  0.00    +0.000 OA
BRANCH  11  13
ATOM     13  C   UNL     1       6.706   4.640  16.272  0.00  0.00    +0.000 C 
ATOM     14  C   UNL     1       7.559   4.642  17.539  0.00  0.00    +0.000 C 
BRANCH  13  16
ATOM     15  C   UNL     1       7.151   4.813  13.849  0.00  0.00    +0.000 C 
ATOM     16  N   UNL     1       7.397   5.354  15.173  0.00  0.00    +0.000 NA
ATOM     17  H   UNL     1       7.128   6.341  15.212  0.00  0.00    +0.000 HD
ENDBRANCH  13  16
ENDBRANCH  11  13
ENDBRANCH   1  11
TORSDOF 4
ENDMDL
MODEL 6
REMARK VINA RESULT:      -6.8      1.608      2.117
REMARK  Name = 
REMARK  6 active torsions:
REMARK  status: ('A' for Active; 'I' for Inactive)
REMARK    1  A    between atoms: C_1  and  N_2
REMARK    2  A    between atoms: N_2  and  C_3
REMARK    3  A    between atoms: C_3  and  C_4
REMARK    4  A    between atoms: C_3  and  C_5
REMARK    5  A    between atoms: C_5  and  C_7
REMARK    6  A    between atoms: C_10  and  C_11
REMARK                            x       y       z     vdW  Elec       q    Type
REMARK                         _______ _______ _______ _____ _____    ______ ____
ROOT
ATOM      1  C   UNL     1       4.968   4.534  18.309  0.00  0.00    +0.000 A 
ATOM      2  C   UNL     1       4.308   3.376  17.869  0.00  0.00    +0.000 A 
ATOM      3  C   UNL     1       3.077   2.997  18.427  0.00  0.00    +0.000 A 
ATOM      4  C   UNL     1       2.493   3.770  19.436  0.00  0.00    +0.000 A 
ATOM      5  C   UNL     1       3.154   4.934  19.865  0.00  0.00    +0.000 A 
ATOM      6  C   UNL     1       4.378   5.323  19.300  0.00  0.00    +0.000 A 
ENDROOT
BRANCH   4   7
ATOM      7  C   UNL     1       1.195   3.346  20.087  0.00  0.00    +0.000 C 
ATOM      8  F   UNL     1       0.452   4.385  20.559  0.00  0.00    +0.000 F 
ATOM      9  F   UNL     1       0.381   2.665  19.233  0.00  0.00    +0.000 F 
ATOM     10  F   UNL     1       1.396   2.517  21.149  0.00  0.00    +0.000 F 
ENDBRANCH   4   7
BRANCH   1  11
ATOM     11  C   UNL     1       6.327   4.815  17.755  0.00  0.00    +0.000 C 
ATOM     12  O   UNL     1       7.286   4.386  18.400  0.00  0.00    +0.000 OA
BRANCH  11  13
ATOM     13  C   UNL     1       6.494   5.670  16.468  0.00  0.00    +0.000 C 
ATOM     14  C   UNL     1       6.714   4.782  15.245  0.00  0.00    +0.000 C 
BRANCH  13  16
ATOM     15  C   UNL     1       7.354   7.767  17.448  0.00  0.00    +0.000 C 
ATOM     16  N   UNL     1       7.648   6.575  16.674  0.00  0.00    +0.000 NA
ATOM     17  H   UNL     1       8.402   6.040  17.112  0.00  0.00    +0.000 HD
ENDBRANCH  13  16
ENDBRANCH  11  13
ENDBRANCH   1  11
TORSDOF 4
ENDMDL
MODEL 7
REMARK VINA RESULT:      -6.8      1.544      2.293
REMARK  Name = 
REMARK  6 active torsions:
REMARK  status: ('A' for Active; 'I' for Inactive)
REMARK    1  A    between atoms: C_1  and  N_2
REMARK    2  A    between atoms: N_2  and  C_3
REMARK    3  A    between atoms: C_3  and  C_4
REMARK    4  A    between atoms: C_3  and  C_5
REMARK    5  A    between atoms: C_5  and  C_7
REMARK    6  A    between atoms: C_10  and  C_11
REMARK                            x       y       z     vdW  Elec       q    Type
REMARK                         _______ _______ _______ _____ _____    ______ ____
ROOT
ATOM      1  C   UNL     1       5.122   4.415  18.369  0.00  0.00    +0.000 A 
ATOM      2  C   UNL     1       4.532   5.119  19.430  0.00  0.00    +0.000 A 
ATOM      3  C   UNL     1       3.271   4.750  19.922  0.00  0.00    +0.000 A 
ATOM      4  C   UNL     1       2.581   3.672  19.355  0.00  0.00    +0.000 A 
ATOM      5  C   UNL     1       3.182   2.965  18.300  0.00  0.00    +0.000 A 
ATOM      6  C   UNL     1       4.448   3.324  17.813  0.00  0.00    +0.000 A 
ENDROOT
BRANCH   4   7
ATOM      7  C   UNL     1       1.197   3.295  19.837  0.00  0.00    +0.000 C 
ATOM      8  F   UNL     1       0.421   2.717  18.879  0.00  0.00    +0.000 F 
ATOM      9  F   UNL     1       1.227   2.413  20.874  0.00  0.00    +0.000 F 
ATOM     10  F   UNL     1       0.496   4.374  20.286  0.00  0.00    +0.000 F 
ENDBRANCH   4   7
BRANCH   1  11
ATOM     11  C   UNL     1       6.411   4.933  17.819  0.00  0.00    +0.000 C 
ATOM     12  O   UNL     1       7.444   4.445  18.282  0.00  0.00    +0.000 OA
BRANCH  11  13
ATOM     13  C   UNL     1       6.419   6.080  16.771  0.00  0.00    +0.000 C 
ATOM     14  C   UNL     1       5.017   6.326  16.216  0.00  0.00    +0.000 C 
BRANCH  13  16
ATOM     15  C   UNL     1       6.833   4.704  14.763  0.00  0.00    +0.000 C 
ATOM     16  N   UNL     1       7.352   5.696  15.687  0.00  0.00    +0.000 NA
ATOM     17  H   UNL     1       7.628   6.544  15.185  0.00  0.00    +0.000 HD
ENDBRANCH  13  16
ENDBRANCH  11  13
ENDBRANCH   1  11
TORSDOF 4
ENDMDL
MODEL 8
REMARK VINA RESULT:      -6.8      1.792      2.724
REMARK  Name = 
REMARK  6 active torsions:
REMARK  status: ('A' for Active; 'I' for Inactive)
REMARK    1  A    between atoms: C_1  and  N_2
REMARK    2  A    between atoms: N_2  and  C_3
REMARK    3  A    between atoms: C_3  and  C_4
REMARK    4  A    between atoms: C_3  and  C_5
REMARK    5  A    between atoms: C_5  and  C_7
REMARK    6  A    between atoms: C_10  and  C_11
REMARK                            x       y       z     vdW  Elec       q    Type
REMARK                         _______ _______ _______ _____ _____    ______ ____
ROOT
ATOM      1  C   UNL     1       5.009   4.441  18.625  0.00  0.00    +0.000 A 
ATOM      2  C   UNL     1       4.316   5.429  19.340  0.00  0.00    +0.000 A 
ATOM      3  C   UNL     1       3.079   5.144  19.940  0.00  0.00    +0.000 A 
ATOM      4  C   UNL     1       2.519   3.867  19.827  0.00  0.00    +0.000 A 
ATOM      5  C   UNL     1       3.223   2.880  19.118  0.00  0.00    +0.000 A 
ATOM      6  C   UNL     1       4.465   3.157  18.528  0.00  0.00    +0.000 A 
ENDROOT
BRANCH   4   7
ATOM      7  C   UNL     1       1.161   3.560  20.420  0.00  0.00    +0.000 C 
ATOM      8  F   UNL     1       0.376   2.784  19.622  0.00  0.00    +0.000 F 
ATOM      9  F   UNL     1       1.247   2.902  21.609  0.00  0.00    +0.000 F 
ATOM     10  F   UNL     1       0.439   4.688  20.670  0.00  0.00    +0.000 F 
ENDBRANCH   4   7
BRANCH   1  11
ATOM     11  C   UNL     1       6.262   4.844  17.916  0.00  0.00    +0.000 C 
ATOM     12  O   UNL     1       7.319   4.395  18.365  0.00  0.00    +0.000 OA
BRANCH  11  13
ATOM     13  C   UNL     1       6.209   5.836  16.722  0.00  0.00    +0.000 C 
ATOM     14  C   UNL     1       5.937   5.101  15.410  0.00  0.00    +0.000 C 
BRANCH  13  16
ATOM     15  C   UNL     1       7.615   7.688  17.554  0.00  0.00    +0.000 C 
ATOM     16  N   UNL     1       7.508   6.545  16.666  0.00  0.00    +0.000 NA
ATOM     17  H   UNL     1       8.252   5.869  16.860  0.00  0.00    +0.000 HD
ENDBRANCH  13  16
ENDBRANCH  11  13
ENDBRANCH   1  11
TORSDOF 4
ENDMDL
MODEL 9
REMARK VINA RESULT:      -6.7      1.011      2.154
REMARK  Name = 
REMARK  6 active torsions:
REMARK  status: ('A' for Active; 'I' for Inactive)
REMARK    1  A    between atoms: C_1  and  N_2
REMARK    2  A    between atoms: N_2  and  C_3
REMARK    3  A    between atoms: C_3  and  C_4
REMARK    4  A    between atoms: C_3  and  C_5
REMARK    5  A    between atoms: C_5  and  C_7
REMARK    6  A    between atoms: C_10  and  C_11
REMARK                            x       y       z     vdW  Elec       q    Type
REMARK                         _______ _______ _______ _____ _____    ______ ____
ROOT
ATOM      1  C   UNL     1       4.189   4.926  17.237  0.00  0.00    +0.000 A 
ATOM      2  C   UNL     1       3.925   5.486  18.497  0.00  0.00    +0.000 A 
ATOM      3  C   UNL     1       2.939   4.937  19.332  0.00  0.00    +0.000 A 
ATOM      4  C   UNL     1       2.203   3.823  18.915  0.00  0.00    +0.000 A 
ATOM      5  C   UNL     1       2.480   3.261  17.658  0.00  0.00    +0.000 A 
ATOM      6  C   UNL     1       3.473   3.799  16.825  0.00  0.00    +0.000 A 
ENDROOT
BRANCH   4   7
ATOM      7  C   UNL     1       1.100   3.253  19.780  0.00  0.00    +0.000 C 
ATOM      8  F   UNL     1       1.550   2.457  20.790  0.00  0.00    +0.000 F 
ATOM      9  F   UNL     1       0.350   4.221  20.376  0.00  0.00    +0.000 F 
ATOM     10  F   UNL     1       0.225   2.491  19.066  0.00  0.00    +0.000 F 
ENDBRANCH   4   7
BRANCH   1  11
ATOM     11  C   UNL     1       5.168   5.629  16.354  0.00  0.00    +0.000 C 
ATOM     12  O   UNL     1       4.848   6.753  15.959  0.00  0.00    +0.000 OA
BRANCH  11  13
ATOM     13  C   UNL     1       6.480   4.926  15.912  0.00  0.00    +0.000 C 
ATOM     14  C   UNL     1       6.233   4.001  14.722  0.00  0.00    +0.000 C 
BRANCH  13  16
ATOM     15  C   UNL     1       7.678   4.964  18.072  0.00  0.00    +0.000 C 
ATOM     16  N   UNL     1       6.997   4.162  17.071  0.00  0.00    +0.000 NA
ATOM     17  H   UNL     1       6.217   3.650  17.492  0.00  0.00    +0.000 HD
ENDBRANCH  13  16
ENDBRANCH  11  13
ENDBRANCH   1  11
TORSDOF 4
ENDMDL
