MODEL 1
REMARK VINA RESULT:      -8.6      0.000      0.000
REMARK  Name = 
REMARK  6 active torsions:
REMARK  status: ('A' for Active; 'I' for Inactive)
REMARK    1  A    between atoms: C_2  and  C_14
REMARK    2  A    between atoms: N_3  and  C_4
REMARK    3  A    between atoms: C_7  and  N_8
REMARK    4  A    between atoms: C_14  and  N_15
REMARK    5  A    between atoms: C_14  and  C_26
REMARK    6  A    between atoms: N_15  and  C_16
REMARK                            x       y       z     vdW  Elec       q    Type
REMARK                         _______ _______ _______ _____ _____    ______ ____
ROOT
ATOM      1  C   UNL     1       2.569   5.905  19.220  0.00  0.00    +0.000 C 
ENDROOT
BRANCH   1   2
ATOM      2  C   UNL     1       2.291   4.403  19.338  0.00  0.00    +0.000 A 
ATOM      3  C   UNL     1       1.429   3.777  18.423  0.00  0.00    +0.000 A 
ATOM      4  C   UNL     1       1.189   2.402  18.496  0.00  0.00    +0.000 A 
ATOM      5  C   UNL     1       1.804   1.633  19.482  0.00  0.00    +0.000 A 
ATOM      6  C   UNL     1       2.666   2.234  20.392  0.00  0.00    +0.000 A 
ATOM      7  C   UNL     1       2.920   3.603  20.310  0.00  0.00    +0.000 A 
ENDBRANCH   1   2
BRANCH   1   9
ATOM      8  O   UNL     1       1.169   6.245  21.192  0.00  0.00    +0.000 OA
ATOM      9  C   UNL     1       1.731   6.762  20.223  0.00  0.00    +0.000 C 
ATOM     10  N   UNL     1       1.668   8.129  19.939  0.00  0.00    +0.000 N 
ATOM     11  H   UNL     1       2.072   8.461  19.070  0.00  0.00    +0.000 HD
BRANCH  10  12
ATOM     12  C   UNL     1       0.974   9.102  20.715  0.00  0.00    +0.000 A 
ATOM     13  C   UNL     1       1.031   9.107  22.115  0.00  0.00    +0.000 A 
ATOM     14  C   UNL     1       0.316  10.030  22.881  0.00  0.00    +0.000 A 
ATOM     15  C   UNL     1      -0.459  10.997  22.245  0.00  0.00    +0.000 A 
ATOM     16  C   UNL     1      -0.519  11.043  20.846  0.00  0.00    +0.000 A 
ATOM     17  C   UNL     1       0.199  10.101  20.090  0.00  0.00    +0.000 A 
ATOM     18 BR   UNL     1       0.038  10.187  18.198  0.00  0.00    +0.000 Br
BRANCH  15  19
ATOM     19  N   UNL     1      -1.214  11.962  23.060  0.00  0.00    +0.000 N 
ATOM     20  O   UNL     1      -2.393  11.690  23.327  0.00  0.00    +0.000 OA
ATOM     21  O   UNL     1      -0.623  12.984  23.427  0.00  0.00    +0.000 OA
ENDBRANCH  15  19
ENDBRANCH  10  12
ENDBRANCH   1   9
BRANCH   1  22
ATOM     22  N   UNL     1       4.014   6.139  19.456  0.00  0.00    +0.000 N 
ATOM     23  H   UNL     1       4.279   5.851  20.398  0.00  0.00    +0.000 HD
BRANCH  22  24
ATOM     24  C   UNL     1       4.940   5.723  18.497  0.00  0.00    +0.000 A 
ATOM     25  C   UNL     1       6.288   5.547  18.850  0.00  0.00    +0.000 A 
ATOM     26  C   UNL     1       7.247   5.164  17.900  0.00  0.00    +0.000 A 
ATOM     27  C   UNL     1       6.867   4.972  16.577  0.00  0.00    +0.000 A 
ATOM     28  C   UNL     1       5.535   5.161  16.210  0.00  0.00    +0.000 A 
ATOM     29  C   UNL     1       4.598   5.580  17.150  0.00  0.00    +0.000 A 
ATOM     30  O   UNL     1       5.060   4.956  14.939  0.00  0.00    +0.000 OA
ATOM     31  C   UNL     1       5.982   4.168  14.182  0.00  0.00    +0.000 C 
ATOM     32  C   UNL     1       7.385   4.733  14.329  0.00  0.00    +0.000 C 
ATOM     33  O   UNL     1       7.841   4.604  15.684  0.00  0.00    +0.000 OA
ENDBRANCH  22  24
ENDBRANCH   1  22
TORSDOF 6
ENDMDL
MODEL 2
REMARK VINA RESULT:      -8.6      0.204      1.038
REMARK  Name = 
REMARK  6 active torsions:
REMARK  status: ('A' for Active; 'I' for Inactive)
REMARK    1  A    between atoms: C_2  and  C_14
REMARK    2  A    between atoms: N_3  and  C_4
REMARK    3  A    between atoms: C_7  and  N_8
REMARK    4  A    between atoms: C_14  and  N_15
REMARK    5  A    between atoms: C_14  and  C_26
REMARK    6  A    between atoms: N_15  and  C_16
REMARK                            x       y       z     vdW  Elec       q    Type
REMARK                         _______ _______ _______ _____ _____    ______ ____
ROOT
ATOM      1  C   UNL     1       2.665   5.881  19.105  0.00  0.00    +0.000 C 
ENDROOT
BRANCH   1   2
ATOM      2  C   UNL     1       2.330   4.387  19.149  0.00  0.00    +0.000 A 
ATOM      3  C   UNL     1       3.106   3.518  19.932  0.00  0.00    +0.000 A 
ATOM      4  C   UNL     1       2.796   2.157  20.008  0.00  0.00    +0.000 A 
ATOM      5  C   UNL     1       1.708   1.644  19.304  0.00  0.00    +0.000 A 
ATOM      6  C   UNL     1       0.924   2.491  18.529  0.00  0.00    +0.000 A 
ATOM      7  C   UNL     1       1.222   3.851  18.465  0.00  0.00    +0.000 A 
ENDBRANCH   1   2
BRANCH   1   9
ATOM      8  O   UNL     1       1.410   6.202  21.176  0.00  0.00    +0.000 OA
ATOM      9  C   UNL     1       1.858   6.719  20.148  0.00  0.00    +0.000 C 
ATOM     10  N   UNL     1       1.687   8.070  19.832  0.00  0.00    +0.000 N 
ATOM     11  H   UNL     1       1.998   8.396  18.923  0.00  0.00    +0.000 HD
BRANCH  10  12
ATOM     12  C   UNL     1       0.998   9.025  20.634  0.00  0.00    +0.000 A 
ATOM     13  C   UNL     1       1.077   9.006  22.033  0.00  0.00    +0.000 A 
ATOM     14  C   UNL     1       0.366   9.911  22.825  0.00  0.00    +0.000 A 
ATOM     15  C   UNL     1      -0.424  10.884  22.217  0.00  0.00    +0.000 A 
ATOM     16  C   UNL     1      -0.504  10.954  20.819  0.00  0.00    +0.000 A 
ATOM     17  C   UNL     1       0.207  10.029  20.038  0.00  0.00    +0.000 A 
ATOM     18 BR   UNL     1       0.019  10.146  18.150  0.00  0.00    +0.000 Br
BRANCH  15  19
ATOM     19  N   UNL     1      -1.173  11.830  23.059  0.00  0.00    +0.000 N 
ATOM     20  O   UNL     1      -0.630  12.910  23.332  0.00  0.00    +0.000 OA
ATOM     21  O   UNL     1      -2.297  11.486  23.443  0.00  0.00    +0.000 OA
ENDBRANCH  15  19
ENDBRANCH  10  12
ENDBRANCH   1   9
BRANCH   1  22
ATOM     22  N   UNL     1       4.117   6.048  19.352  0.00  0.00    +0.000 N 
ATOM     23  H   UNL     1       4.373   5.681  20.269  0.00  0.00    +0.000 HD
BRANCH  22  24
ATOM     24  C   UNL     1       5.027   5.672  18.362  0.00  0.00    +0.000 A 
ATOM     25  C   UNL     1       6.395   5.566  18.666  0.00  0.00    +0.000 A 
ATOM     26  C   UNL     1       7.337   5.226  17.683  0.00  0.00    +0.000 A 
ATOM     27  C   UNL     1       6.918   5.008  16.375  0.00  0.00    +0.000 A 
ATOM     28  C   UNL     1       5.566   5.127  16.057  0.00  0.00    +0.000 A 
ATOM     29  C   UNL     1       4.645   5.504  17.029  0.00  0.00    +0.000 A 
ATOM     30  O   UNL     1       5.056   4.890  14.805  0.00  0.00    +0.000 OA
ATOM     31  C   UNL     1       5.988   4.145  14.018  0.00  0.00    +0.000 C 
ATOM     32  C   UNL     1       7.365   4.781  14.111  0.00  0.00    +0.000 C 
ATOM     33  O   UNL     1       7.876   4.683  15.448  0.00  0.00    +0.000 OA
ENDBRANCH  22  24
ENDBRANCH   1  22
TORSDOF 6
ENDMDL
MODEL 3
REMARK VINA RESULT:      -8.3      2.325      2.804
REMARK  Name = 
REMARK  6 active torsions:
REMARK  status: ('A' for Active; 'I' for Inactive)
REMARK    1  A    between atoms: C_2  and  C_14
REMARK    2  A    between atoms: N_3  and  C_4
REMARK    3  A    between atoms: C_7  and  N_8
REMARK    4  A    between atoms: C_14  and  N_15
REMARK    5  A    between atoms: C_14  and  C_26
REMARK    6  A    between atoms: N_15  and  C_16
REMARK                            x       y       z     vdW  Elec       q    Type
REMARK                         _______ _______ _______ _____ _____    ______ ____
ROOT
ATOM      1  C   UNL     1       3.311   5.201  17.901  0.00  0.00    +0.000 C 
ENDROOT
BRANCH   1   2
ATOM      2  C   UNL     1       2.515   4.458  18.979  0.00  0.00    +0.000 A 
ATOM      3  C   UNL     1       1.443   3.630  18.611  0.00  0.00    +0.000 A 
ATOM      4  C   UNL     1       0.725   2.920  19.578  0.00  0.00    +0.000 A 
ATOM      5  C   UNL     1       1.067   3.027  20.925  0.00  0.00    +0.000 A 
ATOM      6  C   UNL     1       2.130   3.836  21.307  0.00  0.00    +0.000 A 
ATOM      7  C   UNL     1       2.858   4.532  20.342  0.00  0.00    +0.000 A 
ENDBRANCH   1   2
BRANCH   1   9
ATOM      8  O   UNL     1       4.206   7.468  17.749  0.00  0.00    +0.000 OA
ATOM      9  C   UNL     1       3.246   6.754  18.055  0.00  0.00    +0.000 C 
ATOM     10  N   UNL     1       2.044   7.260  18.557  0.00  0.00    +0.000 N 
ATOM     11  H   UNL     1       1.341   6.603  18.879  0.00  0.00    +0.000 HD
BRANCH  10  12
ATOM     12  C   UNL     1       1.753   8.639  18.771  0.00  0.00    +0.000 A 
ATOM     13  C   UNL     1       1.997   9.605  17.787  0.00  0.00    +0.000 A 
ATOM     14  C   UNL     1       1.757  10.963  18.009  0.00  0.00    +0.000 A 
ATOM     15  C   UNL     1       1.234  11.377  19.232  0.00  0.00    +0.000 A 
ATOM     16  C   UNL     1       0.949  10.437  20.231  0.00  0.00    +0.000 A 
ATOM     17  C   UNL     1       1.206   9.076  19.995  0.00  0.00    +0.000 A 
ATOM     18 BR   UNL     1       0.843   7.856  21.407  0.00  0.00    +0.000 Br
BRANCH  15  19
ATOM     19  N   UNL     1       0.989  12.810  19.459  0.00  0.00    +0.000 N 
ATOM     20  O   UNL     1       0.189  13.383  18.707  0.00  0.00    +0.000 OA
ATOM     21  O   UNL     1       1.600  13.354  20.387  0.00  0.00    +0.000 OA
ENDBRANCH  15  19
ENDBRANCH  10  12
ENDBRANCH   1   9
BRANCH   1  22
ATOM     22  N   UNL     1       4.724   4.756  17.964  0.00  0.00    +0.000 N 
ATOM     23  H   UNL     1       4.800   3.860  18.447  0.00  0.00    +0.000 HD
BRANCH  22  24
ATOM     24  C   UNL     1       5.507   4.799  16.809  0.00  0.00    +0.000 A 
ATOM     25  C   UNL     1       6.746   5.463  16.822  0.00  0.00    +0.000 A 
ATOM     26  C   UNL     1       7.537   5.554  15.667  0.00  0.00    +0.000 A 
ATOM     27  C   UNL     1       7.084   4.996  14.477  0.00  0.00    +0.000 A 
ATOM     28  C   UNL     1       5.848   4.351  14.446  0.00  0.00    +0.000 A 
ATOM     29  C   UNL     1       5.052   4.301  15.585  0.00  0.00    +0.000 A 
ATOM     30  O   UNL     1       5.339   3.737  13.329  0.00  0.00    +0.000 OA
ATOM     31  C   UNL     1       6.374   3.504  12.371  0.00  0.00    +0.000 C 
ATOM     32  C   UNL     1       7.186   4.773  12.170  0.00  0.00    +0.000 C 
ATOM     33  O   UNL     1       7.891   5.116  13.373  0.00  0.00    +0.000 OA
ENDBRANCH  22  24
ENDBRANCH   1  22
TORSDOF 6
ENDMDL
MODEL 4
REMARK VINA RESULT:      -8.2      0.916      1.283
REMARK  Name = 
REMARK  6 active torsions:
REMARK  status: ('A' for Active; 'I' for Inactive)
REMARK    1  A    between atoms: C_2  and  C_14
REMARK    2  A    between atoms: N_3  and  C_4
REMARK    3  A    between atoms: C_7  and  N_8
REMARK    4  A    between atoms: C_14  and  N_15
REMARK    5  A    between atoms: C_14  and  C_26
REMARK    6  A    between atoms: N_15  and  C_16
REMARK                            x       y       z     vdW  Elec       q    Type
REMARK                         _______ _______ _______ _____ _____    ______ ____
ROOT
ATOM      1  C   UNL     1       2.427   6.321  19.262  0.00  0.00    +0.000 C 
ENDROOT
BRANCH   1   2
ATOM      2  C   UNL     1       1.928   4.883  19.441  0.00  0.00    +0.000 A 
ATOM      3  C   UNL     1       1.841   4.328  20.728  0.00  0.00    +0.000 A 
ATOM      4  C   UNL     1       1.359   3.030  20.913  0.00  0.00    +0.000 A 
ATOM      5  C   UNL     1       0.957   2.267  19.818  0.00  0.00    +0.000 A 
ATOM      6  C   UNL     1       1.029   2.802  18.537  0.00  0.00    +0.000 A 
ATOM      7  C   UNL     1       1.494   4.104  18.352  0.00  0.00    +0.000 A 
ENDBRANCH   1   2
BRANCH   1   9
ATOM      8  O   UNL     1       1.361   7.098  21.317  0.00  0.00    +0.000 OA
ATOM      9  C   UNL     1       1.653   7.352  20.144  0.00  0.00    +0.000 C 
ATOM     10  N   UNL     1       1.323   8.556  19.515  0.00  0.00    +0.000 N 
ATOM     11  H   UNL     1       1.509   8.647  18.522  0.00  0.00    +0.000 HD
BRANCH  10  12
ATOM     12  C   UNL     1       0.631   9.642  20.124  0.00  0.00    +0.000 A 
ATOM     13  C   UNL     1       0.932  10.074  21.422  0.00  0.00    +0.000 A 
ATOM     14  C   UNL     1       0.224  11.109  22.039  0.00  0.00    +0.000 A 
ATOM     15  C   UNL     1      -0.794  11.756  21.342  0.00  0.00    +0.000 A 
ATOM     16  C   UNL     1      -1.105  11.372  20.031  0.00  0.00    +0.000 A 
ATOM     17  C   UNL     1      -0.391  10.323  19.429  0.00  0.00    +0.000 A 
ATOM     18 BR   UNL     1      -0.892   9.817  17.666  0.00  0.00    +0.000 Br
BRANCH  15  19
ATOM     19  N   UNL     1      -1.537  12.841  22.002  0.00  0.00    +0.000 N 
ATOM     20  O   UNL     1      -1.804  13.846  21.329  0.00  0.00    +0.000 OA
ATOM     21  O   UNL     1      -1.847  12.681  23.189  0.00  0.00    +0.000 OA
ENDBRANCH  15  19
ENDBRANCH  10  12
ENDBRANCH   1   9
BRANCH   1  22
ATOM     22  N   UNL     1       3.870   6.366  19.597  0.00  0.00    +0.000 N 
ATOM     23  H   UNL     1       4.034   6.016  20.541  0.00  0.00    +0.000 HD
BRANCH  22  24
ATOM     24  C   UNL     1       4.801   5.870  18.683  0.00  0.00    +0.000 A 
ATOM     25  C   UNL     1       6.049   5.402  19.131  0.00  0.00    +0.000 A 
ATOM     26  C   UNL     1       7.017   4.932  18.232  0.00  0.00    +0.000 A 
ATOM     27  C   UNL     1       6.753   4.943  16.867  0.00  0.00    +0.000 A 
ATOM     28  C   UNL     1       5.526   5.422  16.408  0.00  0.00    +0.000 A 
ATOM     29  C   UNL     1       4.587   5.924  17.303  0.00  0.00    +0.000 A 
ATOM     30  O   UNL     1       5.162   5.433  15.085  0.00  0.00    +0.000 OA
ATOM     31  C   UNL     1       5.998   4.556  14.328  0.00  0.00    +0.000 C 
ATOM     32  C   UNL     1       7.458   4.820  14.661  0.00  0.00    +0.000 C 
ATOM     33  O   UNL     1       7.733   4.478  16.027  0.00  0.00    +0.000 OA
ENDBRANCH  22  24
ENDBRANCH   1  22
TORSDOF 6
ENDMDL
MODEL 5
REMARK VINA RESULT:      -8.2      0.912      1.223
REMARK  Name = 
REMARK  6 active torsions:
REMARK  status: ('A' for Active; 'I' for Inactive)
REMARK    1  A    between atoms: C_2  and  C_14
REMARK    2  A    between atoms: N_3  and  C_4
REMARK    3  A    between atoms: C_7  and  N_8
REMARK    4  A    between atoms: C_14  and  N_15
REMARK    5  A    between atoms: C_14  and  C_26
REMARK    6  A    between atoms: N_15  and  C_16
REMARK                            x       y       z     vdW  Elec       q    Type
REMARK                         _______ _______ _______ _____ _____    ______ ____
ROOT
ATOM      1  C   UNL     1       2.347   6.559  19.395  0.00  0.00    +0.000 C 
ENDROOT
BRANCH   1   2
ATOM      2  C   UNL     1       1.959   5.078  19.456  0.00  0.00    +0.000 A 
ATOM      3  C   UNL     1       1.953   4.407  20.689  0.00  0.00    +0.000 A 
ATOM      4  C   UNL     1       1.571   3.065  20.768  0.00  0.00    +0.000 A 
ATOM      5  C   UNL     1       1.192   2.374  19.619  0.00  0.00    +0.000 A 
ATOM      6  C   UNL     1       1.185   3.024  18.390  0.00  0.00    +0.000 A 
ATOM      7  C   UNL     1       1.550   4.368  18.312  0.00  0.00    +0.000 A 
ENDBRANCH   1   2
BRANCH   1   9
ATOM      8  O   UNL     1       1.265   6.972  21.545  0.00  0.00    +0.000 OA
ATOM      9  C   UNL     1       1.594   7.433  20.448  0.00  0.00    +0.000 C 
ATOM     10  N   UNL     1       1.326   8.748  20.058  0.00  0.00    +0.000 N 
ATOM     11  H   UNL     1       1.538   9.021  19.104  0.00  0.00    +0.000 HD
BRANCH  10  12
ATOM     12  C   UNL     1       0.662   9.726  20.854  0.00  0.00    +0.000 A 
ATOM     13  C   UNL     1       0.014   9.389  22.049  0.00  0.00    +0.000 A 
ATOM     14  C   UNL     1      -0.677  10.336  22.808  0.00  0.00    +0.000 A 
ATOM     15  C   UNL     1      -0.706  11.664  22.390  0.00  0.00    +0.000 A 
ATOM     16  C   UNL     1      -0.045  12.047  21.215  0.00  0.00    +0.000 A 
ATOM     17  C   UNL     1       0.636  11.080  20.457  0.00  0.00    +0.000 A 
ATOM     18 BR   UNL     1       1.472  11.653  18.849  0.00  0.00    +0.000 Br
BRANCH  15  19
ATOM     19  N   UNL     1      -1.441  12.654  23.193  0.00  0.00    +0.000 N 
ATOM     20  O   UNL     1      -2.632  12.422  23.440  0.00  0.00    +0.000 OA
ATOM     21  O   UNL     1      -0.822  13.656  23.570  0.00  0.00    +0.000 OA
ENDBRANCH  15  19
ENDBRANCH  10  12
ENDBRANCH   1   9
BRANCH   1  22
ATOM     22  N   UNL     1       3.810   6.675  19.611  0.00  0.00    +0.000 N 
ATOM     23  H   UNL     1       4.052   6.455  20.577  0.00  0.00    +0.000 HD
BRANCH  22  24
ATOM     24  C   UNL     1       4.685   6.078  18.700  0.00  0.00    +0.000 A 
ATOM     25  C   UNL     1       5.735   5.266  19.161  0.00  0.00    +0.000 A 
ATOM     26  C   UNL     1       6.651   4.684  18.272  0.00  0.00    +0.000 A 
ATOM     27  C   UNL     1       6.536   4.927  16.908  0.00  0.00    +0.000 A 
ATOM     28  C   UNL     1       5.509   5.746  16.440  0.00  0.00    +0.000 A 
ATOM     29  C   UNL     1       4.629   6.352  17.331  0.00  0.00    +0.000 A 
ATOM     30  O   UNL     1       5.293   6.009  15.110  0.00  0.00    +0.000 OA
ATOM     31  C   UNL     1       5.971   5.051  14.294  0.00  0.00    +0.000 C 
ATOM     32  C   UNL     1       7.410   4.904  14.760  0.00  0.00    +0.000 C 
ATOM     33  O   UNL     1       7.458   4.340  16.079  0.00  0.00    +0.000 OA
ENDBRANCH  22  24
ENDBRANCH   1  22
TORSDOF 6
ENDMDL
MODEL 6
REMARK VINA RESULT:      -8.1      1.049      1.136
REMARK  Name = 
REMARK  6 active torsions:
REMARK  status: ('A' for Active; 'I' for Inactive)
REMARK    1  A    between atoms: C_2  and  C_14
REMARK    2  A    between atoms: N_3  and  C_4
REMARK    3  A    between atoms: C_7  and  N_8
REMARK    4  A    between atoms: C_14  and  N_15
REMARK    5  A    between atoms: C_14  and  C_26
REMARK    6  A    between atoms: N_15  and  C_16
REMARK                            x       y       z     vdW  Elec       q    Type
REMARK                         _______ _______ _______ _____ _____    ______ ____
ROOT
ATOM      1  C   UNL     1       2.437   6.491  19.187  0.00  0.00    +0.000 C 
ENDROOT
BRANCH   1   2
ATOM      2  C   UNL     1       1.891   5.075  19.394  0.00  0.00    +0.000 A 
ATOM      3  C   UNL     1       1.580   4.276  18.282  0.00  0.00    +0.000 A 
ATOM      4  C   UNL     1       1.110   2.970  18.452  0.00  0.00    +0.000 A 
ATOM      5  C   UNL     1       0.944   2.444  19.732  0.00  0.00    +0.000 A 
ATOM      6  C   UNL     1       1.253   3.218  20.844  0.00  0.00    +0.000 A 
ATOM      7  C   UNL     1       1.737   4.515  20.676  0.00  0.00    +0.000 A 
ENDBRANCH   1   2
BRANCH   1   9
ATOM      8  O   UNL     1       1.472   7.400  21.238  0.00  0.00    +0.000 OA
ATOM      9  C   UNL     1       1.683   7.567  20.033  0.00  0.00    +0.000 C 
ATOM     10  N   UNL     1       1.276   8.707  19.334  0.00  0.00    +0.000 N 
ATOM     11  H   UNL     1       1.398   8.724  18.327  0.00  0.00    +0.000 HD
BRANCH  10  12
ATOM     12  C   UNL     1       0.585   9.818  19.898  0.00  0.00    +0.000 A 
ATOM     13  C   UNL     1       0.942  10.355  21.141  0.00  0.00    +0.000 A 
ATOM     14  C   UNL     1       0.239  11.414  21.719  0.00  0.00    +0.000 A 
ATOM     15  C   UNL     1      -0.833  11.982  21.034  0.00  0.00    +0.000 A 
ATOM     16  C   UNL     1      -1.202  11.492  19.773  0.00  0.00    +0.000 A 
ATOM     17  C   UNL     1      -0.491  10.419  19.212  0.00  0.00    +0.000 A 
ATOM     18 BR   UNL     1      -1.071   9.769  17.522  0.00  0.00    +0.000 Br
BRANCH  15  19
ATOM     19  N   UNL     1      -1.572  13.094  21.652  0.00  0.00    +0.000 N 
ATOM     20  O   UNL     1      -2.435  12.812  22.495  0.00  0.00    +0.000 OA
ATOM     21  O   UNL     1      -1.285  14.241  21.289  0.00  0.00    +0.000 OA
ENDBRANCH  15  19
ENDBRANCH  10  12
ENDBRANCH   1   9
BRANCH   1  22
ATOM     22  N   UNL     1       3.876   6.501  19.542  0.00  0.00    +0.000 N 
ATOM     23  H   UNL     1       4.017   6.155  20.491  0.00  0.00    +0.000 HD
BRANCH  22  24
ATOM     24  C   UNL     1       4.806   5.970  18.645  0.00  0.00    +0.000 A 
ATOM     25  C   UNL     1       6.037   5.481  19.113  0.00  0.00    +0.000 A 
ATOM     26  C   UNL     1       7.004   4.977  18.232  0.00  0.00    +0.000 A 
ATOM     27  C   UNL     1       6.755   4.975  16.864  0.00  0.00    +0.000 A 
ATOM     28  C   UNL     1       5.544   5.473  16.385  0.00  0.00    +0.000 A 
ATOM     29  C   UNL     1       4.607   6.009  17.263  0.00  0.00    +0.000 A 
ATOM     30  O   UNL     1       5.194   5.474  15.058  0.00  0.00    +0.000 OA
ATOM     31  C   UNL     1       6.019   4.568  14.322  0.00  0.00    +0.000 C 
ATOM     32  C   UNL     1       7.480   4.804  14.667  0.00  0.00    +0.000 C 
ATOM     33  O   UNL     1       7.733   4.475  16.041  0.00  0.00    +0.000 OA
ENDBRANCH  22  24
ENDBRANCH   1  22
TORSDOF 6
ENDMDL
MODEL 7
REMARK VINA RESULT:      -8.0      2.307      2.907
REMARK  Name = 
REMARK  6 active torsions:
REMARK  status: ('A' for Active; 'I' for Inactive)
REMARK    1  A    between atoms: C_2  and  C_14
REMARK    2  A    between atoms: N_3  and  C_4
REMARK    3  A    between atoms: C_7  and  N_8
REMARK    4  A    between atoms: C_14  and  N_15
REMARK    5  A    between atoms: C_14  and  C_26
REMARK    6  A    between atoms: N_15  and  C_16
REMARK                            x       y       z     vdW  Elec       q    Type
REMARK                         _______ _______ _______ _____ _____    ______ ____
ROOT
ATOM      1  C   UNL     1       3.293   5.173  17.907  0.00  0.00    +0.000 C 
ENDROOT
BRANCH   1   2
ATOM      2  C   UNL     1       2.394   4.328  18.814  0.00  0.00    +0.000 A 
ATOM      3  C   UNL     1       2.487   4.457  20.209  0.00  0.00    +0.000 A 
ATOM      4  C   UNL     1       1.653   3.717  21.051  0.00  0.00    +0.000 A 
ATOM      5  C   UNL     1       0.714   2.838  20.514  0.00  0.00    +0.000 A 
ATOM      6  C   UNL     1       0.603   2.702  19.135  0.00  0.00    +0.000 A 
ATOM      7  C   UNL     1       1.423   3.452  18.293  0.00  0.00    +0.000 A 
ENDBRANCH   1   2
BRANCH   1   9
ATOM      8  O   UNL     1       4.338   7.294  18.521  0.00  0.00    +0.000 OA
ATOM      9  C   UNL     1       3.288   6.690  18.282  0.00  0.00    +0.000 C 
ATOM     10  N   UNL     1       2.029   7.295  18.326  0.00  0.00    +0.000 N 
ATOM     11  H   UNL     1       1.208   6.709  18.215  0.00  0.00    +0.000 HD
BRANCH  10  12
ATOM     12  C   UNL     1       1.781   8.664  18.633  0.00  0.00    +0.000 A 
ATOM     13  C   UNL     1       2.012   9.683  17.700  0.00  0.00    +0.000 A 
ATOM     14  C   UNL     1       1.815  11.030  18.013  0.00  0.00    +0.000 A 
ATOM     15  C   UNL     1       1.347  11.381  19.277  0.00  0.00    +0.000 A 
ATOM     16  C   UNL     1       1.076  10.388  20.228  0.00  0.00    +0.000 A 
ATOM     17  C   UNL     1       1.290   9.039  19.901  0.00  0.00    +0.000 A 
ATOM     18 BR   UNL     1       0.949   7.743  21.250  0.00  0.00    +0.000 Br
BRANCH  15  19
ATOM     19  N   UNL     1       1.147  12.802  19.599  0.00  0.00    +0.000 N 
ATOM     20  O   UNL     1       2.019  13.366  20.275  0.00  0.00    +0.000 OA
ATOM     21  O   UNL     1       0.119  13.344  19.176  0.00  0.00    +0.000 OA
ENDBRANCH  15  19
ENDBRANCH  10  12
ENDBRANCH   1   9
BRANCH   1  22
ATOM     22  N   UNL     1       4.677   4.648  17.989  0.00  0.00    +0.000 N 
ATOM     23  H   UNL     1       4.688   3.724  18.421  0.00  0.00    +0.000 HD
BRANCH  22  24
ATOM     24  C   UNL     1       5.503   4.713  16.865  0.00  0.00    +0.000 A 
ATOM     25  C   UNL     1       6.763   5.329  16.950  0.00  0.00    +0.000 A 
ATOM     26  C   UNL     1       7.598   5.442  15.829  0.00  0.00    +0.000 A 
ATOM     27  C   UNL     1       7.168   4.955  14.599  0.00  0.00    +0.000 A 
ATOM     28  C   UNL     1       5.912   4.358  14.497  0.00  0.00    +0.000 A 
ATOM     29  C   UNL     1       5.074   4.287  15.605  0.00  0.00    +0.000 A 
ATOM     30  O   UNL     1       5.422   3.813  13.336  0.00  0.00    +0.000 OA
ATOM     31  C   UNL     1       6.481   3.585  12.404  0.00  0.00    +0.000 C 
ATOM     32  C   UNL     1       7.345   4.830  12.290  0.00  0.00    +0.000 C 
ATOM     33  O   UNL     1       8.018   5.093  13.531  0.00  0.00    +0.000 OA
ENDBRANCH  22  24
ENDBRANCH   1  22
TORSDOF 6
ENDMDL
MODEL 8
REMARK VINA RESULT:      -7.9      2.545      8.755
REMARK  Name = 
REMARK  6 active torsions:
REMARK  status: ('A' for Active; 'I' for Inactive)
REMARK    1  A    between atoms: C_2  and  C_14
REMARK    2  A    between atoms: N_3  and  C_4
REMARK    3  A    between atoms: C_7  and  N_8
REMARK    4  A    between atoms: C_14  and  N_15
REMARK    5  A    between atoms: C_14  and  C_26
REMARK    6  A    between atoms: N_15  and  C_16
REMARK                            x       y       z     vdW  Elec       q    Type
REMARK                         _______ _______ _______ _____ _____    ______ ____
ROOT
ATOM      1  C   UNL     1       2.200   6.663  20.030  0.00  0.00    +0.000 C 
ENDROOT
BRANCH   1   2
ATOM      2  C   UNL     1       1.879   5.232  20.473  0.00  0.00    +0.000 A 
ATOM      3  C   UNL     1       0.962   4.462  19.740  0.00  0.00    +0.000 A 
ATOM      4  C   UNL     1       0.681   3.144  20.111  0.00  0.00    +0.000 A 
ATOM      5  C   UNL     1       1.309   2.577  21.219  0.00  0.00    +0.000 A 
ATOM      6  C   UNL     1       2.225   3.322  21.952  0.00  0.00    +0.000 A 
ATOM      7  C   UNL     1       2.519   4.631  21.573  0.00  0.00    +0.000 A 
ENDBRANCH   1   2
BRANCH   1   9
ATOM      8  O   UNL     1       3.110   7.746  18.040  0.00  0.00    +0.000 OA
ATOM      9  C   UNL     1       3.059   6.722  18.727  0.00  0.00    +0.000 C 
ATOM     10  N   UNL     1       3.749   5.549  18.407  0.00  0.00    +0.000 N 
ATOM     11  H   UNL     1       3.576   4.720  18.966  0.00  0.00    +0.000 HD
BRANCH  10  12
ATOM     12  C   UNL     1       4.599   5.373  17.277  0.00  0.00    +0.000 A 
ATOM     13  C   UNL     1       5.273   6.449  16.686  0.00  0.00    +0.000 A 
ATOM     14  C   UNL     1       6.070   6.289  15.551  0.00  0.00    +0.000 A 
ATOM     15  C   UNL     1       6.230   5.021  14.997  0.00  0.00    +0.000 A 
ATOM     16  C   UNL     1       5.596   3.914  15.577  0.00  0.00    +0.000 A 
ATOM     17  C   UNL     1       4.789   4.094  16.712  0.00  0.00    +0.000 A 
ATOM     18 BR   UNL     1       3.917   2.561  17.423  0.00  0.00    +0.000 Br
BRANCH  15  19
ATOM     19  N   UNL     1       7.067   4.862  13.798  0.00  0.00    +0.000 N 
ATOM     20  O   UNL     1       6.705   4.034  12.950  0.00  0.00    +0.000 OA
ATOM     21  O   UNL     1       8.081   5.565  13.712  0.00  0.00    +0.000 OA
ENDBRANCH  15  19
ENDBRANCH  10  12
ENDBRANCH   1   9
BRANCH   1  22
ATOM     22  N   UNL     1       0.925   7.389  19.816  0.00  0.00    +0.000 N 
ATOM     23  H   UNL     1       0.141   6.739  19.769  0.00  0.00    +0.000 HD
BRANCH  22  24
ATOM     24  C   UNL     1       0.635   8.508  20.600  0.00  0.00    +0.000 A 
ATOM     25  C   UNL     1       0.247   8.347  21.941  0.00  0.00    +0.000 A 
ATOM     26  C   UNL     1      -0.086   9.449  22.742  0.00  0.00    +0.000 A 
ATOM     27  C   UNL     1      -0.053  10.729  22.199  0.00  0.00    +0.000 A 
ATOM     28  C   UNL     1       0.313  10.901  20.865  0.00  0.00    +0.000 A 
ATOM     29  C   UNL     1       0.602   9.799  20.067  0.00  0.00    +0.000 A 
ATOM     30  O   UNL     1       0.413  12.127  20.256  0.00  0.00    +0.000 OA
ATOM     31  C   UNL     1       0.490  13.166  21.234  0.00  0.00    +0.000 C 
ATOM     32  C   UNL     1      -0.606  12.980  22.271  0.00  0.00    +0.000 C 
ATOM     33  O   UNL     1      -0.391  11.775  23.020  0.00  0.00    +0.000 OA
ENDBRANCH  22  24
ENDBRANCH   1  22
TORSDOF 6
ENDMDL
MODEL 9
REMARK VINA RESULT:      -7.9      1.141      1.158
REMARK  Name = 
REMARK  6 active torsions:
REMARK  status: ('A' for Active; 'I' for Inactive)
REMARK    1  A    between atoms: C_2  and  C_14
REMARK    2  A    between atoms: N_3  and  C_4
REMARK    3  A    between atoms: C_7  and  N_8
REMARK    4  A    between atoms: C_14  and  N_15
REMARK    5  A    between atoms: C_14  and  C_26
REMARK    6  A    between atoms: N_15  and  C_16
REMARK                            x       y       z     vdW  Elec       q    Type
REMARK                         _______ _______ _______ _____ _____    ______ ____
ROOT
ATOM      1  C   UNL     1       2.945   6.028  18.689  0.00  0.00    +0.000 C 
ENDROOT
BRANCH   1   2
ATOM      2  C   UNL     1       2.229   4.874  19.399  0.00  0.00    +0.000 A 
ATOM      3  C   UNL     1       1.383   4.023  18.671  0.00  0.00    +0.000 A 
ATOM      4  C   UNL     1       0.746   2.947  19.295  0.00  0.00    +0.000 A 
ATOM      5  C   UNL     1       0.944   2.706  20.654  0.00  0.00    +0.000 A 
ATOM      6  C   UNL     1       1.784   3.534  21.389  0.00  0.00    +0.000 A 
ATOM      7  C   UNL     1       2.433   4.598  20.764  0.00  0.00    +0.000 A 
ENDBRANCH   1   2
BRANCH   1   9
ATOM      8  O   UNL     1       2.930   8.470  18.686  0.00  0.00    +0.000 OA
ATOM      9  C   UNL     1       2.474   7.435  19.179  0.00  0.00    +0.000 C 
ATOM     10  N   UNL     1       1.517   7.428  20.198  0.00  0.00    +0.000 N 
ATOM     11  H   UNL     1       1.266   6.539  20.618  0.00  0.00    +0.000 HD
BRANCH  10  12
ATOM     12  C   UNL     1       0.935   8.585  20.792  0.00  0.00    +0.000 A 
ATOM     13  C   UNL     1       0.999   8.816  22.172  0.00  0.00    +0.000 A 
ATOM     14  C   UNL     1       0.390   9.926  22.764  0.00  0.00    +0.000 A 
ATOM     15  C   UNL     1      -0.278  10.851  21.965  0.00  0.00    +0.000 A 
ATOM     16  C   UNL     1      -0.338  10.669  20.577  0.00  0.00    +0.000 A 
ATOM     17  C   UNL     1       0.269   9.543  19.999  0.00  0.00    +0.000 A 
ATOM     18 BR   UNL     1       0.111   9.329  18.116  0.00  0.00    +0.000 Br
BRANCH  15  19
ATOM     19  N   UNL     1      -0.921  12.013  22.598  0.00  0.00    +0.000 N 
ATOM     20  O   UNL     1      -2.006  11.830  23.168  0.00  0.00    +0.000 OA
ATOM     21  O   UNL     1      -0.337  13.101  22.521  0.00  0.00    +0.000 OA
ENDBRANCH  15  19
ENDBRANCH  10  12
ENDBRANCH   1   9
BRANCH   1  22
ATOM     22  N   UNL     1       4.404   5.889  18.913  0.00  0.00    +0.000 N 
ATOM     23  H   UNL     1       4.594   5.223  19.661  0.00  0.00    +0.000 HD
BRANCH  22  24
ATOM     24  C   UNL     1       5.250   5.705  17.816  0.00  0.00    +0.000 A 
ATOM     25  C   UNL     1       6.557   6.220  17.840  0.00  0.00    +0.000 A 
ATOM     26  C   UNL     1       7.416   6.082  16.740  0.00  0.00    +0.000 A 
ATOM     27  C   UNL     1       6.966   5.440  15.592  0.00  0.00    +0.000 A 
ATOM     28  C   UNL     1       5.665   4.940  15.549  0.00  0.00    +0.000 A 
ATOM     29  C   UNL     1       4.807   5.117  16.629  0.00  0.00    +0.000 A 
ATOM     30  O   UNL     1       5.149   4.257  14.476  0.00  0.00    +0.000 OA
ATOM     31  C   UNL     1       6.199   3.795  13.624  0.00  0.00    +0.000 C 
ATOM     32  C   UNL     1       7.168   4.930  13.338  0.00  0.00    +0.000 C 
ATOM     33  O   UNL     1       7.841   5.333  14.540  0.00  0.00    +0.000 OA
ENDBRANCH  22  24
ENDBRANCH   1  22
TORSDOF 6
ENDMDL
