MODEL 1
REMARK VINA RESULT:      -6.8      0.000      0.000
REMARK  Name = 
REMARK  8 active torsions:
REMARK  status: ('A' for Active; 'I' for Inactive)
REMARK    1  A    between atoms: C_1  and  N_2
REMARK    2  A    between atoms: N_2  and  C_3
REMARK    3  A    between atoms: C_3  and  C_4
REMARK    4  A    between atoms: C_10  and  C_12
REMARK    5  A    between atoms: C_12  and  S_13
REMARK    6  A    between atoms: S_13  and  C_14
REMARK    7  A    between atoms: C_17  and  C_18
REMARK    8  A    between atoms: N_21  and  C_22
REMARK                            x       y       z     vdW  Elec       q    Type
REMARK                         _______ _______ _______ _____ _____    ______ ____
ROOT
ATOM      1  C   UNL     1       3.015   4.256  17.322  0.00  0.00    +0.000 C 
ENDROOT
BRANCH   1   4
ATOM      2  C   UNL     1       0.731   4.156  20.406  0.00  0.00    +0.000 C 
ATOM      3  N   UNL     1       1.819   4.528  19.512  0.00  0.00    +0.000 N 
ATOM      4  C   UNL     1       1.894   3.861  18.289  0.00  0.00    +0.000 C 
ATOM      5  O   UNL     1       1.090   2.961  18.028  0.00  0.00    +0.000 OA
BRANCH   3   6
ATOM      6  C   UNL     1       2.757   5.548  19.974  0.00  0.00    +0.000 C 
BRANCH   6   7
ATOM      7  C   UNL     1       2.156   6.926  19.956  0.00  0.00    +0.000 A 
ATOM      8  C   UNL     1       1.554   7.675  20.954  0.00  0.00    +0.000 A 
ATOM      9  C   UNL     1       1.124   8.958  20.493  0.00  0.00    +0.000 A 
ATOM     10  C   UNL     1       1.412   9.130  19.165  0.00  0.00    +0.000 A 
ATOM     11 CL   UNL     1       1.072  10.516  18.210  0.00  0.00    +0.000 Cl
ATOM     12  S   UNL     1       2.182   7.798  18.467  0.00  0.00    +0.000 S 
ENDBRANCH   6   7
ENDBRANCH   3   6
ENDBRANCH   1   4
BRANCH   1  13
ATOM     13  S   UNL     1       4.491   3.232  17.606  0.00  0.00    +0.000 S 
BRANCH  13  14
ATOM     14  C   UNL     1       5.690   4.421  17.976  0.00  0.00    +0.000 A 
ATOM     15  N   UNL     1       6.209   4.602  19.171  0.00  0.00    +0.000 NA
ATOM     16  N   UNL     1       7.097   5.650  19.093  0.00  0.00    +0.000 NA
ATOM     17  C   UNL     1       7.095   6.098  17.852  0.00  0.00    +0.000 A 
ATOM     18  N   UNL     1       6.243   5.323  17.093  0.00  0.00    +0.000 N 
BRANCH  17  19
ATOM     19  C   UNL     1       7.911   7.312  17.404  0.00  0.00    +0.000 C 
ATOM     20  C   UNL     1       7.312   8.690  17.601  0.00  0.00    +0.000 C 
ATOM     21  C   UNL     1       8.444   8.251  18.464  0.00  0.00    +0.000 C 
ENDBRANCH  17  19
BRANCH  18  22
ATOM     22  C   UNL     1       6.044   5.519  15.663  0.00  0.00    +0.000 C 
ATOM     23  C   UNL     1       6.935   4.951  14.573  0.00  0.00    +0.000 C 
ATOM     24  C   UNL     1       5.549   4.423  14.739  0.00  0.00    +0.000 C 
ENDBRANCH  18  22
ENDBRANCH  13  14
ENDBRANCH   1  13
TORSDOF 7
ENDMDL
MODEL 2
REMARK VINA RESULT:      -6.8      1.123      1.341
REMARK  Name = 
REMARK  8 active torsions:
REMARK  status: ('A' for Active; 'I' for Inactive)
REMARK    1  A    between atoms: C_1  and  N_2
REMARK    2  A    between atoms: N_2  and  C_3
REMARK    3  A    between atoms: C_3  and  C_4
REMARK    4  A    between atoms: C_10  and  C_12
REMARK    5  A    between atoms: C_12  and  S_13
REMARK    6  A    between atoms: S_13  and  C_14
REMARK    7  A    between atoms: C_17  and  C_18
REMARK    8  A    between atoms: N_21  and  C_22
REMARK                            x       y       z     vdW  Elec       q    Type
REMARK                         _______ _______ _______ _____ _____    ______ ____
ROOT
ATOM      1  C   UNL     1       4.183   2.873  19.669  0.00  0.00    +0.000 C 
ENDROOT
BRANCH   1   4
ATOM      2  C   UNL     1       0.534   3.930  20.214  0.00  0.00    +0.000 C 
ATOM      3  N   UNL     1       1.989   3.974  20.192  0.00  0.00    +0.000 N 
ATOM      4  C   UNL     1       2.652   2.838  19.726  0.00  0.00    +0.000 C 
ATOM      5  O   UNL     1       2.006   1.836  19.404  0.00  0.00    +0.000 OA
BRANCH   3   6
ATOM      6  C   UNL     1       2.637   5.187  20.681  0.00  0.00    +0.000 C 
BRANCH   6   7
ATOM      7  C   UNL     1       2.443   6.353  19.751  0.00  0.00    +0.000 A 
ATOM      8  C   UNL     1       2.762   6.519  18.413  0.00  0.00    +0.000 A 
ATOM      9  C   UNL     1       2.387   7.806  17.915  0.00  0.00    +0.000 A 
ATOM     10  C   UNL     1       1.803   8.564  18.894  0.00  0.00    +0.000 A 
ATOM     11 CL   UNL     1       1.205  10.167  18.734  0.00  0.00    +0.000 Cl
ATOM     12  S   UNL     1       1.694   7.773  20.382  0.00  0.00    +0.000 S 
ENDBRANCH   6   7
ENDBRANCH   3   6
ENDBRANCH   1   4
BRANCH   1  13
ATOM     13  S   UNL     1       4.748   3.228  17.977  0.00  0.00    +0.000 S 
BRANCH  13  14
ATOM     14  C   UNL     1       5.878   4.510  18.235  0.00  0.00    +0.000 A 
ATOM     15  N   UNL     1       6.407   4.808  19.402  0.00  0.00    +0.000 NA
ATOM     16  N   UNL     1       7.227   5.898  19.231  0.00  0.00    +0.000 NA
ATOM     17  C   UNL     1       7.175   6.255  17.961  0.00  0.00    +0.000 A 
ATOM     18  N   UNL     1       6.358   5.377  17.279  0.00  0.00    +0.000 N 
BRANCH  17  19
ATOM     19  C   UNL     1       7.907   7.480  17.411  0.00  0.00    +0.000 C 
ATOM     20  C   UNL     1       7.279   8.843  17.619  0.00  0.00    +0.000 C 
ATOM     21  C   UNL     1       8.494   8.470  18.394  0.00  0.00    +0.000 C 
ENDBRANCH  17  19
BRANCH  18  22
ATOM     22  C   UNL     1       6.123   5.458  15.843  0.00  0.00    +0.000 C 
ATOM     23  C   UNL     1       7.042   4.895  14.775  0.00  0.00    +0.000 C 
ATOM     24  C   UNL     1       5.710   4.264  15.004  0.00  0.00    +0.000 C 
ENDBRANCH  18  22
ENDBRANCH  13  14
ENDBRANCH   1  13
TORSDOF 7
ENDMDL
MODEL 3
REMARK VINA RESULT:      -6.6      0.844      1.073
REMARK  Name = 
REMARK  8 active torsions:
REMARK  status: ('A' for Active; 'I' for Inactive)
REMARK    1  A    between atoms: C_1  and  N_2
REMARK    2  A    between atoms: N_2  and  C_3
REMARK    3  A    between atoms: C_3  and  C_4
REMARK    4  A    between atoms: C_10  and  C_12
REMARK    5  A    between atoms: C_12  and  S_13
REMARK    6  A    between atoms: S_13  and  C_14
REMARK    7  A    between atoms: C_17  and  C_18
REMARK    8  A    between atoms: N_21  and  C_22
REMARK                            x       y       z     vdW  Elec       q    Type
REMARK                         _______ _______ _______ _____ _____    ______ ____
ROOT
ATOM      1  C   UNL     1       3.218   4.220  17.440  0.00  0.00    +0.000 C 
ENDROOT
BRANCH   1   4
ATOM      2  C   UNL     1       0.755   4.306  20.383  0.00  0.00    +0.000 C 
ATOM      3  N   UNL     1       1.882   4.639  19.524  0.00  0.00    +0.000 N 
ATOM      4  C   UNL     1       2.054   3.869  18.373  0.00  0.00    +0.000 C 
ATOM      5  O   UNL     1       1.298   2.918  18.149  0.00  0.00    +0.000 OA
BRANCH   3   6
ATOM      6  C   UNL     1       2.754   5.732  19.944  0.00  0.00    +0.000 C 
BRANCH   6   7
ATOM      7  C   UNL     1       2.276   7.068  19.445  0.00  0.00    +0.000 A 
ATOM      8  C   UNL     1       2.352   7.659  18.194  0.00  0.00    +0.000 A 
ATOM      9  C   UNL     1       1.754   8.956  18.163  0.00  0.00    +0.000 A 
ATOM     10  C   UNL     1       1.253   9.301  19.390  0.00  0.00    +0.000 A 
ATOM     11 CL   UNL     1       0.455  10.765  19.801  0.00  0.00    +0.000 Cl
ATOM     12  S   UNL     1       1.481   8.111  20.567  0.00  0.00    +0.000 S 
ENDBRANCH   6   7
ENDBRANCH   3   6
ENDBRANCH   1   4
BRANCH   1  13
ATOM     13  S   UNL     1       4.694   3.249  17.870  0.00  0.00    +0.000 S 
BRANCH  13  14
ATOM     14  C   UNL     1       5.826   4.483  18.298  0.00  0.00    +0.000 A 
ATOM     15  N   UNL     1       6.109   4.832  19.534  0.00  0.00    +0.000 NA
ATOM     16  N   UNL     1       7.019   5.862  19.487  0.00  0.00    +0.000 NA
ATOM     17  C   UNL     1       7.268   6.132  18.219  0.00  0.00    +0.000 A 
ATOM     18  N   UNL     1       6.560   5.254  17.424  0.00  0.00    +0.000 N 
BRANCH  17  19
ATOM     19  C   UNL     1       8.183   7.274  17.775  0.00  0.00    +0.000 C 
ATOM     20  C   UNL     1       7.573   8.649  17.589  0.00  0.00    +0.000 C 
ATOM     21  C   UNL     1       8.464   8.393  18.754  0.00  0.00    +0.000 C 
ENDBRANCH  17  19
BRANCH  18  22
ATOM     22  C   UNL     1       6.646   5.247  15.969  0.00  0.00    +0.000 C 
ATOM     23  C   UNL     1       6.055   4.181  15.066  0.00  0.00    +0.000 C 
ATOM     24  C   UNL     1       5.463   5.551  15.069  0.00  0.00    +0.000 C 
ENDBRANCH  18  22
ENDBRANCH  13  14
ENDBRANCH   1  13
TORSDOF 7
ENDMDL
MODEL 4
REMARK VINA RESULT:      -6.4      3.817      6.156
REMARK  Name = 
REMARK  8 active torsions:
REMARK  status: ('A' for Active; 'I' for Inactive)
REMARK    1  A    between atoms: C_1  and  N_2
REMARK    2  A    between atoms: N_2  and  C_3
REMARK    3  A    between atoms: C_3  and  C_4
REMARK    4  A    between atoms: C_10  and  C_12
REMARK    5  A    between atoms: C_12  and  S_13
REMARK    6  A    between atoms: S_13  and  C_14
REMARK    7  A    between atoms: C_17  and  C_18
REMARK    8  A    between atoms: N_21  and  C_22
REMARK                            x       y       z     vdW  Elec       q    Type
REMARK                         _______ _______ _______ _____ _____    ______ ____
ROOT
ATOM      1  C   UNL     1       1.326   8.944  17.779  0.00  0.00    +0.000 C 
ENDROOT
BRANCH   1   4
ATOM      2  C   UNL     1       0.641  12.325  19.461  0.00  0.00    +0.000 C 
ATOM      3  N   UNL     1       0.459  10.954  19.008  0.00  0.00    +0.000 N 
ATOM      4  C   UNL     1       1.484  10.396  18.243  0.00  0.00    +0.000 C 
ATOM      5  O   UNL     1       2.465  11.080  17.935  0.00  0.00    +0.000 OA
BRANCH   3   6
ATOM      6  C   UNL     1      -0.786  10.281  19.367  0.00  0.00    +0.000 C 
BRANCH   6   7
ATOM      7  C   UNL     1      -1.871  10.506  18.351  0.00  0.00    +0.000 A 
ATOM      8  C   UNL     1      -2.075   9.959  17.094  0.00  0.00    +0.000 A 
ATOM      9  C   UNL     1      -3.256  10.459  16.464  0.00  0.00    +0.000 A 
ATOM     10  C   UNL     1      -3.898  11.367  17.263  0.00  0.00    +0.000 A 
ATOM     11 CL   UNL     1      -5.349  12.212  16.901  0.00  0.00    +0.000 Cl
ATOM     12  S   UNL     1      -3.122  11.628  18.740  0.00  0.00    +0.000 S 
ENDBRANCH   6   7
ENDBRANCH   3   6
ENDBRANCH   1   4
BRANCH   1  13
ATOM     13  S   UNL     1       2.912   8.061  17.901  0.00  0.00    +0.000 S 
BRANCH  13  14
ATOM     14  C   UNL     1       2.535   6.793  19.014  0.00  0.00    +0.000 A 
ATOM     15  N   UNL     1       2.011   6.984  20.205  0.00  0.00    +0.000 NA
ATOM     16  N   UNL     1       1.884   5.758  20.815  0.00  0.00    +0.000 NA
ATOM     17  C   UNL     1       2.345   4.839  19.987  0.00  0.00    +0.000 A 
ATOM     18  N   UNL     1       2.736   5.446  18.811  0.00  0.00    +0.000 N 
BRANCH  17  19
ATOM     19  C   UNL     1       2.432   3.357  20.355  0.00  0.00    +0.000 C 
ATOM     20  C   UNL     1       1.347   2.773  21.237  0.00  0.00    +0.000 C 
ATOM     21  C   UNL     1       1.390   2.414  19.793  0.00  0.00    +0.000 C 
ENDBRANCH  17  19
BRANCH  18  22
ATOM     22  C   UNL     1       3.248   4.708  17.663  0.00  0.00    +0.000 C 
ATOM     23  C   UNL     1       4.536   5.025  16.927  0.00  0.00    +0.000 C 
ATOM     24  C   UNL     1       4.445   3.780  17.744  0.00  0.00    +0.000 C 
ENDBRANCH  18  22
ENDBRANCH  13  14
ENDBRANCH   1  13
TORSDOF 7
ENDMDL
MODEL 5
REMARK VINA RESULT:      -6.4      3.250      4.921
REMARK  Name = 
REMARK  8 active torsions:
REMARK  status: ('A' for Active; 'I' for Inactive)
REMARK    1  A    between atoms: C_1  and  N_2
REMARK    2  A    between atoms: N_2  and  C_3
REMARK    3  A    between atoms: C_3  and  C_4
REMARK    4  A    between atoms: C_10  and  C_12
REMARK    5  A    between atoms: C_12  and  S_13
REMARK    6  A    between atoms: S_13  and  C_14
REMARK    7  A    between atoms: C_17  and  C_18
REMARK    8  A    between atoms: N_21  and  C_22
REMARK                            x       y       z     vdW  Elec       q    Type
REMARK                         _______ _______ _______ _____ _____    ______ ____
ROOT
ATOM      1  C   UNL     1       1.939   8.172  19.147  0.00  0.00    +0.000 C 
ENDROOT
BRANCH   1   4
ATOM      2  C   UNL     1      -0.038  10.558  21.413  0.00  0.00    +0.000 C 
ATOM      3  N   UNL     1       0.614  10.007  20.233  0.00  0.00    +0.000 N 
ATOM      4  C   UNL     1       1.270   8.784  20.382  0.00  0.00    +0.000 C 
ATOM      5  O   UNL     1       1.322   8.244  21.491  0.00  0.00    +0.000 OA
BRANCH   3   6
ATOM      6  C   UNL     1       0.552  10.785  19.000  0.00  0.00    +0.000 C 
BRANCH   6   7
ATOM      7  C   UNL     1      -0.774  10.649  18.305  0.00  0.00    +0.000 A 
ATOM      8  C   UNL     1      -1.263   9.676  17.448  0.00  0.00    +0.000 A 
ATOM      9  C   UNL     1      -2.600   9.943  17.019  0.00  0.00    +0.000 A 
ATOM     10  C   UNL     1      -3.070  11.109  17.562  0.00  0.00    +0.000 A 
ATOM     11 CL   UNL     1      -4.620  11.807  17.315  0.00  0.00    +0.000 Cl
ATOM     12  S   UNL     1      -1.954  11.881  18.568  0.00  0.00    +0.000 S 
ENDBRANCH   6   7
ENDBRANCH   3   6
ENDBRANCH   1   4
BRANCH   1  13
ATOM     13  S   UNL     1       2.463   6.465  19.487  0.00  0.00    +0.000 S 
BRANCH  13  14
ATOM     14  C   UNL     1       3.575   6.163  18.199  0.00  0.00    +0.000 A 
ATOM     15  N   UNL     1       4.009   7.083  17.365  0.00  0.00    +0.000 NA
ATOM     16  N   UNL     1       4.846   6.475  16.460  0.00  0.00    +0.000 NA
ATOM     17  C   UNL     1       4.898   5.188  16.750  0.00  0.00    +0.000 A 
ATOM     18  N   UNL     1       4.135   4.948  17.874  0.00  0.00    +0.000 N 
BRANCH  17  19
ATOM     19  C   UNL     1       5.678   4.177  15.909  0.00  0.00    +0.000 C 
ATOM     20  C   UNL     1       5.650   4.326  14.401  0.00  0.00    +0.000 C 
ATOM     21  C   UNL     1       6.894   4.659  15.148  0.00  0.00    +0.000 C 
ENDBRANCH  17  19
BRANCH  18  22
ATOM     22  C   UNL     1       4.016   3.634  18.492  0.00  0.00    +0.000 C 
ATOM     23  C   UNL     1       2.708   2.954  18.851  0.00  0.00    +0.000 C 
ATOM     24  C   UNL     1       3.540   2.405  17.740  0.00  0.00    +0.000 C 
ENDBRANCH  18  22
ENDBRANCH  13  14
ENDBRANCH   1  13
TORSDOF 7
ENDMDL
MODEL 6
REMARK VINA RESULT:      -6.1      3.122      6.504
REMARK  Name = 
REMARK  8 active torsions:
REMARK  status: ('A' for Active; 'I' for Inactive)
REMARK    1  A    between atoms: C_1  and  N_2
REMARK    2  A    between atoms: N_2  and  C_3
REMARK    3  A    between atoms: C_3  and  C_4
REMARK    4  A    between atoms: C_10  and  C_12
REMARK    5  A    between atoms: C_12  and  S_13
REMARK    6  A    between atoms: S_13  and  C_14
REMARK    7  A    between atoms: C_17  and  C_18
REMARK    8  A    between atoms: N_21  and  C_22
REMARK                            x       y       z     vdW  Elec       q    Type
REMARK                         _______ _______ _______ _____ _____    ______ ____
ROOT
ATOM      1  C   UNL     1       2.508   5.862  18.736  0.00  0.00    +0.000 C 
ENDROOT
BRANCH   1   4
ATOM      2  C   UNL     1       4.264   2.495  19.298  0.00  0.00    +0.000 C 
ATOM      3  N   UNL     1       3.910   3.779  18.711  0.00  0.00    +0.000 N 
ATOM      4  C   UNL     1       2.879   4.495  19.321  0.00  0.00    +0.000 C 
ATOM      5  O   UNL     1       2.276   4.008  20.283  0.00  0.00    +0.000 OA
BRANCH   3   6
ATOM      6  C   UNL     1       4.641   4.205  17.521  0.00  0.00    +0.000 C 
BRANCH   6   7
ATOM      7  C   UNL     1       5.791   5.115  17.852  0.00  0.00    +0.000 A 
ATOM      8  C   UNL     1       6.877   4.947  18.696  0.00  0.00    +0.000 A 
ATOM      9  C   UNL     1       7.745   6.083  18.705  0.00  0.00    +0.000 A 
ATOM     10  C   UNL     1       7.282   7.067  17.874  0.00  0.00    +0.000 A 
ATOM     11 CL   UNL     1       8.010   8.596  17.584  0.00  0.00    +0.000 Cl
ATOM     12  S   UNL     1       5.843   6.661  17.088  0.00  0.00    +0.000 S 
ENDBRANCH   6   7
ENDBRANCH   3   6
ENDBRANCH   1   4
BRANCH   1  13
ATOM     13  S   UNL     1       1.957   6.988  20.053  0.00  0.00    +0.000 S 
BRANCH  13  14
ATOM     14  C   UNL     1       1.808   8.488  19.207  0.00  0.00    +0.000 A 
ATOM     15  N   UNL     1       2.140   8.663  17.947  0.00  0.00    +0.000 NA
ATOM     16  N   UNL     1       1.918   9.983  17.629  0.00  0.00    +0.000 NA
ATOM     17  C   UNL     1       1.465  10.594  18.707  0.00  0.00    +0.000 A 
ATOM     18  N   UNL     1       1.342   9.675  19.729  0.00  0.00    +0.000 N 
BRANCH  17  19
ATOM     19  C   UNL     1       1.176  12.095  18.753  0.00  0.00    +0.000 C 
ATOM     20  C   UNL     1       2.097  12.978  19.570  0.00  0.00    +0.000 C 
ATOM     21  C   UNL     1       2.152  13.038  18.083  0.00  0.00    +0.000 C 
ENDBRANCH  17  19
BRANCH  18  22
ATOM     22  C   UNL     1       0.821  10.011  21.048  0.00  0.00    +0.000 C 
ATOM     23  C   UNL     1      -0.589  10.494  21.330  0.00  0.00    +0.000 C 
ATOM     24  C   UNL     1      -0.171   9.138  21.792  0.00  0.00    +0.000 C 
ENDBRANCH  18  22
ENDBRANCH  13  14
ENDBRANCH   1  13
TORSDOF 7
ENDMDL
MODEL 7
REMARK VINA RESULT:      -6.0      3.240      6.850
REMARK  Name = 
REMARK  8 active torsions:
REMARK  status: ('A' for Active; 'I' for Inactive)
REMARK    1  A    between atoms: C_1  and  N_2
REMARK    2  A    between atoms: N_2  and  C_3
REMARK    3  A    between atoms: C_3  and  C_4
REMARK    4  A    between atoms: C_10  and  C_12
REMARK    5  A    between atoms: C_12  and  S_13
REMARK    6  A    between atoms: S_13  and  C_14
REMARK    7  A    between atoms: C_17  and  C_18
REMARK    8  A    between atoms: N_21  and  C_22
REMARK                            x       y       z     vdW  Elec       q    Type
REMARK                         _______ _______ _______ _____ _____    ______ ____
ROOT
ATOM      1  C   UNL     1       2.363   5.764  18.627  0.00  0.00    +0.000 C 
ENDROOT
BRANCH   1   4
ATOM      2  C   UNL     1       4.227   2.601  19.747  0.00  0.00    +0.000 C 
ATOM      3  N   UNL     1       3.978   3.968  19.312  0.00  0.00    +0.000 N 
ATOM      4  C   UNL     1       2.652   4.323  19.059  0.00  0.00    +0.000 C 
ATOM      5  O   UNL     1       1.759   3.476  19.156  0.00  0.00    +0.000 OA
BRANCH   3   6
ATOM      6  C   UNL     1       5.131   4.850  19.153  0.00  0.00    +0.000 C 
BRANCH   6   7
ATOM      7  C   UNL     1       5.840   4.631  17.845  0.00  0.00    +0.000 A 
ATOM      8  C   UNL     1       7.183   4.695  17.511  0.00  0.00    +0.000 A 
ATOM      9  C   UNL     1       7.420   4.405  16.132  0.00  0.00    +0.000 A 
ATOM     10  C   UNL     1       6.250   4.138  15.474  0.00  0.00    +0.000 A 
ATOM     11 CL   UNL     1       6.071   3.742  13.812  0.00  0.00    +0.000 Cl
ATOM     12  S   UNL     1       4.886   4.224  16.467  0.00  0.00    +0.000 S 
ENDBRANCH   6   7
ENDBRANCH   3   6
ENDBRANCH   1   4
BRANCH   1  13
ATOM     13  S   UNL     1       2.153   6.834  20.083  0.00  0.00    +0.000 S 
BRANCH  13  14
ATOM     14  C   UNL     1       1.818   8.368  19.359  0.00  0.00    +0.000 A 
ATOM     15  N   UNL     1       2.039   8.654  18.095  0.00  0.00    +0.000 NA
ATOM     16  N   UNL     1       1.686   9.967  17.889  0.00  0.00    +0.000 NA
ATOM     17  C   UNL     1       1.266  10.464  19.038  0.00  0.00    +0.000 A 
ATOM     18  N   UNL     1       1.296   9.472  19.996  0.00  0.00    +0.000 N 
BRANCH  17  19
ATOM     19  C   UNL     1       0.857  11.927  19.211  0.00  0.00    +0.000 C 
ATOM     20  C   UNL     1       1.870  12.890  19.798  0.00  0.00    +0.000 C 
ATOM     21  C   UNL     1       1.535  12.971  18.350  0.00  0.00    +0.000 C 
ENDBRANCH  17  19
BRANCH  18  22
ATOM     22  C   UNL     1       0.848   9.673  21.368  0.00  0.00    +0.000 C 
ATOM     23  C   UNL     1      -0.487  10.270  21.771  0.00  0.00    +0.000 C 
ATOM     24  C   UNL     1      -0.224   8.823  22.022  0.00  0.00    +0.000 C 
ENDBRANCH  18  22
ENDBRANCH  13  14
ENDBRANCH   1  13
TORSDOF 7
ENDMDL
MODEL 8
REMARK VINA RESULT:      -6.0      3.992      5.887
REMARK  Name = 
REMARK  8 active torsions:
REMARK  status: ('A' for Active; 'I' for Inactive)
REMARK    1  A    between atoms: C_1  and  N_2
REMARK    2  A    between atoms: N_2  and  C_3
REMARK    3  A    between atoms: C_3  and  C_4
REMARK    4  A    between atoms: C_10  and  C_12
REMARK    5  A    between atoms: C_12  and  S_13
REMARK    6  A    between atoms: S_13  and  C_14
REMARK    7  A    between atoms: C_17  and  C_18
REMARK    8  A    between atoms: N_21  and  C_22
REMARK                            x       y       z     vdW  Elec       q    Type
REMARK                         _______ _______ _______ _____ _____    ______ ____
ROOT
ATOM      1  C   UNL     1       1.243   9.210  18.878  0.00  0.00    +0.000 C 
ENDROOT
BRANCH   1   4
ATOM      2  C   UNL     1       0.099  12.868  18.667  0.00  0.00    +0.000 C 
ATOM      3  N   UNL     1       0.067  11.428  18.880  0.00  0.00    +0.000 N 
ATOM      4  C   UNL     1       1.245  10.723  18.634  0.00  0.00    +0.000 C 
ATOM      5  O   UNL     1       2.239  11.316  18.202  0.00  0.00    +0.000 OA
BRANCH   3   6
ATOM      6  C   UNL     1      -1.196  10.834  19.310  0.00  0.00    +0.000 C 
BRANCH   6   7
ATOM      7  C   UNL     1      -2.254  10.908  18.244  0.00  0.00    +0.000 A 
ATOM      8  C   UNL     1      -3.467  11.577  18.204  0.00  0.00    +0.000 A 
ATOM      9  C   UNL     1      -4.165  11.374  16.973  0.00  0.00    +0.000 A 
ATOM     10  C   UNL     1      -3.458  10.557  16.132  0.00  0.00    +0.000 A 
ATOM     11 CL   UNL     1      -3.923  10.052  14.558  0.00  0.00    +0.000 Cl
ATOM     12  S   UNL     1      -1.987  10.036  16.780  0.00  0.00    +0.000 S 
ENDBRANCH   6   7
ENDBRANCH   3   6
ENDBRANCH   1   4
BRANCH   1  13
ATOM     13  S   UNL     1       2.491   8.395  17.836  0.00  0.00    +0.000 S 
BRANCH  13  14
ATOM     14  C   UNL     1       2.772   6.921  18.695  0.00  0.00    +0.000 A 
ATOM     15  N   UNL     1       2.278   6.651  19.883  0.00  0.00    +0.000 NA
ATOM     16  N   UNL     1       2.739   5.412  20.262  0.00  0.00    +0.000 NA
ATOM     17  C   UNL     1       3.519   4.952  19.301  0.00  0.00    +0.000 A 
ATOM     18  N   UNL     1       3.541   5.862  18.264  0.00  0.00    +0.000 N 
BRANCH  17  19
ATOM     19  C   UNL     1       4.273   3.626  19.405  0.00  0.00    +0.000 C 
ATOM     20  C   UNL     1       3.608   2.479  20.140  0.00  0.00    +0.000 C 
ATOM     21  C   UNL     1       3.729   2.428  18.657  0.00  0.00    +0.000 C 
ENDBRANCH  17  19
BRANCH  18  22
ATOM     22  C   UNL     1       4.270   5.640  17.022  0.00  0.00    +0.000 C 
ATOM     23  C   UNL     1       5.223   6.632  16.382  0.00  0.00    +0.000 C 
ATOM     24  C   UNL     1       5.762   5.374  16.976  0.00  0.00    +0.000 C 
ENDBRANCH  18  22
ENDBRANCH  13  14
ENDBRANCH   1  13
TORSDOF 7
ENDMDL
MODEL 9
REMARK VINA RESULT:      -6.0      2.897      6.444
REMARK  Name = 
REMARK  8 active torsions:
REMARK  status: ('A' for Active; 'I' for Inactive)
REMARK    1  A    between atoms: C_1  and  N_2
REMARK    2  A    between atoms: N_2  and  C_3
REMARK    3  A    between atoms: C_3  and  C_4
REMARK    4  A    between atoms: C_10  and  C_12
REMARK    5  A    between atoms: C_12  and  S_13
REMARK    6  A    between atoms: S_13  and  C_14
REMARK    7  A    between atoms: C_17  and  C_18
REMARK    8  A    between atoms: N_21  and  C_22
REMARK                            x       y       z     vdW  Elec       q    Type
REMARK                         _______ _______ _______ _____ _____    ______ ____
ROOT
ATOM      1  C   UNL     1       2.417   5.425  20.723  0.00  0.00    +0.000 C 
ENDROOT
BRANCH   1   4
ATOM      2  C   UNL     1       2.055   2.019  18.991  0.00  0.00    +0.000 C 
ATOM      3  N   UNL     1       2.663   3.196  19.595  0.00  0.00    +0.000 N 
ATOM      4  C   UNL     1       1.800   4.190  20.059  0.00  0.00    +0.000 C 
ATOM      5  O   UNL     1       0.581   4.070  19.900  0.00  0.00    +0.000 OA
BRANCH   3   6
ATOM      6  C   UNL     1       4.121   3.256  19.646  0.00  0.00    +0.000 C 
BRANCH   6   7
ATOM      7  C   UNL     1       4.691   4.183  18.609  0.00  0.00    +0.000 A 
ATOM      8  C   UNL     1       4.359   4.384  17.279  0.00  0.00    +0.000 A 
ATOM      9  C   UNL     1       5.169   5.384  16.657  0.00  0.00    +0.000 A 
ATOM     10  C   UNL     1       6.084   5.899  17.536  0.00  0.00    +0.000 A 
ATOM     11 CL   UNL     1       7.250   7.117  17.211  0.00  0.00    +0.000 Cl
ATOM     12  S   UNL     1       5.992   5.216  19.078  0.00  0.00    +0.000 S 
ENDBRANCH   6   7
ENDBRANCH   3   6
ENDBRANCH   1   4
BRANCH   1  13
ATOM     13  S   UNL     1       2.367   6.848  19.591  0.00  0.00    +0.000 S 
BRANCH  13  14
ATOM     14  C   UNL     1       1.478   8.011  20.511  0.00  0.00    +0.000 A 
ATOM     15  N   UNL     1       1.233   7.905  21.799  0.00  0.00    +0.000 NA
ATOM     16  N   UNL     1       0.476   8.989  22.177  0.00  0.00    +0.000 NA
ATOM     17  C   UNL     1       0.261   9.733  21.108  0.00  0.00    +0.000 A 
ATOM     18  N   UNL     1       0.912   9.170  20.029  0.00  0.00    +0.000 N 
BRANCH  17  19
ATOM     19  C   UNL     1      -0.608  10.990  21.130  0.00  0.00    +0.000 C 
ATOM     20  C   UNL     1      -0.752  11.740  22.439  0.00  0.00    +0.000 C 
ATOM     21  C   UNL     1       0.065  12.329  21.343  0.00  0.00    +0.000 C 
ENDBRANCH  17  19
BRANCH  18  22
ATOM     22  C   UNL     1       0.921   9.769  18.700  0.00  0.00    +0.000 C 
ATOM     23  C   UNL     1       1.794  10.933  18.274  0.00  0.00    +0.000 C 
ATOM     24  C   UNL     1       2.056   9.576  17.713  0.00  0.00    +0.000 C 
ENDBRANCH  18  22
ENDBRANCH  13  14
ENDBRANCH   1  13
TORSDOF 7
ENDMDL
