MODEL 1
REMARK VINA RESULT:      -8.3      0.000      0.000
REMARK  Name = 
REMARK  9 active torsions:
REMARK  status: ('A' for Active; 'I' for Inactive)
REMARK    1  A    between atoms: C_2  and  C_3
REMARK    2  A    between atoms: C_5  and  C_6
REMARK    3  A    between atoms: C_6  and  C_7
REMARK    4  A    between atoms: C_7  and  C_8
REMARK    5  A    between atoms: C_8  and  N_9
REMARK    6  A    between atoms: N_9  and  C_10
REMARK    7  A    between atoms: C_10  and  C_11
REMARK    8  A    between atoms: C_15  and  C_16
REMARK    9  A    between atoms: C_20  and  C_21
REMARK                            x       y       z     vdW  Elec       q    Type
REMARK                         _______ _______ _______ _____ _____    ______ ____
ROOT
ATOM      1  C   UNL     1       6.645   5.135  15.644  0.00  0.00    +0.000 A 
ATOM      2  N   UNL     1       7.404   6.026  16.317  0.00  0.00    +0.000 NA
ATOM      3  C   UNL     1       7.095   6.221  17.611  0.00  0.00    +0.000 A 
ATOM      4  C   UNL     1       6.067   5.539  18.219  0.00  0.00    +0.000 A 
ATOM      5  C   UNL     1       5.339   4.647  17.446  0.00  0.00    +0.000 A 
ATOM      6  N   UNL     1       5.623   4.424  16.151  0.00  0.00    +0.000 NA
ENDROOT
BRANCH   5   7
ATOM      7  C   UNL     1       4.264   3.847  18.053  0.00  0.00    +0.000 A 
ATOM      8  C   UNL     1       3.792   2.676  17.427  0.00  0.00    +0.000 A 
ATOM      9  C   UNL     1       2.681   1.993  17.908  0.00  0.00    +0.000 A 
ATOM     10  C   UNL     1       2.033   2.457  19.046  0.00  0.00    +0.000 A 
ATOM     11  C   UNL     1       2.489   3.603  19.713  0.00  0.00    +0.000 A 
ATOM     12  C   UNL     1       3.613   4.280  19.219  0.00  0.00    +0.000 A 
BRANCH  11  13
ATOM     13  C   UNL     1       1.757   4.124  20.925  0.00  0.00    +0.000 C 
ATOM     14  F   UNL     1       0.913   3.206  21.475  0.00  0.00    +0.000 F 
ATOM     15  F   UNL     1       2.599   4.504  21.925  0.00  0.00    +0.000 F 
ATOM     16  F   UNL     1       0.989   5.212  20.644  0.00  0.00    +0.000 F 
ENDBRANCH  11  13
ENDBRANCH   5   7
BRANCH   1  18
ATOM     17  N   UNL     1       7.221   4.757  13.138  0.00  0.00    +0.000 NA
ATOM     18  C   UNL     1       6.965   4.925  14.254  0.00  0.00    +0.000 C 
ENDBRANCH   1  18
BRANCH   3  19
ATOM     19  C   UNL     1       7.941   7.189  18.395  0.00  0.00    +0.000 C 
BRANCH  19  20
ATOM     20  C   UNL     1       7.967   8.602  17.810  0.00  0.00    +0.000 C 
BRANCH  20  21
ATOM     21  C   UNL     1       8.822   9.577  18.619  0.00  0.00    +0.000 C 
BRANCH  21  22
ATOM     22  N   UNL     1       8.763  10.885  17.960  0.00  0.00    +0.000 NA
ATOM     23  H   UNL     1       7.819  11.262  18.068  0.00  0.00    +0.000 HD
BRANCH  22  24
ATOM     24  C   UNL     1       9.695  11.820  18.628  0.00  0.00    +0.000 C 
BRANCH  24  25
ATOM     25  C   UNL     1      10.844  12.223  17.699  0.00  0.00    +0.000 C 
ATOM     26  N   UNL     1      11.975  11.458  17.766  0.00  0.00    +0.000 N 
ATOM     27  O   UNL     1      10.769  13.164  16.916  0.00  0.00    +0.000 OA
ATOM     28  H   UNL     1      12.122  10.905  18.603  0.00  0.00    +0.000 HD
ATOM     29  H   UNL     1      12.778  11.790  17.251  0.00  0.00    +0.000 HD
ENDBRANCH  24  25
ENDBRANCH  22  24
ENDBRANCH  21  22
ENDBRANCH  20  21
ENDBRANCH  19  20
ENDBRANCH   3  19
TORSDOF 9
ENDMDL
MODEL 2
REMARK VINA RESULT:      -8.1      5.365      8.211
REMARK  Name = 
REMARK  9 active torsions:
REMARK  status: ('A' for Active; 'I' for Inactive)
REMARK    1  A    between atoms: C_2  and  C_3
REMARK    2  A    between atoms: C_5  and  C_6
REMARK    3  A    between atoms: C_6  and  C_7
REMARK    4  A    between atoms: C_7  and  C_8
REMARK    5  A    between atoms: C_8  and  N_9
REMARK    6  A    between atoms: N_9  and  C_10
REMARK    7  A    between atoms: C_10  and  C_11
REMARK    8  A    between atoms: C_15  and  C_16
REMARK    9  A    between atoms: C_20  and  C_21
REMARK                            x       y       z     vdW  Elec       q    Type
REMARK                         _______ _______ _______ _____ _____    ______ ____
ROOT
ATOM      1  C   UNL     1       6.256   5.356  18.410  0.00  0.00    +0.000 A 
ATOM      2  N   UNL     1       4.973   5.582  18.764  0.00  0.00    +0.000 NA
ATOM      3  C   UNL     1       4.061   5.535  17.777  0.00  0.00    +0.000 A 
ATOM      4  C   UNL     1       4.416   5.260  16.477  0.00  0.00    +0.000 A 
ATOM      5  C   UNL     1       5.760   5.046  16.208  0.00  0.00    +0.000 A 
ATOM      6  N   UNL     1       6.698   5.080  17.170  0.00  0.00    +0.000 NA
ENDROOT
BRANCH   5   7
ATOM      7  C   UNL     1       6.195   4.693  14.848  0.00  0.00    +0.000 A 
ATOM      8  C   UNL     1       7.445   5.118  14.354  0.00  0.00    +0.000 A 
ATOM      9  C   UNL     1       7.806   4.921  13.027  0.00  0.00    +0.000 A 
ATOM     10  C   UNL     1       6.930   4.268  12.169  0.00  0.00    +0.000 A 
ATOM     11  C   UNL     1       5.689   3.805  12.629  0.00  0.00    +0.000 A 
ATOM     12  C   UNL     1       5.339   4.008  13.971  0.00  0.00    +0.000 A 
BRANCH  11  13
ATOM     13  C   UNL     1       4.726   3.131  11.683  0.00  0.00    +0.000 C 
ATOM     14  F   UNL     1       3.475   2.993  12.204  0.00  0.00    +0.000 F 
ATOM     15  F   UNL     1       4.571   3.812  10.515  0.00  0.00    +0.000 F 
ATOM     16  F   UNL     1       5.125   1.875  11.339  0.00  0.00    +0.000 F 
ENDBRANCH  11  13
ENDBRANCH   5   7
BRANCH   1  18
ATOM     17  N   UNL     1       8.032   5.455  20.304  0.00  0.00    +0.000 NA
ATOM     18  C   UNL     1       7.241   5.410  19.461  0.00  0.00    +0.000 C 
ENDBRANCH   1  18
BRANCH   3  19
ATOM     19  C   UNL     1       2.618   5.756  18.146  0.00  0.00    +0.000 C 
BRANCH  19  20
ATOM     20  C   UNL     1       1.711   4.563  17.840  0.00  0.00    +0.000 C 
BRANCH  20  21
ATOM     21  C   UNL     1       1.133   3.906  19.093  0.00  0.00    +0.000 C 
BRANCH  21  22
ATOM     22  N   UNL     1       1.420   2.470  19.024  0.00  0.00    +0.000 NA
ATOM     23  H   UNL     1       1.684   2.236  18.064  0.00  0.00    +0.000 HD
BRANCH  22  24
ATOM     24  C   UNL     1       2.576   2.151  19.891  0.00  0.00    +0.000 C 
BRANCH  24  25
ATOM     25  C   UNL     1       3.849   1.933  19.068  0.00  0.00    +0.000 C 
ATOM     26  N   UNL     1       5.024   2.308  19.655  0.00  0.00    +0.000 N 
ATOM     27  O   UNL     1       3.840   1.431  17.948  0.00  0.00    +0.000 OA
ATOM     28  H   UNL     1       4.980   2.977  20.416  0.00  0.00    +0.000 HD
ATOM     29  H   UNL     1       5.850   2.284  19.073  0.00  0.00    +0.000 HD
ENDBRANCH  24  25
ENDBRANCH  22  24
ENDBRANCH  21  22
ENDBRANCH  20  21
ENDBRANCH  19  20
ENDBRANCH   3  19
TORSDOF 9
ENDMDL
MODEL 3
REMARK VINA RESULT:      -8.0      5.500      8.185
REMARK  Name = 
REMARK  9 active torsions:
REMARK  status: ('A' for Active; 'I' for Inactive)
REMARK    1  A    between atoms: C_2  and  C_3
REMARK    2  A    between atoms: C_5  and  C_6
REMARK    3  A    between atoms: C_6  and  C_7
REMARK    4  A    between atoms: C_7  and  C_8
REMARK    5  A    between atoms: C_8  and  N_9
REMARK    6  A    between atoms: N_9  and  C_10
REMARK    7  A    between atoms: C_10  and  C_11
REMARK    8  A    between atoms: C_15  and  C_16
REMARK    9  A    between atoms: C_20  and  C_21
REMARK                            x       y       z     vdW  Elec       q    Type
REMARK                         _______ _______ _______ _____ _____    ______ ____
ROOT
ATOM      1  C   UNL     1       2.674   7.850  18.320  0.00  0.00    +0.000 A 
ATOM      2  N   UNL     1       1.980   7.316  19.347  0.00  0.00    +0.000 NA
ATOM      3  C   UNL     1       2.337   6.078  19.733  0.00  0.00    +0.000 A 
ATOM      4  C   UNL     1       3.363   5.398  19.121  0.00  0.00    +0.000 A 
ATOM      5  C   UNL     1       4.016   6.025  18.070  0.00  0.00    +0.000 A 
ATOM      6  N   UNL     1       3.689   7.263  17.661  0.00  0.00    +0.000 NA
ENDROOT
BRANCH   5   7
ATOM      7  C   UNL     1       5.158   5.372  17.412  0.00  0.00    +0.000 A 
ATOM      8  C   UNL     1       6.377   5.185  18.095  0.00  0.00    +0.000 A 
ATOM      9  C   UNL     1       7.508   4.708  17.443  0.00  0.00    +0.000 A 
ATOM     10  C   UNL     1       7.434   4.383  16.095  0.00  0.00    +0.000 A 
ATOM     11  C   UNL     1       6.232   4.528  15.387  0.00  0.00    +0.000 A 
ATOM     12  C   UNL     1       5.098   5.007  16.058  0.00  0.00    +0.000 A 
BRANCH  11  13
ATOM     13  C   UNL     1       6.169   4.210  13.914  0.00  0.00    +0.000 C 
ATOM     14  F   UNL     1       6.552   2.934  13.626  0.00  0.00    +0.000 F 
ATOM     15  F   UNL     1       4.918   4.350  13.399  0.00  0.00    +0.000 F 
ATOM     16  F   UNL     1       6.977   5.016  13.170  0.00  0.00    +0.000 F 
ENDBRANCH  11  13
ENDBRANCH   5   7
BRANCH   1  18
ATOM     17  N   UNL     1       1.988  10.237  17.556  0.00  0.00    +0.000 NA
ATOM     18  C   UNL     1       2.294   9.174  17.895  0.00  0.00    +0.000 C 
ENDBRANCH   1  18
BRANCH   3  19
ATOM     19  C   UNL     1       1.598   5.466  20.894  0.00  0.00    +0.000 C 
BRANCH  19  20
ATOM     20  C   UNL     1       0.929   4.130  20.566  0.00  0.00    +0.000 C 
BRANCH  20  21
ATOM     21  C   UNL     1       1.548   2.946  21.308  0.00  0.00    +0.000 C 
BRANCH  21  22
ATOM     22  N   UNL     1       2.294   2.143  20.335  0.00  0.00    +0.000 NA
ATOM     23  H   UNL     1       2.323   1.175  20.664  0.00  0.00    +0.000 HD
BRANCH  22  24
ATOM     24  C   UNL     1       1.584   2.148  19.037  0.00  0.00    +0.000 C 
BRANCH  24  25
ATOM     25  C   UNL     1       2.558   2.316  17.868  0.00  0.00    +0.000 C 
ATOM     26  N   UNL     1       3.767   1.690  17.990  0.00  0.00    +0.000 N 
ATOM     27  O   UNL     1       2.283   2.956  16.857  0.00  0.00    +0.000 OA
ATOM     28  H   UNL     1       4.077   1.439  18.922  0.00  0.00    +0.000 HD
ATOM     29  H   UNL     1       4.458   1.897  17.283  0.00  0.00    +0.000 HD
ENDBRANCH  24  25
ENDBRANCH  22  24
ENDBRANCH  21  22
ENDBRANCH  20  21
ENDBRANCH  19  20
ENDBRANCH   3  19
TORSDOF 9
ENDMDL
MODEL 4
REMARK VINA RESULT:      -8.0      1.296      2.012
REMARK  Name = 
REMARK  9 active torsions:
REMARK  status: ('A' for Active; 'I' for Inactive)
REMARK    1  A    between atoms: C_2  and  C_3
REMARK    2  A    between atoms: C_5  and  C_6
REMARK    3  A    between atoms: C_6  and  C_7
REMARK    4  A    between atoms: C_7  and  C_8
REMARK    5  A    between atoms: C_8  and  N_9
REMARK    6  A    between atoms: N_9  and  C_10
REMARK    7  A    between atoms: C_10  and  C_11
REMARK    8  A    between atoms: C_15  and  C_16
REMARK    9  A    between atoms: C_20  and  C_21
REMARK                            x       y       z     vdW  Elec       q    Type
REMARK                         _______ _______ _______ _____ _____    ______ ____
ROOT
ATOM      1  C   UNL     1       6.149   5.268  15.875  0.00  0.00    +0.000 A 
ATOM      2  N   UNL     1       7.174   6.029  16.314  0.00  0.00    +0.000 NA
ATOM      3  C   UNL     1       7.013   6.620  17.510  0.00  0.00    +0.000 A 
ATOM      4  C   UNL     1       5.868   6.450  18.253  0.00  0.00    +0.000 A 
ATOM      5  C   UNL     1       4.865   5.655  17.718  0.00  0.00    +0.000 A 
ATOM      6  N   UNL     1       4.994   5.044  16.527  0.00  0.00    +0.000 NA
ENDROOT
BRANCH   5   7
ATOM      7  C   UNL     1       3.641   5.389  18.488  0.00  0.00    +0.000 A 
ATOM      8  C   UNL     1       3.051   6.395  19.280  0.00  0.00    +0.000 A 
ATOM      9  C   UNL     1       1.984   6.119  20.127  0.00  0.00    +0.000 A 
ATOM     10  C   UNL     1       1.467   4.831  20.180  0.00  0.00    +0.000 A 
ATOM     11  C   UNL     1       2.008   3.809  19.386  0.00  0.00    +0.000 A 
ATOM     12  C   UNL     1       3.082   4.102  18.534  0.00  0.00    +0.000 A 
BRANCH  11  13
ATOM     13  C   UNL     1       1.468   2.403  19.476  0.00  0.00    +0.000 C 
ATOM     14  F   UNL     1       1.256   1.994  20.758  0.00  0.00    +0.000 F 
ATOM     15  F   UNL     1       0.278   2.255  18.834  0.00  0.00    +0.000 F 
ATOM     16  F   UNL     1       2.310   1.484  18.929  0.00  0.00    +0.000 F 
ENDBRANCH  11  13
ENDBRANCH   5   7
BRANCH   1  18
ATOM     17  N   UNL     1       6.439   4.125  13.560  0.00  0.00    +0.000 NA
ATOM     18  C   UNL     1       6.310   4.635  14.590  0.00  0.00    +0.000 C 
ENDBRANCH   1  18
BRANCH   3  19
ATOM     19  C   UNL     1       8.151   7.453  18.039  0.00  0.00    +0.000 C 
BRANCH  19  20
ATOM     20  C   UNL     1       7.988   8.953  17.788  0.00  0.00    +0.000 C 
BRANCH  20  21
ATOM     21  C   UNL     1       8.867   9.817  18.692  0.00  0.00    +0.000 C 
BRANCH  21  22
ATOM     22  N   UNL     1       9.069  11.107  18.026  0.00  0.00    +0.000 NA
ATOM     23  H   UNL     1       8.168  11.585  17.961  0.00  0.00    +0.000 HD
BRANCH  22  24
ATOM     24  C   UNL     1       9.963  11.955  18.847  0.00  0.00    +0.000 C 
BRANCH  24  25
ATOM     25  C   UNL     1      11.061  12.597  17.996  0.00  0.00    +0.000 C 
ATOM     26  N   UNL     1      12.009  11.753  17.489  0.00  0.00    +0.000 N 
ATOM     27  O   UNL     1      11.097  13.800  17.752  0.00  0.00    +0.000 OA
ATOM     28  H   UNL     1      12.130  10.854  17.941  0.00  0.00    +0.000 HD
ATOM     29  H   UNL     1      12.802  12.183  17.034  0.00  0.00    +0.000 HD
ENDBRANCH  24  25
ENDBRANCH  22  24
ENDBRANCH  21  22
ENDBRANCH  20  21
ENDBRANCH  19  20
ENDBRANCH   3  19
TORSDOF 9
ENDMDL
MODEL 5
REMARK VINA RESULT:      -7.9      4.741      7.430
REMARK  Name = 
REMARK  9 active torsions:
REMARK  status: ('A' for Active; 'I' for Inactive)
REMARK    1  A    between atoms: C_2  and  C_3
REMARK    2  A    between atoms: C_5  and  C_6
REMARK    3  A    between atoms: C_6  and  C_7
REMARK    4  A    between atoms: C_7  and  C_8
REMARK    5  A    between atoms: C_8  and  N_9
REMARK    6  A    between atoms: N_9  and  C_10
REMARK    7  A    between atoms: C_10  and  C_11
REMARK    8  A    between atoms: C_15  and  C_16
REMARK    9  A    between atoms: C_20  and  C_21
REMARK                            x       y       z     vdW  Elec       q    Type
REMARK                         _______ _______ _______ _____ _____    ______ ____
ROOT
ATOM      1  C   UNL     1       5.115   5.490  16.868  0.00  0.00    +0.000 A 
ATOM      2  N   UNL     1       5.222   4.374  17.621  0.00  0.00    +0.000 NA
ATOM      3  C   UNL     1       4.461   4.322  18.727  0.00  0.00    +0.000 A 
ATOM      4  C   UNL     1       3.609   5.347  19.068  0.00  0.00    +0.000 A 
ATOM      5  C   UNL     1       3.570   6.456  18.236  0.00  0.00    +0.000 A 
ATOM      6  N   UNL     1       4.313   6.540  17.119  0.00  0.00    +0.000 NA
ENDROOT
BRANCH   5   7
ATOM      7  C   UNL     1       2.639   7.559  18.516  0.00  0.00    +0.000 A 
ATOM      8  C   UNL     1       2.457   8.606  17.590  0.00  0.00    +0.000 A 
ATOM      9  C   UNL     1       1.698   9.727  17.902  0.00  0.00    +0.000 A 
ATOM     10  C   UNL     1       1.082   9.813  19.144  0.00  0.00    +0.000 A 
ATOM     11  C   UNL     1       1.216   8.780  20.083  0.00  0.00    +0.000 A 
ATOM     12  C   UNL     1       1.982   7.652  19.753  0.00  0.00    +0.000 A 
BRANCH  11  13
ATOM     13  C   UNL     1       0.576   8.896  21.444  0.00  0.00    +0.000 C 
ATOM     14  F   UNL     1      -0.458   8.027  21.624  0.00  0.00    +0.000 F 
ATOM     15  F   UNL     1       1.450   8.652  22.459  0.00  0.00    +0.000 F 
ATOM     16  F   UNL     1       0.063  10.136  21.676  0.00  0.00    +0.000 F 
ENDBRANCH  11  13
ENDBRANCH   5   7
BRANCH   1  18
ATOM     17  N   UNL     1       6.589   5.612  14.731  0.00  0.00    +0.000 NA
ATOM     18  C   UNL     1       5.932   5.557  15.682  0.00  0.00    +0.000 C 
ENDBRANCH   1  18
BRANCH   3  19
ATOM     19  C   UNL     1       4.539   3.079  19.573  0.00  0.00    +0.000 C 
BRANCH  19  20
ATOM     20  C   UNL     1       3.991   1.827  18.885  0.00  0.00    +0.000 C 
BRANCH  20  21
ATOM     21  C   UNL     1       2.711   2.084  18.092  0.00  0.00    +0.000 C 
BRANCH  21  22
ATOM     22  N   UNL     1       1.598   1.462  18.817  0.00  0.00    +0.000 NA
ATOM     23  H   UNL     1       1.952   1.091  19.701  0.00  0.00    +0.000 HD
BRANCH  22  24
ATOM     24  C   UNL     1       0.581   2.488  19.140  0.00  0.00    +0.000 C 
BRANCH  24  25
ATOM     25  C   UNL     1       0.948   3.255  20.413  0.00  0.00    +0.000 C 
ATOM     26  N   UNL     1       1.400   2.508  21.464  0.00  0.00    +0.000 N 
ATOM     27  O   UNL     1       0.867   4.477  20.501  0.00  0.00    +0.000 OA
ATOM     28  H   UNL     1       1.173   1.520  21.474  0.00  0.00    +0.000 HD
ATOM     29  H   UNL     1       1.524   2.990  22.343  0.00  0.00    +0.000 HD
ENDBRANCH  24  25
ENDBRANCH  22  24
ENDBRANCH  21  22
ENDBRANCH  20  21
ENDBRANCH  19  20
ENDBRANCH   3  19
TORSDOF 9
ENDMDL
MODEL 6
REMARK VINA RESULT:      -7.9      4.346      6.276
REMARK  Name = 
REMARK  9 active torsions:
REMARK  status: ('A' for Active; 'I' for Inactive)
REMARK    1  A    between atoms: C_2  and  C_3
REMARK    2  A    between atoms: C_5  and  C_6
REMARK    3  A    between atoms: C_6  and  C_7
REMARK    4  A    between atoms: C_7  and  C_8
REMARK    5  A    between atoms: C_8  and  N_9
REMARK    6  A    between atoms: N_9  and  C_10
REMARK    7  A    between atoms: C_10  and  C_11
REMARK    8  A    between atoms: C_15  and  C_16
REMARK    9  A    between atoms: C_20  and  C_21
REMARK                            x       y       z     vdW  Elec       q    Type
REMARK                         _______ _______ _______ _____ _____    ______ ____
ROOT
ATOM      1  C   UNL     1       3.170   5.193  19.185  0.00  0.00    +0.000 A 
ATOM      2  N   UNL     1       3.979   5.215  18.105  0.00  0.00    +0.000 NA
ATOM      3  C   UNL     1       4.006   6.359  17.399  0.00  0.00    +0.000 A 
ATOM      4  C   UNL     1       3.258   7.452  17.766  0.00  0.00    +0.000 A 
ATOM      5  C   UNL     1       2.452   7.335  18.888  0.00  0.00    +0.000 A 
ATOM      6  N   UNL     1       2.404   6.208  19.620  0.00  0.00    +0.000 NA
ENDROOT
BRANCH   5   7
ATOM      7  C   UNL     1       1.671   8.487  19.364  0.00  0.00    +0.000 A 
ATOM      8  C   UNL     1       1.542   9.649  18.576  0.00  0.00    +0.000 A 
ATOM      9  C   UNL     1       0.936  10.797  19.071  0.00  0.00    +0.000 A 
ATOM     10  C   UNL     1       0.422  10.798  20.362  0.00  0.00    +0.000 A 
ATOM     11  C   UNL     1       0.505   9.653  21.167  0.00  0.00    +0.000 A 
ATOM     12  C   UNL     1       1.116   8.500  20.653  0.00  0.00    +0.000 A 
BRANCH  11  13
ATOM     13  C   UNL     1      -0.020   9.672  22.580  0.00  0.00    +0.000 C 
ATOM     14  F   UNL     1      -0.961   8.714  22.813  0.00  0.00    +0.000 F 
ATOM     15  F   UNL     1       0.955   9.471  23.508  0.00  0.00    +0.000 F 
ATOM     16  F   UNL     1      -0.611  10.856  22.902  0.00  0.00    +0.000 F 
ENDBRANCH  11  13
ENDBRANCH   5   7
BRANCH   1  18
ATOM     17  N   UNL     1       3.099   2.984  20.553  0.00  0.00    +0.000 NA
ATOM     18  C   UNL     1       3.130   3.968  19.944  0.00  0.00    +0.000 C 
ENDBRANCH   1  18
BRANCH   3  19
ATOM     19  C   UNL     1       4.920   6.423  16.203  0.00  0.00    +0.000 C 
BRANCH  19  20
ATOM     20  C   UNL     1       5.237   5.057  15.593  0.00  0.00    +0.000 C 
BRANCH  20  21
ATOM     21  C   UNL     1       6.693   4.914  15.152  0.00  0.00    +0.000 C 
BRANCH  21  22
ATOM     22  N   UNL     1       7.533   5.597  16.141  0.00  0.00    +0.000 NA
ATOM     23  H   UNL     1       7.077   6.471  16.408  0.00  0.00    +0.000 HD
BRANCH  22  24
ATOM     24  C   UNL     1       7.643   4.763  17.359  0.00  0.00    +0.000 C 
BRANCH  24  25
ATOM     25  C   UNL     1       7.544   5.613  18.628  0.00  0.00    +0.000 C 
ATOM     26  N   UNL     1       6.729   5.137  19.617  0.00  0.00    +0.000 N 
ATOM     27  O   UNL     1       8.168   6.659  18.780  0.00  0.00    +0.000 OA
ATOM     28  H   UNL     1       6.015   4.465  19.357  0.00  0.00    +0.000 HD
ATOM     29  H   UNL     1       6.561   5.751  20.401  0.00  0.00    +0.000 HD
ENDBRANCH  24  25
ENDBRANCH  22  24
ENDBRANCH  21  22
ENDBRANCH  20  21
ENDBRANCH  19  20
ENDBRANCH   3  19
TORSDOF 9
ENDMDL
MODEL 7
REMARK VINA RESULT:      -7.8      1.609      2.339
REMARK  Name = 
REMARK  9 active torsions:
REMARK  status: ('A' for Active; 'I' for Inactive)
REMARK    1  A    between atoms: C_2  and  C_3
REMARK    2  A    between atoms: C_5  and  C_6
REMARK    3  A    between atoms: C_6  and  C_7
REMARK    4  A    between atoms: C_7  and  C_8
REMARK    5  A    between atoms: C_8  and  N_9
REMARK    6  A    between atoms: N_9  and  C_10
REMARK    7  A    between atoms: C_10  and  C_11
REMARK    8  A    between atoms: C_15  and  C_16
REMARK    9  A    between atoms: C_20  and  C_21
REMARK                            x       y       z     vdW  Elec       q    Type
REMARK                         _______ _______ _______ _____ _____    ______ ____
ROOT
ATOM      1  C   UNL     1       6.380   5.391  15.885  0.00  0.00    +0.000 A 
ATOM      2  N   UNL     1       7.362   6.148  16.418  0.00  0.00    +0.000 NA
ATOM      3  C   UNL     1       7.130   6.658  17.640  0.00  0.00    +0.000 A 
ATOM      4  C   UNL     1       5.957   6.412  18.315  0.00  0.00    +0.000 A 
ATOM      5  C   UNL     1       5.004   5.627  17.685  0.00  0.00    +0.000 A 
ATOM      6  N   UNL     1       5.204   5.096  16.467  0.00  0.00    +0.000 NA
ENDROOT
BRANCH   5   7
ATOM      7  C   UNL     1       3.753   5.282  18.379  0.00  0.00    +0.000 A 
ATOM      8  C   UNL     1       3.189   6.153  19.332  0.00  0.00    +0.000 A 
ATOM      9  C   UNL     1       2.095   5.776  20.102  0.00  0.00    +0.000 A 
ATOM     10  C   UNL     1       1.524   4.524  19.913  0.00  0.00    +0.000 A 
ATOM     11  C   UNL     1       2.038   3.639  18.954  0.00  0.00    +0.000 A 
ATOM     12  C   UNL     1       3.141   4.034  18.183  0.00  0.00    +0.000 A 
BRANCH  11  13
ATOM     13  C   UNL     1       1.438   2.266  18.781  0.00  0.00    +0.000 C 
ATOM     14  F   UNL     1       0.088   2.293  18.599  0.00  0.00    +0.000 F 
ATOM     15  F   UNL     1       1.947   1.601  17.709  0.00  0.00    +0.000 F 
ATOM     16  F   UNL     1       1.651   1.463  19.860  0.00  0.00    +0.000 F 
ENDBRANCH  11  13
ENDBRANCH   5   7
BRANCH   1  18
ATOM     17  N   UNL     1       6.809   4.408  13.518  0.00  0.00    +0.000 NA
ATOM     18  C   UNL     1       6.618   4.845  14.573  0.00  0.00    +0.000 C 
ENDBRANCH   1  18
BRANCH   3  19
ATOM     19  C   UNL     1       8.218   7.485  18.273  0.00  0.00    +0.000 C 
BRANCH  19  20
ATOM     20  C   UNL     1       8.157   8.970  17.910  0.00  0.00    +0.000 C 
BRANCH  20  21
ATOM     21  C   UNL     1       8.959   9.859  18.860  0.00  0.00    +0.000 C 
BRANCH  21  22
ATOM     22  N   UNL     1       9.488  10.986  18.085  0.00  0.00    +0.000 NA
ATOM     23  H   UNL     1       8.971  11.048  17.205  0.00  0.00    +0.000 HD
BRANCH  22  24
ATOM     24  C   UNL     1       9.258  12.248  18.824  0.00  0.00    +0.000 C 
BRANCH  24  25
ATOM     25  C   UNL     1       8.737  13.350  17.898  0.00  0.00    +0.000 C 
ATOM     26  N   UNL     1       7.739  12.997  17.034  0.00  0.00    +0.000 N 
ATOM     27  O   UNL     1       9.164  14.501  17.927  0.00  0.00    +0.000 OA
ATOM     28  H   UNL     1       7.625  12.013  16.822  0.00  0.00    +0.000 HD
ATOM     29  H   UNL     1       7.479  13.682  16.338  0.00  0.00    +0.000 HD
ENDBRANCH  24  25
ENDBRANCH  22  24
ENDBRANCH  21  22
ENDBRANCH  20  21
ENDBRANCH  19  20
ENDBRANCH   3  19
TORSDOF 9
ENDMDL
MODEL 8
REMARK VINA RESULT:      -7.8      5.460      8.333
REMARK  Name = 
REMARK  9 active torsions:
REMARK  status: ('A' for Active; 'I' for Inactive)
REMARK    1  A    between atoms: C_2  and  C_3
REMARK    2  A    between atoms: C_5  and  C_6
REMARK    3  A    between atoms: C_6  and  C_7
REMARK    4  A    between atoms: C_7  and  C_8
REMARK    5  A    between atoms: C_8  and  N_9
REMARK    6  A    between atoms: N_9  and  C_10
REMARK    7  A    between atoms: C_10  and  C_11
REMARK    8  A    between atoms: C_15  and  C_16
REMARK    9  A    between atoms: C_20  and  C_21
REMARK                            x       y       z     vdW  Elec       q    Type
REMARK                         _______ _______ _______ _____ _____    ______ ____
ROOT
ATOM      1  C   UNL     1       6.095   5.203  18.414  0.00  0.00    +0.000 A 
ATOM      2  N   UNL     1       4.798   5.312  18.770  0.00  0.00    +0.000 NA
ATOM      3  C   UNL     1       3.893   5.198  17.781  0.00  0.00    +0.000 A 
ATOM      4  C   UNL     1       4.270   4.971  16.479  0.00  0.00    +0.000 A 
ATOM      5  C   UNL     1       5.627   4.878  16.208  0.00  0.00    +0.000 A 
ATOM      6  N   UNL     1       6.559   4.982  17.171  0.00  0.00    +0.000 NA
ENDROOT
BRANCH   5   7
ATOM      7  C   UNL     1       6.092   4.580  14.844  0.00  0.00    +0.000 A 
ATOM      8  C   UNL     1       7.348   5.031  14.392  0.00  0.00    +0.000 A 
ATOM      9  C   UNL     1       7.736   4.888  13.065  0.00  0.00    +0.000 A 
ATOM     10  C   UNL     1       6.881   4.263  12.166  0.00  0.00    +0.000 A 
ATOM     11  C   UNL     1       5.635   3.776  12.583  0.00  0.00    +0.000 A 
ATOM     12  C   UNL     1       5.257   3.924  13.925  0.00  0.00    +0.000 A 
BRANCH  11  13
ATOM     13  C   UNL     1       4.695   3.133  11.593  0.00  0.00    +0.000 C 
ATOM     14  F   UNL     1       5.141   1.929  11.138  0.00  0.00    +0.000 F 
ATOM     15  F   UNL     1       3.459   2.903  12.114  0.00  0.00    +0.000 F 
ATOM     16  F   UNL     1       4.501   3.899  10.484  0.00  0.00    +0.000 F 
ENDBRANCH  11  13
ENDBRANCH   5   7
BRANCH   1  18
ATOM     17  N   UNL     1       7.858   5.431  20.309  0.00  0.00    +0.000 NA
ATOM     18  C   UNL     1       7.072   5.329  19.466  0.00  0.00    +0.000 C 
ENDBRANCH   1  18
BRANCH   3  19
ATOM     19  C   UNL     1       2.436   5.289  18.151  0.00  0.00    +0.000 C 
BRANCH  19  20
ATOM     20  C   UNL     1       1.623   4.051  17.771  0.00  0.00    +0.000 C 
BRANCH  20  21
ATOM     21  C   UNL     1       2.481   2.804  17.564  0.00  0.00    +0.000 C 
BRANCH  21  22
ATOM     22  N   UNL     1       2.156   1.850  18.629  0.00  0.00    +0.000 NA
ATOM     23  H   UNL     1       3.003   1.332  18.873  0.00  0.00    +0.000 HD
BRANCH  22  24
ATOM     24  C   UNL     1       1.720   2.585  19.838  0.00  0.00    +0.000 C 
BRANCH  24  25
ATOM     25  C   UNL     1       2.817   2.602  20.906  0.00  0.00    +0.000 C 
ATOM     26  N   UNL     1       4.106   2.567  20.454  0.00  0.00    +0.000 N 
ATOM     27  O   UNL     1       2.576   2.663  22.108  0.00  0.00    +0.000 OA
ATOM     28  H   UNL     1       4.269   2.218  19.516  0.00  0.00    +0.000 HD
ATOM     29  H   UNL     1       4.828   2.452  21.151  0.00  0.00    +0.000 HD
ENDBRANCH  24  25
ENDBRANCH  22  24
ENDBRANCH  21  22
ENDBRANCH  20  21
ENDBRANCH  19  20
ENDBRANCH   3  19
TORSDOF 9
ENDMDL
MODEL 9
REMARK VINA RESULT:      -7.8      4.251      6.363
REMARK  Name = 
REMARK  9 active torsions:
REMARK  status: ('A' for Active; 'I' for Inactive)
REMARK    1  A    between atoms: C_2  and  C_3
REMARK    2  A    between atoms: C_5  and  C_6
REMARK    3  A    between atoms: C_6  and  C_7
REMARK    4  A    between atoms: C_7  and  C_8
REMARK    5  A    between atoms: C_8  and  N_9
REMARK    6  A    between atoms: N_9  and  C_10
REMARK    7  A    between atoms: C_10  and  C_11
REMARK    8  A    between atoms: C_15  and  C_16
REMARK    9  A    between atoms: C_20  and  C_21
REMARK                            x       y       z     vdW  Elec       q    Type
REMARK                         _______ _______ _______ _____ _____    ______ ____
ROOT
ATOM      1  C   UNL     1       2.729   4.096  19.956  0.00  0.00    +0.000 A 
ATOM      2  N   UNL     1       3.451   3.579  18.940  0.00  0.00    +0.000 NA
ATOM      3  C   UNL     1       3.667   4.386  17.887  0.00  0.00    +0.000 A 
ATOM      4  C   UNL     1       3.187   5.674  17.852  0.00  0.00    +0.000 A 
ATOM      5  C   UNL     1       2.450   6.117  18.940  0.00  0.00    +0.000 A 
ATOM      6  N   UNL     1       2.219   5.339  20.012  0.00  0.00    +0.000 NA
ENDROOT
BRANCH   5   7
ATOM      7  C   UNL     1       1.958   7.502  18.988  0.00  0.00    +0.000 A 
ATOM      8  C   UNL     1       2.118   8.365  17.885  0.00  0.00    +0.000 A 
ATOM      9  C   UNL     1       1.794   9.714  17.967  0.00  0.00    +0.000 A 
ATOM     10  C   UNL     1       1.277  10.223  19.152  0.00  0.00    +0.000 A 
ATOM     11  C   UNL     1       1.077   9.391  20.262  0.00  0.00    +0.000 A 
ATOM     12  C   UNL     1       1.405   8.031  20.164  0.00  0.00    +0.000 A 
BRANCH  11  13
ATOM     13  C   UNL     1       0.552   9.957  21.558  0.00  0.00    +0.000 C 
ATOM     14  F   UNL     1       0.602  11.318  21.605  0.00  0.00    +0.000 F 
ATOM     15  F   UNL     1      -0.746   9.623  21.791  0.00  0.00    +0.000 F 
ATOM     16  F   UNL     1       1.255   9.523  22.641  0.00  0.00    +0.000 F 
ENDBRANCH  11  13
ENDBRANCH   5   7
BRANCH   1  18
ATOM     17  N   UNL     1       2.294   2.544  21.995  0.00  0.00    +0.000 NA
ATOM     18  C   UNL     1       2.487   3.236  21.087  0.00  0.00    +0.000 C 
ENDBRANCH   1  18
BRANCH   3  19
ATOM     19  C   UNL     1       4.493   3.847  16.748  0.00  0.00    +0.000 C 
BRANCH  19  20
ATOM     20  C   UNL     1       5.276   4.919  15.990  0.00  0.00    +0.000 C 
BRANCH  20  21
ATOM     21  C   UNL     1       6.673   4.464  15.568  0.00  0.00    +0.000 C 
BRANCH  21  22
ATOM     22  N   UNL     1       7.648   5.148  16.423  0.00  0.00    +0.000 NA
ATOM     23  H   UNL     1       7.392   6.136  16.484  0.00  0.00    +0.000 HD
BRANCH  22  24
ATOM     24  C   UNL     1       7.588   4.588  17.791  0.00  0.00    +0.000 C 
BRANCH  24  25
ATOM     25  C   UNL     1       7.674   5.691  18.850  0.00  0.00    +0.000 C 
ATOM     26  N   UNL     1       7.953   6.949  18.396  0.00  0.00    +0.000 N 
ATOM     27  O   UNL     1       7.486   5.483  20.045  0.00  0.00    +0.000 OA
ATOM     28  H   UNL     1       8.392   7.036  17.486  0.00  0.00    +0.000 HD
ATOM     29  H   UNL     1       8.134   7.654  19.096  0.00  0.00    +0.000 HD
ENDBRANCH  24  25
ENDBRANCH  22  24
ENDBRANCH  21  22
ENDBRANCH  20  21
ENDBRANCH  19  20
ENDBRANCH   3  19
TORSDOF 9
ENDMDL
