MODEL 1
REMARK VINA RESULT:      -7.0      0.000      0.000
REMARK  Name = 
REMARK  12 active torsions:
REMARK  status: ('A' for Active; 'I' for Inactive)
REMARK    1  A    between atoms: C_2  and  C_3
REMARK    2  A    between atoms: C_2  and  C_6
REMARK    3  A    between atoms: C_3  and  O_5
REMARK    4  A    between atoms: C_7  and  O_8
REMARK    5  A    between atoms: O_8  and  C_9
REMARK    6  A    between atoms: C_9  and  C_11
REMARK    7  A    between atoms: C_11  and  C_12
REMARK    8  A    between atoms: C_13  and  C_14
REMARK    9  A    between atoms: C_16  and  C_17
REMARK   10  A    between atoms: C_16  and  O_18
REMARK   11  A    between atoms: C_21  and  O_22
REMARK   12  A    between atoms: C_23  and  C_24
REMARK                            x       y       z     vdW  Elec       q    Type
REMARK                         _______ _______ _______ _____ _____    ______ ____
ROOT
ATOM      1  C   UNL     1       4.365   4.501  17.774  0.00  0.00    +0.000 C 
ATOM      2  C   UNL     1       4.981   4.979  19.127  0.00  0.00    +0.000 C 
ATOM      3  C   UNL     1       6.461   4.575  19.263  0.00  0.00    +0.000 C 
ATOM      4  C   UNL     1       7.338   5.145  18.131  0.00  0.00    +0.000 C 
ATOM      5  C   UNL     1       7.436   6.679  18.184  0.00  0.00    +0.000 C 
ATOM      6  C   UNL     1       6.808   4.596  16.788  0.00  0.00    +0.000 C 
ATOM      7  C   UNL     1       7.611   5.101  15.568  0.00  0.00    +0.000 C 
ATOM      8  C   UNL     1       7.167   4.416  14.268  0.00  0.00    +0.000 C 
ATOM      9  C   UNL     1       5.676   4.186  14.186  0.00  0.00    +0.000 C 
ATOM     10  C   UNL     1       5.091   3.802  12.856  0.00  0.00    +0.000 C 
ATOM     11  C   UNL     1       4.853   4.350  15.240  0.00  0.00    +0.000 C 
ATOM     12  C   UNL     1       5.304   4.914  16.573  0.00  0.00    +0.000 C 
ENDROOT
BRANCH   1  14
ATOM     13  C   UNL     1       2.545   6.278  17.581  0.00  0.00    +0.000 C 
ATOM     14  C   UNL     1       2.905   4.975  17.607  0.00  0.00    +0.000 C 
BRANCH  14  15
ATOM     15  C   UNL     1       1.756   4.039  17.356  0.00  0.00    +0.000 C 
ATOM     16  O   UNL     1       0.635   4.428  17.034  0.00  0.00    +0.000 OA
BRANCH  15  17
ATOM     17  O   UNL     1       2.010   2.731  17.493  0.00  0.00    +0.000 OA
ATOM     18  H   UNL     1       1.597   2.234  18.225  0.00  0.00    +0.000 HD
ENDBRANCH  15  17
ENDBRANCH  14  15
ENDBRANCH   1  14
BRANCH   4  19
ATOM     19  O   UNL     1       8.668   4.640  18.308  0.00  0.00    +0.000 OA
ATOM     20  H   UNL     1       9.195   5.304  18.786  0.00  0.00    +0.000 HD
ENDBRANCH   4  19
BRANCH   8  21
ATOM     21  O   UNL     1       7.591   5.221  13.173  0.00  0.00    +0.000 OA
ATOM     22  H   UNL     1       6.813   5.716  12.865  0.00  0.00    +0.000 HD
ENDBRANCH   8  21
BRANCH   2  23
ATOM     23  O   UNL     1       4.215   4.623  20.338  0.00  0.00    +0.000 OA
BRANCH  23  24
ATOM     24  C   UNL     1       3.523   3.462  20.429  0.00  0.00    +0.000 C 
ATOM     25  O   UNL     1       3.920   2.405  19.958  0.00  0.00    +0.000 OA
BRANCH  24  26
ATOM     26  C   UNL     1       2.144   3.633  20.998  0.00  0.00    +0.000 C 
ATOM     27  C   UNL     1       1.479   2.404  21.582  0.00  0.00    +0.000 C 
ATOM     28  C   UNL     1       1.455   4.781  21.052  0.00  0.00    +0.000 C 
ATOM     29  C   UNL     1       1.828   6.166  20.655  0.00  0.00    +0.000 C 
ENDBRANCH  24  26
ENDBRANCH  23  24
ENDBRANCH   2  23
TORSDOF 8
ENDMDL
MODEL 2
REMARK VINA RESULT:      -6.9      1.293      1.751
REMARK  Name = 
REMARK  12 active torsions:
REMARK  status: ('A' for Active; 'I' for Inactive)
REMARK    1  A    between atoms: C_2  and  C_3
REMARK    2  A    between atoms: C_2  and  C_6
REMARK    3  A    between atoms: C_3  and  O_5
REMARK    4  A    between atoms: C_7  and  O_8
REMARK    5  A    between atoms: O_8  and  C_9
REMARK    6  A    between atoms: C_9  and  C_11
REMARK    7  A    between atoms: C_11  and  C_12
REMARK    8  A    between atoms: C_13  and  C_14
REMARK    9  A    between atoms: C_16  and  C_17
REMARK   10  A    between atoms: C_16  and  O_18
REMARK   11  A    between atoms: C_21  and  O_22
REMARK   12  A    between atoms: C_23  and  C_24
REMARK                            x       y       z     vdW  Elec       q    Type
REMARK                         _______ _______ _______ _____ _____    ______ ____
ROOT
ATOM      1  C   UNL     1       4.404   4.250  17.628  0.00  0.00    +0.000 C 
ATOM      2  C   UNL     1       5.079   4.546  19.006  0.00  0.00    +0.000 C 
ATOM      3  C   UNL     1       6.547   4.085  19.041  0.00  0.00    +0.000 C 
ATOM      4  C   UNL     1       7.408   4.757  17.953  0.00  0.00    +0.000 C 
ATOM      5  C   UNL     1       7.560   6.270  18.181  0.00  0.00    +0.000 C 
ATOM      6  C   UNL     1       6.817   4.386  16.575  0.00  0.00    +0.000 C 
ATOM      7  C   UNL     1       7.597   5.006  15.394  0.00  0.00    +0.000 C 
ATOM      8  C   UNL     1       7.090   4.492  14.040  0.00  0.00    +0.000 C 
ATOM      9  C   UNL     1       5.590   4.319  13.984  0.00  0.00    +0.000 C 
ATOM     10  C   UNL     1       4.950   4.112  12.640  0.00  0.00    +0.000 C 
ATOM     11  C   UNL     1       4.807   4.383  15.079  0.00  0.00    +0.000 C 
ATOM     12  C   UNL     1       5.319   4.773  16.452  0.00  0.00    +0.000 C 
ENDROOT
BRANCH   1  14
ATOM     13  C   UNL     1       1.930   4.094  17.024  0.00  0.00    +0.000 C 
ATOM     14  C   UNL     1       2.957   4.785  17.570  0.00  0.00    +0.000 C 
BRANCH  14  15
ATOM     15  C   UNL     1       2.529   6.080  18.201  0.00  0.00    +0.000 C 
ATOM     16  O   UNL     1       2.553   7.154  17.604  0.00  0.00    +0.000 OA
BRANCH  15  17
ATOM     17  O   UNL     1       2.102   6.014  19.469  0.00  0.00    +0.000 OA
ATOM     18  H   UNL     1       2.684   6.322  20.190  0.00  0.00    +0.000 HD
ENDBRANCH  15  17
ENDBRANCH  14  15
ENDBRANCH   1  14
BRANCH   4  19
ATOM     19  O   UNL     1       8.724   4.194  18.023  0.00  0.00    +0.000 OA
ATOM     20  H   UNL     1       8.662   3.296  18.394  0.00  0.00    +0.000 HD
ENDBRANCH   4  19
BRANCH   8  21
ATOM     21  O   UNL     1       7.506   5.408  13.031  0.00  0.00    +0.000 OA
ATOM     22  H   UNL     1       8.472   5.329  12.956  0.00  0.00    +0.000 HD
ENDBRANCH   8  21
BRANCH   2  23
ATOM     23  O   UNL     1       4.339   4.074  20.193  0.00  0.00    +0.000 OA
BRANCH  23  24
ATOM     24  C   UNL     1       4.202   2.756  20.470  0.00  0.00    +0.000 C 
ATOM     25  O   UNL     1       5.016   2.119  21.125  0.00  0.00    +0.000 OA
BRANCH  24  26
ATOM     26  C   UNL     1       3.056   2.110  19.745  0.00  0.00    +0.000 C 
ATOM     27  C   UNL     1       3.398   1.178  18.601  0.00  0.00    +0.000 C 
ATOM     28  C   UNL     1       1.757   2.270  20.032  0.00  0.00    +0.000 C 
ATOM     29  C   UNL     1       1.081   3.030  21.118  0.00  0.00    +0.000 C 
ENDBRANCH  24  26
ENDBRANCH  23  24
ENDBRANCH   2  23
TORSDOF 8
ENDMDL
MODEL 3
REMARK VINA RESULT:      -6.8      1.311      1.899
REMARK  Name = 
REMARK  12 active torsions:
REMARK  status: ('A' for Active; 'I' for Inactive)
REMARK    1  A    between atoms: C_2  and  C_3
REMARK    2  A    between atoms: C_2  and  C_6
REMARK    3  A    between atoms: C_3  and  O_5
REMARK    4  A    between atoms: C_7  and  O_8
REMARK    5  A    between atoms: O_8  and  C_9
REMARK    6  A    between atoms: C_9  and  C_11
REMARK    7  A    between atoms: C_11  and  C_12
REMARK    8  A    between atoms: C_13  and  C_14
REMARK    9  A    between atoms: C_16  and  C_17
REMARK   10  A    between atoms: C_16  and  O_18
REMARK   11  A    between atoms: C_21  and  O_22
REMARK   12  A    between atoms: C_23  and  C_24
REMARK                            x       y       z     vdW  Elec       q    Type
REMARK                         _______ _______ _______ _____ _____    ______ ____
ROOT
ATOM      1  C   UNL     1       4.346   4.556  17.762  0.00  0.00    +0.000 C 
ATOM      2  C   UNL     1       5.049   4.840  19.128  0.00  0.00    +0.000 C 
ATOM      3  C   UNL     1       6.473   4.259  19.176  0.00  0.00    +0.000 C 
ATOM      4  C   UNL     1       7.382   4.821  18.064  0.00  0.00    +0.000 C 
ATOM      5  C   UNL     1       7.661   6.322  18.242  0.00  0.00    +0.000 C 
ATOM      6  C   UNL     1       6.756   4.455  16.700  0.00  0.00    +0.000 C 
ATOM      7  C   UNL     1       7.580   4.969  15.498  0.00  0.00    +0.000 C 
ATOM      8  C   UNL     1       7.026   4.455  14.162  0.00  0.00    +0.000 C 
ATOM      9  C   UNL     1       5.516   4.406  14.115  0.00  0.00    +0.000 C 
ATOM     10  C   UNL     1       4.855   4.209  12.780  0.00  0.00    +0.000 C 
ATOM     11  C   UNL     1       4.746   4.571  15.209  0.00  0.00    +0.000 C 
ATOM     12  C   UNL     1       5.295   4.962  16.567  0.00  0.00    +0.000 C 
ENDROOT
BRANCH   1  14
ATOM     13  C   UNL     1       1.849   4.562  17.235  0.00  0.00    +0.000 C 
ATOM     14  C   UNL     1       2.947   5.208  17.688  0.00  0.00    +0.000 C 
BRANCH  14  15
ATOM     15  C   UNL     1       2.651   6.588  18.205  0.00  0.00    +0.000 C 
ATOM     16  O   UNL     1       2.779   7.600  17.519  0.00  0.00    +0.000 OA
BRANCH  15  17
ATOM     17  O   UNL     1       2.225   6.672  19.472  0.00  0.00    +0.000 OA
ATOM     18  H   UNL     1       1.925   5.867  19.935  0.00  0.00    +0.000 HD
ENDBRANCH  15  17
ENDBRANCH  14  15
ENDBRANCH   1  14
BRANCH   4  19
ATOM     19  O   UNL     1       8.647   4.152  18.151  0.00  0.00    +0.000 OA
ATOM     20  H   UNL     1       9.329   4.801  18.397  0.00  0.00    +0.000 HD
ENDBRANCH   4  19
BRANCH   8  21
ATOM     21  O   UNL     1       7.513   5.299  13.124  0.00  0.00    +0.000 OA
ATOM     22  H   UNL     1       8.470   5.144  13.055  0.00  0.00    +0.000 HD
ENDBRANCH   8  21
BRANCH   2  23
ATOM     23  O   UNL     1       4.278   4.471  20.331  0.00  0.00    +0.000 OA
BRANCH  23  24
ATOM     24  C   UNL     1       4.015   3.179  20.641  0.00  0.00    +0.000 C 
ATOM     25  O   UNL     1       4.875   2.384  20.994  0.00  0.00    +0.000 OA
BRANCH  24  26
ATOM     26  C   UNL     1       2.603   2.767  20.333  0.00  0.00    +0.000 C 
ATOM     27  C   UNL     1       1.513   3.306  21.236  0.00  0.00    +0.000 C 
ATOM     28  C   UNL     1       2.219   1.980  19.319  0.00  0.00    +0.000 C 
ATOM     29  C   UNL     1       2.999   1.357  18.215  0.00  0.00    +0.000 C 
ENDBRANCH  24  26
ENDBRANCH  23  24
ENDBRANCH   2  23
TORSDOF 8
ENDMDL
MODEL 4
REMARK VINA RESULT:      -6.5      7.507     10.627
REMARK  Name = 
REMARK  12 active torsions:
REMARK  status: ('A' for Active; 'I' for Inactive)
REMARK    1  A    between atoms: C_2  and  C_3
REMARK    2  A    between atoms: C_2  and  C_6
REMARK    3  A    between atoms: C_3  and  O_5
REMARK    4  A    between atoms: C_7  and  O_8
REMARK    5  A    between atoms: O_8  and  C_9
REMARK    6  A    between atoms: C_9  and  C_11
REMARK    7  A    between atoms: C_11  and  C_12
REMARK    8  A    between atoms: C_13  and  C_14
REMARK    9  A    between atoms: C_16  and  C_17
REMARK   10  A    between atoms: C_16  and  O_18
REMARK   11  A    between atoms: C_21  and  O_22
REMARK   12  A    between atoms: C_23  and  C_24
REMARK                            x       y       z     vdW  Elec       q    Type
REMARK                         _______ _______ _______ _____ _____    ______ ____
ROOT
ATOM      1  C   UNL     1       0.098  11.354  19.358  0.00  0.00    +0.000 C 
ATOM      2  C   UNL     1       0.300  12.196  20.658  0.00  0.00    +0.000 C 
ATOM      3  C   UNL     1      -0.572  13.465  20.665  0.00  0.00    +0.000 C 
ATOM      4  C   UNL     1      -2.077  13.153  20.548  0.00  0.00    +0.000 C 
ATOM      5  C   UNL     1      -2.616  12.408  21.781  0.00  0.00    +0.000 C 
ATOM      6  C   UNL     1      -2.312  12.412  19.214  0.00  0.00    +0.000 C 
ATOM      7  C   UNL     1      -3.794  12.041  18.980  0.00  0.00    +0.000 C 
ATOM      8  C   UNL     1      -4.023  11.453  17.581  0.00  0.00    +0.000 C 
ATOM      9  C   UNL     1      -2.904  10.550  17.116  0.00  0.00    +0.000 C 
ATOM     10  C   UNL     1      -3.145   9.689  15.908  0.00  0.00    +0.000 C 
ATOM     11  C   UNL     1      -1.725  10.457  17.761  0.00  0.00    +0.000 C 
ATOM     12  C   UNL     1      -1.442  11.133  19.088  0.00  0.00    +0.000 C 
ENDROOT
BRANCH   1  14
ATOM     13  C   UNL     1       0.906   9.188  20.437  0.00  0.00    +0.000 C 
ATOM     14  C   UNL     1       0.913  10.043  19.390  0.00  0.00    +0.000 C 
BRANCH  14  15
ATOM     15  C   UNL     1       1.714   9.540  18.221  0.00  0.00    +0.000 C 
ATOM     16  O   UNL     1       2.026   8.359  18.084  0.00  0.00    +0.000 OA
BRANCH  15  17
ATOM     17  O   UNL     1       2.077  10.451  17.309  0.00  0.00    +0.000 OA
ATOM     18  H   UNL     1       2.764  11.108  17.530  0.00  0.00    +0.000 HD
ENDBRANCH  15  17
ENDBRANCH  14  15
ENDBRANCH   1  14
BRANCH   4  19
ATOM     19  O   UNL     1      -2.780  14.400  20.479  0.00  0.00    +0.000 OA
ATOM     20  H   UNL     1      -3.704  14.255  20.748  0.00  0.00    +0.000 HD
ENDBRANCH   4  19
BRANCH   8  21
ATOM     21  O   UNL     1      -5.250  10.731  17.596  0.00  0.00    +0.000 OA
ATOM     22  H   UNL     1      -5.683  10.922  18.445  0.00  0.00    +0.000 HD
ENDBRANCH   8  21
BRANCH   2  23
ATOM     23  O   UNL     1       1.701  12.505  21.007  0.00  0.00    +0.000 OA
BRANCH  23  24
ATOM     24  C   UNL     1       2.165  13.777  21.034  0.00  0.00    +0.000 C 
ATOM     25  O   UNL     1       2.264  14.434  22.061  0.00  0.00    +0.000 OA
BRANCH  24  26
ATOM     26  C   UNL     1       2.372  14.366  19.668  0.00  0.00    +0.000 C 
ATOM     27  C   UNL     1       3.067  13.500  18.639  0.00  0.00    +0.000 C 
ATOM     28  C   UNL     1       1.979  15.584  19.272  0.00  0.00    +0.000 C 
ATOM     29  C   UNL     1       1.213  16.645  19.983  0.00  0.00    +0.000 C 
ENDBRANCH  24  26
ENDBRANCH  23  24
ENDBRANCH   2  23
TORSDOF 8
ENDMDL
MODEL 5
REMARK VINA RESULT:      -6.5      7.572     10.679
REMARK  Name = 
REMARK  12 active torsions:
REMARK  status: ('A' for Active; 'I' for Inactive)
REMARK    1  A    between atoms: C_2  and  C_3
REMARK    2  A    between atoms: C_2  and  C_6
REMARK    3  A    between atoms: C_3  and  O_5
REMARK    4  A    between atoms: C_7  and  O_8
REMARK    5  A    between atoms: O_8  and  C_9
REMARK    6  A    between atoms: C_9  and  C_11
REMARK    7  A    between atoms: C_11  and  C_12
REMARK    8  A    between atoms: C_13  and  C_14
REMARK    9  A    between atoms: C_16  and  C_17
REMARK   10  A    between atoms: C_16  and  O_18
REMARK   11  A    between atoms: C_21  and  O_22
REMARK   12  A    between atoms: C_23  and  C_24
REMARK                            x       y       z     vdW  Elec       q    Type
REMARK                         _______ _______ _______ _____ _____    ______ ____
ROOT
ATOM      1  C   UNL     1       0.015  11.427  19.311  0.00  0.00    +0.000 C 
ATOM      2  C   UNL     1       0.252  12.271  20.604  0.00  0.00    +0.000 C 
ATOM      3  C   UNL     1      -0.633  13.530  20.642  0.00  0.00    +0.000 C 
ATOM      4  C   UNL     1      -2.138  13.200  20.578  0.00  0.00    +0.000 C 
ATOM      5  C   UNL     1      -2.624  12.448  21.828  0.00  0.00    +0.000 C 
ATOM      6  C   UNL     1      -2.411  12.456  19.252  0.00  0.00    +0.000 C 
ATOM      7  C   UNL     1      -3.896  12.067  19.071  0.00  0.00    +0.000 C 
ATOM      8  C   UNL     1      -4.167  11.477  17.680  0.00  0.00    +0.000 C 
ATOM      9  C   UNL     1      -3.055  10.587  17.175  0.00  0.00    +0.000 C 
ATOM     10  C   UNL     1      -3.328   9.723  15.976  0.00  0.00    +0.000 C 
ATOM     11  C   UNL     1      -1.852  10.509  17.778  0.00  0.00    +0.000 C 
ATOM     12  C   UNL     1      -1.531  11.187  19.096  0.00  0.00    +0.000 C 
ENDROOT
BRANCH   1  14
ATOM     13  C   UNL     1       0.809   9.220  20.317  0.00  0.00    +0.000 C 
ATOM     14  C   UNL     1       0.846  10.126  19.313  0.00  0.00    +0.000 C 
BRANCH  14  15
ATOM     15  C   UNL     1       1.701   9.690  18.155  0.00  0.00    +0.000 C 
ATOM     16  O   UNL     1       1.914   8.509  17.890  0.00  0.00    +0.000 OA
BRANCH  15  17
ATOM     17  O   UNL     1       2.228  10.664  17.402  0.00  0.00    +0.000 OA
ATOM     18  H   UNL     1       2.053  10.679  16.441  0.00  0.00    +0.000 HD
ENDBRANCH  15  17
ENDBRANCH  14  15
ENDBRANCH   1  14
BRANCH   4  19
ATOM     19  O   UNL     1      -2.858  14.438  20.534  0.00  0.00    +0.000 OA
ATOM     20  H   UNL     1      -3.702  14.295  20.070  0.00  0.00    +0.000 HD
ENDBRANCH   4  19
BRANCH   8  21
ATOM     21  O   UNL     1      -5.384  10.740  17.739  0.00  0.00    +0.000 OA
ATOM     22  H   UNL     1      -5.303  10.005  17.108  0.00  0.00    +0.000 HD
ENDBRANCH   8  21
BRANCH   2  23
ATOM     23  O   UNL     1       1.661  12.597  20.902  0.00  0.00    +0.000 OA
BRANCH  23  24
ATOM     24  C   UNL     1       2.385  13.423  20.111  0.00  0.00    +0.000 C 
ATOM     25  O   UNL     1       2.812  13.098  19.012  0.00  0.00    +0.000 OA
BRANCH  24  26
ATOM     26  C   UNL     1       2.773  14.708  20.787  0.00  0.00    +0.000 C 
ATOM     27  C   UNL     1       3.762  14.618  21.930  0.00  0.00    +0.000 C 
ATOM     28  C   UNL     1       2.335  15.930  20.457  0.00  0.00    +0.000 C 
ATOM     29  C   UNL     1       1.441  16.386  19.357  0.00  0.00    +0.000 C 
ENDBRANCH  24  26
ENDBRANCH  23  24
ENDBRANCH   2  23
TORSDOF 8
ENDMDL
MODEL 6
REMARK VINA RESULT:      -6.4      7.493     10.628
REMARK  Name = 
REMARK  12 active torsions:
REMARK  status: ('A' for Active; 'I' for Inactive)
REMARK    1  A    between atoms: C_2  and  C_3
REMARK    2  A    between atoms: C_2  and  C_6
REMARK    3  A    between atoms: C_3  and  O_5
REMARK    4  A    between atoms: C_7  and  O_8
REMARK    5  A    between atoms: O_8  and  C_9
REMARK    6  A    between atoms: C_9  and  C_11
REMARK    7  A    between atoms: C_11  and  C_12
REMARK    8  A    between atoms: C_13  and  C_14
REMARK    9  A    between atoms: C_16  and  C_17
REMARK   10  A    between atoms: C_16  and  O_18
REMARK   11  A    between atoms: C_21  and  O_22
REMARK   12  A    between atoms: C_23  and  C_24
REMARK                            x       y       z     vdW  Elec       q    Type
REMARK                         _______ _______ _______ _____ _____    ______ ____
ROOT
ATOM      1  C   UNL     1       0.078  11.468  19.355  0.00  0.00    +0.000 C 
ATOM      2  C   UNL     1       0.271  12.287  20.671  0.00  0.00    +0.000 C 
ATOM      3  C   UNL     1      -0.638  13.528  20.717  0.00  0.00    +0.000 C 
ATOM      4  C   UNL     1      -2.135  13.173  20.611  0.00  0.00    +0.000 C 
ATOM      5  C   UNL     1      -2.636  12.385  21.832  0.00  0.00    +0.000 C 
ATOM      6  C   UNL     1      -2.364  12.455  19.262  0.00  0.00    +0.000 C 
ATOM      7  C   UNL     1      -3.836  12.044  19.037  0.00  0.00    +0.000 C 
ATOM      8  C   UNL     1      -4.065  11.481  17.628  0.00  0.00    +0.000 C 
ATOM      9  C   UNL     1      -2.925  10.623  17.129  0.00  0.00    +0.000 C 
ATOM     10  C   UNL     1      -3.155   9.782  15.905  0.00  0.00    +0.000 C 
ATOM     11  C   UNL     1      -1.736  10.552  17.758  0.00  0.00    +0.000 C 
ATOM     12  C   UNL     1      -1.457  11.206  19.098  0.00  0.00    +0.000 C 
ENDROOT
BRANCH   1  14
ATOM     13  C   UNL     1       0.894   9.257  20.332  0.00  0.00    +0.000 C 
ATOM     14  C   UNL     1       0.934  10.182  19.347  0.00  0.00    +0.000 C 
BRANCH  14  15
ATOM     15  C   UNL     1       1.817   9.785  18.197  0.00  0.00    +0.000 C 
ATOM     16  O   UNL     1       2.113   8.616  17.956  0.00  0.00    +0.000 OA
BRANCH  15  17
ATOM     17  O   UNL     1       2.274  10.778  17.423  0.00  0.00    +0.000 OA
ATOM     18  H   UNL     1       2.388  11.671  17.802  0.00  0.00    +0.000 HD
ENDBRANCH  15  17
ENDBRANCH  14  15
ENDBRANCH   1  14
BRANCH   4  19
ATOM     19  O   UNL     1      -2.877  14.400  20.577  0.00  0.00    +0.000 OA
ATOM     20  H   UNL     1      -2.811  14.782  19.685  0.00  0.00    +0.000 HD
ENDBRANCH   4  19
BRANCH   8  21
ATOM     21  O   UNL     1      -5.269  10.722  17.641  0.00  0.00    +0.000 OA
ATOM     22  H   UNL     1      -5.214  10.086  16.908  0.00  0.00    +0.000 HD
ENDBRANCH   8  21
BRANCH   2  23
ATOM     23  O   UNL     1       1.666  12.631  21.010  0.00  0.00    +0.000 OA
BRANCH  23  24
ATOM     24  C   UNL     1       2.388  13.500  20.264  0.00  0.00    +0.000 C 
ATOM     25  O   UNL     1       2.804  13.240  19.144  0.00  0.00    +0.000 OA
BRANCH  24  26
ATOM     26  C   UNL     1       2.786  14.740  21.013  0.00  0.00    +0.000 C 
ATOM     27  C   UNL     1       1.896  15.956  20.861  0.00  0.00    +0.000 C 
ATOM     28  C   UNL     1       3.850  14.862  21.818  0.00  0.00    +0.000 C 
ATOM     29  C   UNL     1       4.869  13.867  22.251  0.00  0.00    +0.000 C 
ENDBRANCH  24  26
ENDBRANCH  23  24
ENDBRANCH   2  23
TORSDOF 8
ENDMDL
MODEL 7
REMARK VINA RESULT:      -6.3      8.866     12.161
REMARK  Name = 
REMARK  12 active torsions:
REMARK  status: ('A' for Active; 'I' for Inactive)
REMARK    1  A    between atoms: C_2  and  C_3
REMARK    2  A    between atoms: C_2  and  C_6
REMARK    3  A    between atoms: C_3  and  O_5
REMARK    4  A    between atoms: C_7  and  O_8
REMARK    5  A    between atoms: O_8  and  C_9
REMARK    6  A    between atoms: C_9  and  C_11
REMARK    7  A    between atoms: C_11  and  C_12
REMARK    8  A    between atoms: C_13  and  C_14
REMARK    9  A    between atoms: C_16  and  C_17
REMARK   10  A    between atoms: C_16  and  O_18
REMARK   11  A    between atoms: C_21  and  O_22
REMARK   12  A    between atoms: C_23  and  C_24
REMARK                            x       y       z     vdW  Elec       q    Type
REMARK                         _______ _______ _______ _____ _____    ______ ____
ROOT
ATOM      1  C   UNL     1       0.437  13.230  19.865  0.00  0.00    +0.000 C 
ATOM      2  C   UNL     1      -0.383  14.550  20.025  0.00  0.00    +0.000 C 
ATOM      3  C   UNL     1      -1.826  14.281  20.489  0.00  0.00    +0.000 C 
ATOM      4  C   UNL     1      -1.887  13.534  21.836  0.00  0.00    +0.000 C 
ATOM      5  C   UNL     1      -1.348  14.384  22.999  0.00  0.00    +0.000 C 
ATOM      6  C   UNL     1      -1.172  12.176  21.667  0.00  0.00    +0.000 C 
ATOM      7  C   UNL     1      -1.165  11.329  22.959  0.00  0.00    +0.000 C 
ATOM      8  C   UNL     1      -0.594   9.925  22.721  0.00  0.00    +0.000 C 
ATOM      9  C   UNL     1       0.574   9.903  21.762  0.00  0.00    +0.000 C 
ATOM     10  C   UNL     1       1.399   8.650  21.679  0.00  0.00    +0.000 C 
ATOM     11  C   UNL     1       0.926  10.969  21.017  0.00  0.00    +0.000 C 
ATOM     12  C   UNL     1       0.286  12.337  21.157  0.00  0.00    +0.000 C 
ENDROOT
BRANCH   1  14
ATOM     13  C   UNL     1       2.778  14.156  20.280  0.00  0.00    +0.000 C 
ATOM     14  C   UNL     1       1.906  13.509  19.475  0.00  0.00    +0.000 C 
BRANCH  14  15
ATOM     15  C   UNL     1       2.535  13.000  18.208  0.00  0.00    +0.000 C 
ATOM     16  O   UNL     1       2.565  11.808  17.910  0.00  0.00    +0.000 OA
BRANCH  15  17
ATOM     17  O   UNL     1       3.068  13.921  17.394  0.00  0.00    +0.000 OA
ATOM     18  H   UNL     1       3.609  13.636  16.633  0.00  0.00    +0.000 HD
ENDBRANCH  15  17
ENDBRANCH  14  15
ENDBRANCH   1  14
BRANCH   4  19
ATOM     19  O   UNL     1      -3.264  13.263  22.126  0.00  0.00    +0.000 OA
ATOM     20  H   UNL     1      -3.524  12.441  21.675  0.00  0.00    +0.000 HD
ENDBRANCH   4  19
BRANCH   8  21
ATOM     21  O   UNL     1      -0.195   9.386  23.978  0.00  0.00    +0.000 OA
ATOM     22  H   UNL     1       0.198  10.114  24.488  0.00  0.00    +0.000 HD
ENDBRANCH   8  21
BRANCH   2  23
ATOM     23  O   UNL     1      -0.354  15.464  18.865  0.00  0.00    +0.000 OA
BRANCH  23  24
ATOM     24  C   UNL     1      -0.537  16.798  19.003  0.00  0.00    +0.000 C 
ATOM     25  O   UNL     1      -1.635  17.313  19.160  0.00  0.00    +0.000 OA
BRANCH  24  26
ATOM     26  C   UNL     1       0.711  17.599  18.761  0.00  0.00    +0.000 C 
ATOM     27  C   UNL     1       1.745  17.621  19.867  0.00  0.00    +0.000 C 
ATOM     28  C   UNL     1       0.999  18.282  17.645  0.00  0.00    +0.000 C 
ATOM     29  C   UNL     1       0.264  18.408  16.357  0.00  0.00    +0.000 C 
ENDBRANCH  24  26
ENDBRANCH  23  24
ENDBRANCH   2  23
TORSDOF 8
ENDMDL
MODEL 8
REMARK VINA RESULT:      -6.3      9.649     12.329
REMARK  Name = 
REMARK  12 active torsions:
REMARK  status: ('A' for Active; 'I' for Inactive)
REMARK    1  A    between atoms: C_2  and  C_3
REMARK    2  A    between atoms: C_2  and  C_6
REMARK    3  A    between atoms: C_3  and  O_5
REMARK    4  A    between atoms: C_7  and  O_8
REMARK    5  A    between atoms: O_8  and  C_9
REMARK    6  A    between atoms: C_9  and  C_11
REMARK    7  A    between atoms: C_11  and  C_12
REMARK    8  A    between atoms: C_13  and  C_14
REMARK    9  A    between atoms: C_16  and  C_17
REMARK   10  A    between atoms: C_16  and  O_18
REMARK   11  A    between atoms: C_21  and  O_22
REMARK   12  A    between atoms: C_23  and  C_24
REMARK                            x       y       z     vdW  Elec       q    Type
REMARK                         _______ _______ _______ _____ _____    ______ ____
ROOT
ATOM      1  C   UNL     1      -3.920  12.970  21.253  0.00  0.00    +0.000 C 
ATOM      2  C   UNL     1      -3.446  13.446  22.664  0.00  0.00    +0.000 C 
ATOM      3  C   UNL     1      -2.474  12.446  23.315  0.00  0.00    +0.000 C 
ATOM      4  C   UNL     1      -1.211  12.205  22.462  0.00  0.00    +0.000 C 
ATOM      5  C   UNL     1      -0.330  13.461  22.357  0.00  0.00    +0.000 C 
ATOM      6  C   UNL     1      -1.654  11.632  21.098  0.00  0.00    +0.000 C 
ATOM      7  C   UNL     1      -0.470  11.348  20.147  0.00  0.00    +0.000 C 
ATOM      8  C   UNL     1      -0.922  10.631  18.867  0.00  0.00    +0.000 C 
ATOM      9  C   UNL     1      -2.252  11.120  18.341  0.00  0.00    +0.000 C 
ATOM     10  C   UNL     1      -2.655  10.714  16.951  0.00  0.00    +0.000 C 
ATOM     11  C   UNL     1      -3.063  11.930  19.048  0.00  0.00    +0.000 C 
ATOM     12  C   UNL     1      -2.676  12.551  20.376  0.00  0.00    +0.000 C 
ENDROOT
BRANCH   1  14
ATOM     13  C   UNL     1      -4.621  15.346  20.641  0.00  0.00    +0.000 C 
ATOM     14  C   UNL     1      -4.833  14.012  20.571  0.00  0.00    +0.000 C 
BRANCH  14  15
ATOM     15  C   UNL     1      -5.986  13.642  19.681  0.00  0.00    +0.000 C 
ATOM     16  O   UNL     1      -6.781  12.745  19.956  0.00  0.00    +0.000 OA
BRANCH  15  17
ATOM     17  O   UNL     1      -6.122  14.351  18.553  0.00  0.00    +0.000 OA
ATOM     18  H   UNL     1      -5.815  13.973  17.706  0.00  0.00    +0.000 HD
ENDBRANCH  15  17
ENDBRANCH  14  15
ENDBRANCH   1  14
BRANCH   4  19
ATOM     19  O   UNL     1      -0.424  11.201  23.117  0.00  0.00    +0.000 OA
ATOM     20  H   UNL     1       0.389  11.055  22.602  0.00  0.00    +0.000 HD
ENDBRANCH   4  19
BRANCH   8  21
ATOM     21  O   UNL     1       0.084  10.812  17.876  0.00  0.00    +0.000 OA
ATOM     22  H   UNL     1      -0.009  10.084  17.239  0.00  0.00    +0.000 HD
ENDBRANCH   8  21
BRANCH   2  23
ATOM     23  O   UNL     1      -4.520  13.835  23.599  0.00  0.00    +0.000 OA
BRANCH  23  24
ATOM     24  C   UNL     1      -5.444  12.946  24.034  0.00  0.00    +0.000 C 
ATOM     25  O   UNL     1      -5.160  11.929  24.651  0.00  0.00    +0.000 OA
BRANCH  24  26
ATOM     26  C   UNL     1      -6.830  13.231  23.529  0.00  0.00    +0.000 C 
ATOM     27  C   UNL     1      -7.709  12.040  23.210  0.00  0.00    +0.000 C 
ATOM     28  C   UNL     1      -7.366  14.446  23.354  0.00  0.00    +0.000 C 
ATOM     29  C   UNL     1      -6.828  15.804  23.640  0.00  0.00    +0.000 C 
ENDBRANCH  24  26
ENDBRANCH  23  24
ENDBRANCH   2  23
TORSDOF 8
ENDMDL
MODEL 9
REMARK VINA RESULT:      -6.3      7.969     11.378
REMARK  Name = 
REMARK  12 active torsions:
REMARK  status: ('A' for Active; 'I' for Inactive)
REMARK    1  A    between atoms: C_2  and  C_3
REMARK    2  A    between atoms: C_2  and  C_6
REMARK    3  A    between atoms: C_3  and  O_5
REMARK    4  A    between atoms: C_7  and  O_8
REMARK    5  A    between atoms: O_8  and  C_9
REMARK    6  A    between atoms: C_9  and  C_11
REMARK    7  A    between atoms: C_11  and  C_12
REMARK    8  A    between atoms: C_13  and  C_14
REMARK    9  A    between atoms: C_16  and  C_17
REMARK   10  A    between atoms: C_16  and  O_18
REMARK   11  A    between atoms: C_21  and  O_22
REMARK   12  A    between atoms: C_23  and  C_24
REMARK                            x       y       z     vdW  Elec       q    Type
REMARK                         _______ _______ _______ _____ _____    ______ ____
ROOT
ATOM      1  C   UNL     1      -2.413  11.553  19.634  0.00  0.00    +0.000 C 
ATOM      2  C   UNL     1      -3.347  12.704  20.127  0.00  0.00    +0.000 C 
ATOM      3  C   UNL     1      -3.879  12.446  21.549  0.00  0.00    +0.000 C 
ATOM      4  C   UNL     1      -2.750  12.293  22.587  0.00  0.00    +0.000 C 
ATOM      5  C   UNL     1      -1.962  13.597  22.790  0.00  0.00    +0.000 C 
ATOM      6  C   UNL     1      -1.876  11.089  22.172  0.00  0.00    +0.000 C 
ATOM      7  C   UNL     1      -0.700  10.831  23.142  0.00  0.00    +0.000 C 
ATOM      8  C   UNL     1       0.052   9.538  22.798  0.00  0.00    +0.000 C 
ATOM      9  C   UNL     1       0.193   9.299  21.313  0.00  0.00    +0.000 C 
ATOM     10  C   UNL     1       1.155   8.240  20.854  0.00  0.00    +0.000 C 
ATOM     11  C   UNL     1      -0.475  10.020  20.391  0.00  0.00    +0.000 C 
ATOM     12  C   UNL     1      -1.322  11.231  20.729  0.00  0.00    +0.000 C 
ENDROOT
BRANCH   1  14
ATOM     13  C   UNL     1      -0.875  12.795  18.021  0.00  0.00    +0.000 C 
ATOM     14  C   UNL     1      -1.818  11.852  18.240  0.00  0.00    +0.000 C 
BRANCH  14  15
ATOM     15  C   UNL     1      -2.157  11.057  17.010  0.00  0.00    +0.000 C 
ATOM     16  O   UNL     1      -1.758   9.908  16.827  0.00  0.00    +0.000 OA
BRANCH  15  17
ATOM     17  O   UNL     1      -2.935  11.661  16.103  0.00  0.00    +0.000 OA
ATOM     18  H   UNL     1      -2.581  12.412  15.589  0.00  0.00    +0.000 HD
ENDBRANCH  15  17
ENDBRANCH  14  15
ENDBRANCH   1  14
BRANCH   4  19
ATOM     19  O   UNL     1      -3.353  11.973  23.848  0.00  0.00    +0.000 OA
ATOM     20  H   UNL     1      -4.060  11.320  23.701  0.00  0.00    +0.000 HD
ENDBRANCH   4  19
BRANCH   8  21
ATOM     21  O   UNL     1       1.341   9.600  23.400  0.00  0.00    +0.000 OA
ATOM     22  H   UNL     1       1.910   8.975  22.920  0.00  0.00    +0.000 HD
ENDBRANCH   8  21
BRANCH   2  23
ATOM     23  O   UNL     1      -4.437  13.080  19.206  0.00  0.00    +0.000 OA
BRANCH  23  24
ATOM     24  C   UNL     1      -5.420  12.210  18.871  0.00  0.00    +0.000 C 
ATOM     25  O   UNL     1      -5.362  11.472  17.898  0.00  0.00    +0.000 OA
BRANCH  24  26
ATOM     26  C   UNL     1      -6.664  12.370  19.698  0.00  0.00    +0.000 C 
ATOM     27  C   UNL     1      -7.164  13.780  19.931  0.00  0.00    +0.000 C 
ATOM     28  C   UNL     1      -7.383  11.373  20.233  0.00  0.00    +0.000 C 
ATOM     29  C   UNL     1      -7.230   9.896  20.137  0.00  0.00    +0.000 C 
ENDBRANCH  24  26
ENDBRANCH  23  24
ENDBRANCH   2  23
TORSDOF 8
ENDMDL
