MODEL 1
REMARK VINA RESULT:      -7.2      0.000      0.000
REMARK  Name = 
REMARK  6 active torsions:
REMARK  status: ('A' for Active; 'I' for Inactive)
REMARK    1  A    between atoms: C_1  and  C_2
REMARK    2  A    between atoms: N_4  and  C_5
REMARK    3  A    between atoms: C_5  and  C_6
REMARK    4  A    between atoms: C_9  and  C_10
REMARK    5  A    between atoms: C_16  and  C_17
REMARK    6  A    between atoms: N_20  and  C_21
REMARK                            x       y       z     vdW  Elec       q    Type
REMARK                         _______ _______ _______ _____ _____    ______ ____
ROOT
ATOM      1  C   UNL     1       3.655   6.057  19.029  0.00  0.00    +0.000 C 
ATOM      2  O   UNL     1       4.801   6.140  19.467  0.00  0.00    +0.000 OA
ATOM      3  N   UNL     1       3.303   4.991  18.194  0.00  0.00    +0.000 N 
ATOM      4  C   UNL     1       1.989   4.639  17.691  0.00  0.00    +0.000 C 
ATOM      5  C   UNL     1       1.898   3.144  17.917  0.00  0.00    +0.000 C 
ATOM      6  C   UNL     1       3.318   2.660  17.680  0.00  0.00    +0.000 C 
ATOM      7  C   UNL     1       4.219   3.857  18.052  0.00  0.00    +0.000 C 
ENDROOT
BRANCH   7   8
ATOM      8  C   UNL     1       5.236   4.102  16.984  0.00  0.00    +0.000 A 
ATOM      9  C   UNL     1       6.608   4.399  17.177  0.00  0.00    +0.000 A 
ATOM     10  N   UNL     1       7.290   4.467  16.032  0.00  0.00    +0.000 NA
ATOM     11  N   UNL     1       6.354   4.249  15.094  0.00  0.00    +0.000 N 
ATOM     12  C   UNL     1       6.718   4.209  13.699  0.00  0.00    +0.000 C 
ATOM     13  C   UNL     1       5.110   4.025  15.608  0.00  0.00    +0.000 A 
ENDBRANCH   7   8
BRANCH   1  17
ATOM     14  C   UNL     1       1.150   9.013  19.454  0.00  0.00    +0.000 A 
ATOM     15  C   UNL     1       1.059   8.283  20.620  0.00  0.00    +0.000 A 
ATOM     16  C   UNL     1       1.848   7.096  20.580  0.00  0.00    +0.000 A 
ATOM     17  C   UNL     1       2.606   6.998  19.427  0.00  0.00    +0.000 A 
ATOM     18  S   UNL     1       2.179   8.247  18.322  0.00  0.00    +0.000 S 
BRANCH  14  19
ATOM     19  C   UNL     1       0.489  10.312  19.122  0.00  0.00    +0.000 C 
BRANCH  19  23
ATOM     20  C   UNL     1      -2.269  10.354  16.559  0.00  0.00    +0.000 C 
ATOM     21  C   UNL     1      -1.605  10.544  17.894  0.00  0.00    +0.000 C 
ATOM     22  O   UNL     1      -2.199  10.983  18.872  0.00  0.00    +0.000 OA
ATOM     23  N   UNL     1      -0.286  10.156  17.916  0.00  0.00    +0.000 N 
ATOM     24  H   UNL     1       0.198   9.983  17.043  0.00  0.00    +0.000 HD
ENDBRANCH  19  23
ENDBRANCH  14  19
ENDBRANCH   1  17
TORSDOF 4
ENDMDL
MODEL 2
REMARK VINA RESULT:      -7.2      1.544      1.945
REMARK  Name = 
REMARK  6 active torsions:
REMARK  status: ('A' for Active; 'I' for Inactive)
REMARK    1  A    between atoms: C_1  and  C_2
REMARK    2  A    between atoms: N_4  and  C_5
REMARK    3  A    between atoms: C_5  and  C_6
REMARK    4  A    between atoms: C_9  and  C_10
REMARK    5  A    between atoms: C_16  and  C_17
REMARK    6  A    between atoms: N_20  and  C_21
REMARK                            x       y       z     vdW  Elec       q    Type
REMARK                         _______ _______ _______ _____ _____    ______ ____
ROOT
ATOM      1  C   UNL     1       3.708   5.802  19.159  0.00  0.00    +0.000 C 
ATOM      2  O   UNL     1       4.855   5.886  19.593  0.00  0.00    +0.000 OA
ATOM      3  N   UNL     1       3.382   4.798  18.241  0.00  0.00    +0.000 N 
ATOM      4  C   UNL     1       2.075   4.445  17.719  0.00  0.00    +0.000 C 
ATOM      5  C   UNL     1       2.034   2.935  17.822  0.00  0.00    +0.000 C 
ATOM      6  C   UNL     1       3.467   2.519  17.535  0.00  0.00    +0.000 C 
ATOM      7  C   UNL     1       4.333   3.710  17.998  0.00  0.00    +0.000 C 
ENDROOT
BRANCH   7   8
ATOM      8  C   UNL     1       5.331   4.075  16.947  0.00  0.00    +0.000 A 
ATOM      9  C   UNL     1       6.684   4.438  17.157  0.00  0.00    +0.000 A 
ATOM     10  N   UNL     1       7.358   4.613  16.018  0.00  0.00    +0.000 NA
ATOM     11  N   UNL     1       6.432   4.398  15.069  0.00  0.00    +0.000 N 
ATOM     12  C   UNL     1       6.793   4.462  13.674  0.00  0.00    +0.000 C 
ATOM     13  C   UNL     1       5.205   4.073  15.569  0.00  0.00    +0.000 A 
ENDBRANCH   7   8
BRANCH   1  17
ATOM     14  C   UNL     1       1.162   8.660  19.898  0.00  0.00    +0.000 A 
ATOM     15  C   UNL     1       1.019   7.761  20.935  0.00  0.00    +0.000 A 
ATOM     16  C   UNL     1       1.818   6.594  20.755  0.00  0.00    +0.000 A 
ATOM     17  C   UNL     1       2.633   6.673  19.640  0.00  0.00    +0.000 A 
ATOM     18  S   UNL     1       2.253   8.074  18.717  0.00  0.00    +0.000 S 
BRANCH  14  19
ATOM     19  C   UNL     1       0.510   9.994  19.734  0.00  0.00    +0.000 C 
BRANCH  19  23
ATOM     20  C   UNL     1      -1.188  11.397  22.788  0.00  0.00    +0.000 C 
ATOM     21  C   UNL     1      -0.150  11.262  21.710  0.00  0.00    +0.000 C 
ATOM     22  O   UNL     1       0.827  12.000  21.635  0.00  0.00    +0.000 OA
ATOM     23  N   UNL     1      -0.387  10.224  20.840  0.00  0.00    +0.000 N 
ATOM     24  H   UNL     1      -1.294   9.775  20.835  0.00  0.00    +0.000 HD
ENDBRANCH  19  23
ENDBRANCH  14  19
ENDBRANCH   1  17
TORSDOF 4
ENDMDL
MODEL 3
REMARK VINA RESULT:      -7.0      3.723      7.581
REMARK  Name = 
REMARK  6 active torsions:
REMARK  status: ('A' for Active; 'I' for Inactive)
REMARK    1  A    between atoms: C_1  and  C_2
REMARK    2  A    between atoms: N_4  and  C_5
REMARK    3  A    between atoms: C_5  and  C_6
REMARK    4  A    between atoms: C_9  and  C_10
REMARK    5  A    between atoms: C_16  and  C_17
REMARK    6  A    between atoms: N_20  and  C_21
REMARK                            x       y       z     vdW  Elec       q    Type
REMARK                         _______ _______ _______ _____ _____    ______ ____
ROOT
ATOM      1  C   UNL     1       5.051   4.869  18.165  0.00  0.00    +0.000 C 
ATOM      2  O   UNL     1       5.512   4.256  19.125  0.00  0.00    +0.000 OA
ATOM      3  N   UNL     1       3.883   5.625  18.314  0.00  0.00    +0.000 N 
ATOM      4  C   UNL     1       3.262   6.519  17.357  0.00  0.00    +0.000 C 
ATOM      5  C   UNL     1       2.936   7.756  18.168  0.00  0.00    +0.000 C 
ATOM      6  C   UNL     1       2.570   7.202  19.534  0.00  0.00    +0.000 C 
ATOM      7  C   UNL     1       3.362   5.884  19.659  0.00  0.00    +0.000 C 
ENDROOT
BRANCH   7   8
ATOM      8  C   UNL     1       2.473   4.777  20.127  0.00  0.00    +0.000 A 
ATOM      9  C   UNL     1       1.552   4.043  19.339  0.00  0.00    +0.000 A 
ATOM     10  N   UNL     1       0.972   3.047  20.011  0.00  0.00    +0.000 NA
ATOM     11  N   UNL     1       1.489   3.157  21.246  0.00  0.00    +0.000 N 
ATOM     12  C   UNL     1       1.124   2.214  22.274  0.00  0.00    +0.000 C 
ATOM     13  C   UNL     1       2.391   4.173  21.369  0.00  0.00    +0.000 A 
ENDBRANCH   7   8
BRANCH   1  17
ATOM     14  C   UNL     1       6.450   4.286  14.573  0.00  0.00    +0.000 A 
ATOM     15  C   UNL     1       7.284   5.223  15.146  0.00  0.00    +0.000 A 
ATOM     16  C   UNL     1       6.842   5.624  16.440  0.00  0.00    +0.000 A 
ATOM     17  C   UNL     1       5.739   4.910  16.872  0.00  0.00    +0.000 A 
ATOM     18  S   UNL     1       5.136   3.914  15.604  0.00  0.00    +0.000 S 
BRANCH  14  19
ATOM     19  C   UNL     1       6.585   3.616  13.244  0.00  0.00    +0.000 C 
BRANCH  19  23
ATOM     20  C   UNL     1       3.651   3.090  10.943  0.00  0.00    +0.000 C 
ATOM     21  C   UNL     1       4.970   2.807  11.605  0.00  0.00    +0.000 C 
ATOM     22  O   UNL     1       5.644   1.817  11.343  0.00  0.00    +0.000 OA
ATOM     23  N   UNL     1       5.355   3.771  12.506  0.00  0.00    +0.000 N 
ATOM     24  H   UNL     1       4.680   4.458  12.820  0.00  0.00    +0.000 HD
ENDBRANCH  19  23
ENDBRANCH  14  19
ENDBRANCH   1  17
TORSDOF 4
ENDMDL
MODEL 4
REMARK VINA RESULT:      -6.9      1.429      1.719
REMARK  Name = 
REMARK  6 active torsions:
REMARK  status: ('A' for Active; 'I' for Inactive)
REMARK    1  A    between atoms: C_1  and  C_2
REMARK    2  A    between atoms: N_4  and  C_5
REMARK    3  A    between atoms: C_5  and  C_6
REMARK    4  A    between atoms: C_9  and  C_10
REMARK    5  A    between atoms: C_16  and  C_17
REMARK    6  A    between atoms: N_20  and  C_21
REMARK                            x       y       z     vdW  Elec       q    Type
REMARK                         _______ _______ _______ _____ _____    ______ ____
ROOT
ATOM      1  C   UNL     1       3.704   5.864  19.138  0.00  0.00    +0.000 C 
ATOM      2  O   UNL     1       4.854   5.953  19.564  0.00  0.00    +0.000 OA
ATOM      3  N   UNL     1       3.368   4.842  18.243  0.00  0.00    +0.000 N 
ATOM      4  C   UNL     1       2.056   4.484  17.738  0.00  0.00    +0.000 C 
ATOM      5  C   UNL     1       2.011   2.976  17.871  0.00  0.00    +0.000 C 
ATOM      6  C   UNL     1       3.440   2.549  17.585  0.00  0.00    +0.000 C 
ATOM      7  C   UNL     1       4.313   3.746  18.017  0.00  0.00    +0.000 C 
ENDROOT
BRANCH   7   8
ATOM      8  C   UNL     1       5.306   4.086  16.952  0.00  0.00    +0.000 A 
ATOM      9  C   UNL     1       6.657   4.463  17.147  0.00  0.00    +0.000 A 
ATOM     10  N   UNL     1       7.326   4.608  16.001  0.00  0.00    +0.000 NA
ATOM     11  N   UNL     1       6.399   4.359  15.062  0.00  0.00    +0.000 N 
ATOM     12  C   UNL     1       6.755   4.384  13.665  0.00  0.00    +0.000 C 
ATOM     13  C   UNL     1       5.176   4.042  15.575  0.00  0.00    +0.000 A 
ENDBRANCH   7   8
BRANCH   1  17
ATOM     14  C   UNL     1       1.177   8.748  19.840  0.00  0.00    +0.000 A 
ATOM     15  C   UNL     1       1.029   7.866  20.889  0.00  0.00    +0.000 A 
ATOM     16  C   UNL     1       1.820   6.691  20.726  0.00  0.00    +0.000 A 
ATOM     17  C   UNL     1       2.635   6.748  19.609  0.00  0.00    +0.000 A 
ATOM     18  S   UNL     1       2.262   8.139  18.666  0.00  0.00    +0.000 S 
BRANCH  14  19
ATOM     19  C   UNL     1       0.533  10.084  19.657  0.00  0.00    +0.000 C 
BRANCH  19  23
ATOM     20  C   UNL     1       2.515  12.895  18.125  0.00  0.00    +0.000 C 
ATOM     21  C   UNL     1       1.623  12.197  19.112  0.00  0.00    +0.000 C 
ATOM     22  O   UNL     1       1.167  12.756  20.104  0.00  0.00    +0.000 OA
ATOM     23  N   UNL     1       1.350  10.890  18.783  0.00  0.00    +0.000 N 
ATOM     24  H   UNL     1       1.899  10.431  18.067  0.00  0.00    +0.000 HD
ENDBRANCH  19  23
ENDBRANCH  14  19
ENDBRANCH   1  17
TORSDOF 4
ENDMDL
MODEL 5
REMARK VINA RESULT:      -6.8      2.601      7.860
REMARK  Name = 
REMARK  6 active torsions:
REMARK  status: ('A' for Active; 'I' for Inactive)
REMARK    1  A    between atoms: C_1  and  C_2
REMARK    2  A    between atoms: N_4  and  C_5
REMARK    3  A    between atoms: C_5  and  C_6
REMARK    4  A    between atoms: C_9  and  C_10
REMARK    5  A    between atoms: C_16  and  C_17
REMARK    6  A    between atoms: N_20  and  C_21
REMARK                            x       y       z     vdW  Elec       q    Type
REMARK                         _______ _______ _______ _____ _____    ______ ____
ROOT
ATOM      1  C   UNL     1       2.061   8.386  18.206  0.00  0.00    +0.000 C 
ATOM      2  O   UNL     1       1.860   9.043  17.187  0.00  0.00    +0.000 OA
ATOM      3  N   UNL     1       1.548   8.824  19.432  0.00  0.00    +0.000 N 
ATOM      4  C   UNL     1       1.555   8.135  20.708  0.00  0.00    +0.000 C 
ATOM      5  C   UNL     1       0.143   8.309  21.227  0.00  0.00    +0.000 C 
ATOM      6  C   UNL     1      -0.248   9.695  20.742  0.00  0.00    +0.000 C 
ATOM      7  C   UNL     1       0.572   9.916  19.453  0.00  0.00    +0.000 C 
ENDROOT
BRANCH   7   8
ATOM      8  C   UNL     1       1.240  11.253  19.477  0.00  0.00    +0.000 A 
ATOM      9  C   UNL     1       1.399  12.097  20.603  0.00  0.00    +0.000 A 
ATOM     10  N   UNL     1       2.128  13.184  20.339  0.00  0.00    +0.000 NA
ATOM     11  N   UNL     1       2.412  13.062  19.032  0.00  0.00    +0.000 N 
ATOM     12  C   UNL     1       3.232  14.047  18.372  0.00  0.00    +0.000 C 
ATOM     13  C   UNL     1       1.907  11.927  18.469  0.00  0.00    +0.000 A 
ENDBRANCH   7   8
BRANCH   1  17
ATOM     14  C   UNL     1       4.487   5.377  17.698  0.00  0.00    +0.000 A 
ATOM     15  C   UNL     1       3.287   4.821  18.090  0.00  0.00    +0.000 A 
ATOM     16  C   UNL     1       2.313   5.809  18.418  0.00  0.00    +0.000 A 
ATOM     17  C   UNL     1       2.755   7.096  18.170  0.00  0.00    +0.000 A 
ATOM     18  S   UNL     1       4.422   7.086  17.744  0.00  0.00    +0.000 S 
BRANCH  14  19
ATOM     19  C   UNL     1       5.733   4.676  17.264  0.00  0.00    +0.000 C 
BRANCH  19  23
ATOM     20  C   UNL     1       6.161   3.908  13.603  0.00  0.00    +0.000 C 
ATOM     21  C   UNL     1       6.456   4.529  14.940  0.00  0.00    +0.000 C 
ATOM     22  O   UNL     1       7.399   5.291  15.123  0.00  0.00    +0.000 OA
ATOM     23  N   UNL     1       5.557   4.182  15.920  0.00  0.00    +0.000 N 
ATOM     24  H   UNL     1       4.920   3.410  15.763  0.00  0.00    +0.000 HD
ENDBRANCH  19  23
ENDBRANCH  14  19
ENDBRANCH   1  17
TORSDOF 4
ENDMDL
MODEL 6
REMARK VINA RESULT:      -6.3      3.094      7.580
REMARK  Name = 
REMARK  6 active torsions:
REMARK  status: ('A' for Active; 'I' for Inactive)
REMARK    1  A    between atoms: C_1  and  C_2
REMARK    2  A    between atoms: N_4  and  C_5
REMARK    3  A    between atoms: C_5  and  C_6
REMARK    4  A    between atoms: C_9  and  C_10
REMARK    5  A    between atoms: C_16  and  C_17
REMARK    6  A    between atoms: N_20  and  C_21
REMARK                            x       y       z     vdW  Elec       q    Type
REMARK                         _______ _______ _______ _____ _____    ______ ____
ROOT
ATOM      1  C   UNL     1       2.148   8.517  18.160  0.00  0.00    +0.000 C 
ATOM      2  O   UNL     1       1.919   9.197  17.162  0.00  0.00    +0.000 OA
ATOM      3  N   UNL     1       1.614   8.892  19.398  0.00  0.00    +0.000 N 
ATOM      4  C   UNL     1       1.650   8.162  20.651  0.00  0.00    +0.000 C 
ATOM      5  C   UNL     1       0.230   8.255  21.170  0.00  0.00    +0.000 C 
ATOM      6  C   UNL     1      -0.223   9.636  20.729  0.00  0.00    +0.000 C 
ATOM      7  C   UNL     1       0.588   9.936  19.451  0.00  0.00    +0.000 C 
ENDROOT
BRANCH   7   8
ATOM      8  C   UNL     1       1.195  11.301  19.521  0.00  0.00    +0.000 A 
ATOM      9  C   UNL     1       1.293  12.123  20.670  0.00  0.00    +0.000 A 
ATOM     10  N   UNL     1       1.977  13.248  20.447  0.00  0.00    +0.000 NA
ATOM     11  N   UNL     1       2.292  13.171  19.143  0.00  0.00    +0.000 N 
ATOM     12  C   UNL     1       3.079  14.208  18.524  0.00  0.00    +0.000 C 
ATOM     13  C   UNL     1       1.850  12.028  18.543  0.00  0.00    +0.000 A 
ENDBRANCH   7   8
BRANCH   1  17
ATOM     14  C   UNL     1       3.465   4.851  18.295  0.00  0.00    +0.000 A 
ATOM     15  C   UNL     1       4.577   5.633  18.062  0.00  0.00    +0.000 A 
ATOM     16  C   UNL     1       4.245   7.007  17.882  0.00  0.00    +0.000 A 
ATOM     17  C   UNL     1       2.900   7.262  18.085  0.00  0.00    +0.000 A 
ATOM     18  S   UNL     1       2.034   5.788  18.280  0.00  0.00    +0.000 S 
BRANCH  14  19
ATOM     19  C   UNL     1       3.406   3.379  18.546  0.00  0.00    +0.000 C 
BRANCH  19  23
ATOM     20  C   UNL     1       1.570   2.477  21.707  0.00  0.00    +0.000 C 
ATOM     21  C   UNL     1       1.782   2.710  20.238  0.00  0.00    +0.000 C 
ATOM     22  O   UNL     1       0.895   2.545  19.406  0.00  0.00    +0.000 OA
ATOM     23  N   UNL     1       3.047   3.146  19.924  0.00  0.00    +0.000 N 
ATOM     24  H   UNL     1       3.783   3.081  20.616  0.00  0.00    +0.000 HD
ENDBRANCH  19  23
ENDBRANCH  14  19
ENDBRANCH   1  17
TORSDOF 4
ENDMDL
MODEL 7
REMARK VINA RESULT:      -6.3      2.571      3.825
REMARK  Name = 
REMARK  6 active torsions:
REMARK  status: ('A' for Active; 'I' for Inactive)
REMARK    1  A    between atoms: C_1  and  C_2
REMARK    2  A    between atoms: N_4  and  C_5
REMARK    3  A    between atoms: C_5  and  C_6
REMARK    4  A    between atoms: C_9  and  C_10
REMARK    5  A    between atoms: C_16  and  C_17
REMARK    6  A    between atoms: N_20  and  C_21
REMARK                            x       y       z     vdW  Elec       q    Type
REMARK                         _______ _______ _______ _____ _____    ______ ____
ROOT
ATOM      1  C   UNL     1       2.346   6.117  18.023  0.00  0.00    +0.000 C 
ATOM      2  O   UNL     1       1.437   5.301  17.887  0.00  0.00    +0.000 OA
ATOM      3  N   UNL     1       3.666   5.741  17.752  0.00  0.00    +0.000 N 
ATOM      4  C   UNL     1       4.851   6.578  17.716  0.00  0.00    +0.000 C 
ATOM      5  C   UNL     1       5.558   6.158  16.445  0.00  0.00    +0.000 C 
ATOM      6  C   UNL     1       5.277   4.668  16.354  0.00  0.00    +0.000 C 
ATOM      7  C   UNL     1       3.926   4.469  17.073  0.00  0.00    +0.000 C 
ENDROOT
BRANCH   7   8
ATOM      8  C   UNL     1       4.009   3.335  18.044  0.00  0.00    +0.000 A 
ATOM      9  C   UNL     1       3.500   2.026  17.858  0.00  0.00    +0.000 A 
ATOM     10  N   UNL     1       3.814   1.199  18.858  0.00  0.00    +0.000 NA
ATOM     11  N   UNL     1       4.497   1.982  19.710  0.00  0.00    +0.000 N 
ATOM     12  C   UNL     1       5.046   1.429  20.923  0.00  0.00    +0.000 C 
ATOM     13  C   UNL     1       4.643   3.266  19.272  0.00  0.00    +0.000 A 
ENDBRANCH   7   8
BRANCH   1  17
ATOM     14  C   UNL     1       1.357   9.508  19.670  0.00  0.00    +0.000 A 
ATOM     15  C   UNL     1       1.579   9.796  18.340  0.00  0.00    +0.000 A 
ATOM     16  C   UNL     1       2.055   8.666  17.613  0.00  0.00    +0.000 A 
ATOM     17  C   UNL     1       2.085   7.514  18.378  0.00  0.00    +0.000 A 
ATOM     18  S   UNL     1       1.738   7.878  20.023  0.00  0.00    +0.000 S 
BRANCH  14  19
ATOM     19  C   UNL     1       0.847  10.418  20.740  0.00  0.00    +0.000 C 
BRANCH  19  23
ATOM     20  C   UNL     1       0.673  14.040  19.727  0.00  0.00    +0.000 C 
ATOM     21  C   UNL     1       1.170  12.817  20.445  0.00  0.00    +0.000 C 
ATOM     22  O   UNL     1       2.107  12.848  21.236  0.00  0.00    +0.000 OA
ATOM     23  N   UNL     1       0.461  11.677  20.150  0.00  0.00    +0.000 N 
ATOM     24  H   UNL     1      -0.169  11.672  19.358  0.00  0.00    +0.000 HD
ENDBRANCH  19  23
ENDBRANCH  14  19
ENDBRANCH   1  17
TORSDOF 4
ENDMDL
MODEL 8
REMARK VINA RESULT:      -6.2      2.609      7.925
REMARK  Name = 
REMARK  6 active torsions:
REMARK  status: ('A' for Active; 'I' for Inactive)
REMARK    1  A    between atoms: C_1  and  C_2
REMARK    2  A    between atoms: N_4  and  C_5
REMARK    3  A    between atoms: C_5  and  C_6
REMARK    4  A    between atoms: C_9  and  C_10
REMARK    5  A    between atoms: C_16  and  C_17
REMARK    6  A    between atoms: N_20  and  C_21
REMARK                            x       y       z     vdW  Elec       q    Type
REMARK                         _______ _______ _______ _____ _____    ______ ____
ROOT
ATOM      1  C   UNL     1       1.926   8.467  18.321  0.00  0.00    +0.000 C 
ATOM      2  O   UNL     1       1.788   9.107  17.281  0.00  0.00    +0.000 OA
ATOM      3  N   UNL     1       1.414   8.969  19.522  0.00  0.00    +0.000 N 
ATOM      4  C   UNL     1       1.351   8.315  20.816  0.00  0.00    +0.000 C 
ATOM      5  C   UNL     1      -0.059   8.588  21.296  0.00  0.00    +0.000 C 
ATOM      6  C   UNL     1      -0.353   9.981  20.767  0.00  0.00    +0.000 C 
ATOM      7  C   UNL     1       0.506  10.118  19.492  0.00  0.00    +0.000 C 
ENDROOT
BRANCH   7   8
ATOM      8  C   UNL     1       1.256  11.411  19.498  0.00  0.00    +0.000 A 
ATOM      9  C   UNL     1       1.486  12.248  20.618  0.00  0.00    +0.000 A 
ATOM     10  N   UNL     1       2.275  13.288  20.336  0.00  0.00    +0.000 NA
ATOM     11  N   UNL     1       2.526  13.145  19.024  0.00  0.00    +0.000 N 
ATOM     12  C   UNL     1       3.391  14.077  18.344  0.00  0.00    +0.000 C 
ATOM     13  C   UNL     1       1.942  12.041  18.475  0.00  0.00    +0.000 A 
ENDBRANCH   7   8
BRANCH   1  17
ATOM     14  C   UNL     1       4.100   5.268  17.830  0.00  0.00    +0.000 A 
ATOM     15  C   UNL     1       2.936   4.834  18.429  0.00  0.00    +0.000 A 
ATOM     16  C   UNL     1       2.068   5.912  18.772  0.00  0.00    +0.000 A 
ATOM     17  C   UNL     1       2.540   7.137  18.334  0.00  0.00    +0.000 A 
ATOM     18  S   UNL     1       4.132   6.974  17.702  0.00  0.00    +0.000 S 
BRANCH  14  19
ATOM     19  C   UNL     1       5.238   4.447  17.318  0.00  0.00    +0.000 C 
BRANCH  19  23
ATOM     20  C   UNL     1       8.386   5.181  19.250  0.00  0.00    +0.000 C 
ATOM     21  C   UNL     1       7.384   5.270  18.133  0.00  0.00    +0.000 C 
ATOM     22  O   UNL     1       7.541   6.000  17.160  0.00  0.00    +0.000 OA
ATOM     23  N   UNL     1       6.299   4.443  18.296  0.00  0.00    +0.000 N 
ATOM     24  H   UNL     1       6.131   4.012  19.197  0.00  0.00    +0.000 HD
ENDBRANCH  19  23
ENDBRANCH  14  19
ENDBRANCH   1  17
TORSDOF 4
ENDMDL
MODEL 9
REMARK VINA RESULT:      -6.2      1.898      2.320
REMARK  Name = 
REMARK  6 active torsions:
REMARK  status: ('A' for Active; 'I' for Inactive)
REMARK    1  A    between atoms: C_1  and  C_2
REMARK    2  A    between atoms: N_4  and  C_5
REMARK    3  A    between atoms: C_5  and  C_6
REMARK    4  A    between atoms: C_9  and  C_10
REMARK    5  A    between atoms: C_16  and  C_17
REMARK    6  A    between atoms: N_20  and  C_21
REMARK                            x       y       z     vdW  Elec       q    Type
REMARK                         _______ _______ _______ _____ _____    ______ ____
ROOT
ATOM      1  C   UNL     1       3.759   6.291  18.666  0.00  0.00    +0.000 C 
ATOM      2  O   UNL     1       4.945   6.381  18.976  0.00  0.00    +0.000 OA
ATOM      3  N   UNL     1       3.300   5.158  17.986  0.00  0.00    +0.000 N 
ATOM      4  C   UNL     1       1.934   4.798  17.655  0.00  0.00    +0.000 C 
ATOM      5  C   UNL     1       1.835   3.338  18.044  0.00  0.00    +0.000 C 
ATOM      6  C   UNL     1       3.213   2.787  17.718  0.00  0.00    +0.000 C 
ATOM      7  C   UNL     1       4.172   3.986  17.872  0.00  0.00    +0.000 C 
ENDROOT
BRANCH   7   8
ATOM      8  C   UNL     1       5.080   4.089  16.688  0.00  0.00    +0.000 A 
ATOM      9  C   UNL     1       6.474   4.339  16.713  0.00  0.00    +0.000 A 
ATOM     10  N   UNL     1       7.035   4.274  15.503  0.00  0.00    +0.000 NA
ATOM     11  N   UNL     1       5.998   4.016  14.689  0.00  0.00    +0.000 N 
ATOM     12  C   UNL     1       6.212   3.836  13.275  0.00  0.00    +0.000 C 
ATOM     13  C   UNL     1       4.808   3.896  15.346  0.00  0.00    +0.000 A 
ENDBRANCH   7   8
BRANCH   1  17
ATOM     14  C   UNL     1       0.939   8.423  20.308  0.00  0.00    +0.000 A 
ATOM     15  C   UNL     1       1.207   9.033  19.101  0.00  0.00    +0.000 A 
ATOM     16  C   UNL     1       2.300   8.426  18.417  0.00  0.00    +0.000 A 
ATOM     17  C   UNL     1       2.776   7.301  19.066  0.00  0.00    +0.000 A 
ATOM     18  S   UNL     1       2.021   7.131  20.603  0.00  0.00    +0.000 S 
BRANCH  14  19
ATOM     19  C   UNL     1      -0.131   8.757  21.297  0.00  0.00    +0.000 C 
BRANCH  19  23
ATOM     20  C   UNL     1      -0.695  12.378  22.164  0.00  0.00    +0.000 C 
ATOM     21  C   UNL     1      -0.429  10.916  22.391  0.00  0.00    +0.000 C 
ATOM     22  O   UNL     1      -0.268  10.438  23.509  0.00  0.00    +0.000 OA
ATOM     23  N   UNL     1      -0.408  10.172  21.236  0.00  0.00    +0.000 N 
ATOM     24  H   UNL     1      -0.356  10.641  20.340  0.00  0.00    +0.000 HD
ENDBRANCH  19  23
ENDBRANCH  14  19
ENDBRANCH   1  17
TORSDOF 4
ENDMDL
