MODEL 1
REMARK VINA RESULT:      -6.3      0.000      0.000
REMARK  Name = 
REMARK  7 active torsions:
REMARK  status: ('A' for Active; 'I' for Inactive)
REMARK    1  A    between atoms: C_1  and  O_2
REMARK    2  A    between atoms: O_2  and  C_3
REMARK    3  A    between atoms: C_3  and  C_4
REMARK    4  A    between atoms: C_4  and  C_5
REMARK    5  A    between atoms: C_5  and  N_6
REMARK    6  A    between atoms: N_6  and  C_7
REMARK    7  A    between atoms: C_9  and  C_10
REMARK                            x       y       z     vdW  Elec       q    Type
REMARK                         _______ _______ _______ _____ _____    ______ ____
ROOT
ATOM      1  C   UNL     1       4.009   4.946  17.968  0.00  0.00    +0.000 A 
ATOM      2  C   UNL     1       3.751   6.266  17.590  0.00  0.00    +0.000 A 
ATOM      3  C   UNL     1       2.853   7.038  18.319  0.00  0.00    +0.000 A 
ATOM      4  C   UNL     1       2.550   8.450  17.921  0.00  0.00    +0.000 C 
ATOM      5  N   UNL     1       2.219   6.570  19.413  0.00  0.00    +0.000 NA
ATOM      6  C   UNL     1       2.481   5.321  19.821  0.00  0.00    +0.000 A 
ATOM      7  C   UNL     1       1.855   4.870  20.974  0.00  0.00    +0.000 A 
ATOM      8  C   UNL     1       2.080   3.590  21.488  0.00  0.00    +0.000 A 
ATOM      9  C   UNL     1       2.948   2.731  20.832  0.00  0.00    +0.000 A 
ATOM     10  C   UNL     1       3.591   3.161  19.673  0.00  0.00    +0.000 A 
ATOM     11  C   UNL     1       3.371   4.458  19.138  0.00  0.00    +0.000 A 
ENDROOT
BRANCH   1  12
ATOM     12  N   UNL     1       4.955   4.147  17.296  0.00  0.00    +0.000 N 
ATOM     13  H   UNL     1       5.028   3.217  17.693  0.00  0.00    +0.000 HD
BRANCH  12  14
ATOM     14  C   UNL     1       5.067   4.195  15.844  0.00  0.00    +0.000 C 
BRANCH  14  15
ATOM     15  C   UNL     1       6.536   4.174  15.422  0.00  0.00    +0.000 C 
BRANCH  15  16
ATOM     16  C   UNL     1       7.417   4.779  16.508  0.00  0.00    +0.000 C 
BRANCH  16  18
ATOM     17  C   UNL     1       7.441   6.845  17.648  0.00  0.00    +0.000 C 
ATOM     18  O   UNL     1       7.401   6.200  16.384  0.00  0.00    +0.000 OA
ENDBRANCH  16  18
ENDBRANCH  15  16
ENDBRANCH  14  15
ENDBRANCH  12  14
ENDBRANCH   1  12
TORSDOF 5
ENDMDL
MODEL 2
REMARK VINA RESULT:      -6.2      1.185      1.769
REMARK  Name = 
REMARK  7 active torsions:
REMARK  status: ('A' for Active; 'I' for Inactive)
REMARK    1  A    between atoms: C_1  and  O_2
REMARK    2  A    between atoms: O_2  and  C_3
REMARK    3  A    between atoms: C_3  and  C_4
REMARK    4  A    between atoms: C_4  and  C_5
REMARK    5  A    between atoms: C_5  and  N_6
REMARK    6  A    between atoms: N_6  and  C_7
REMARK    7  A    between atoms: C_9  and  C_10
REMARK                            x       y       z     vdW  Elec       q    Type
REMARK                         _______ _______ _______ _____ _____    ______ ____
ROOT
ATOM      1  C   UNL     1       4.464   4.794  18.825  0.00  0.00    +0.000 A 
ATOM      2  C   UNL     1       4.227   6.056  18.274  0.00  0.00    +0.000 A 
ATOM      3  C   UNL     1       3.000   6.682  18.463  0.00  0.00    +0.000 A 
ATOM      4  C   UNL     1       2.720   8.027  17.867  0.00  0.00    +0.000 C 
ATOM      5  N   UNL     1       2.009   6.126  19.189  0.00  0.00    +0.000 NA
ATOM      6  C   UNL     1       2.226   4.935  19.764  0.00  0.00    +0.000 A 
ATOM      7  C   UNL     1       1.213   4.397  20.545  0.00  0.00    +0.000 A 
ATOM      8  C   UNL     1       1.353   3.170  21.199  0.00  0.00    +0.000 A 
ATOM      9  C   UNL     1       2.533   2.454  21.068  0.00  0.00    +0.000 A 
ATOM     10  C   UNL     1       3.567   2.974  20.291  0.00  0.00    +0.000 A 
ATOM     11  C   UNL     1       3.438   4.218  19.619  0.00  0.00    +0.000 A 
ENDROOT
BRANCH   1  12
ATOM     12  N   UNL     1       5.711   4.150  18.710  0.00  0.00    +0.000 N 
ATOM     13  H   UNL     1       5.672   3.335  18.108  0.00  0.00    +0.000 HD
BRANCH  12  14
ATOM     14  C   UNL     1       6.938   4.928  18.594  0.00  0.00    +0.000 C 
BRANCH  14  15
ATOM     15  C   UNL     1       7.735   4.486  17.367  0.00  0.00    +0.000 C 
BRANCH  15  16
ATOM     16  C   UNL     1       7.054   4.952  16.086  0.00  0.00    +0.000 C 
BRANCH  16  18
ATOM     17  C   UNL     1       5.611   4.214  14.370  0.00  0.00    +0.000 C 
ATOM     18  O   UNL     1       6.102   3.969  15.680  0.00  0.00    +0.000 OA
ENDBRANCH  16  18
ENDBRANCH  15  16
ENDBRANCH  14  15
ENDBRANCH  12  14
ENDBRANCH   1  12
TORSDOF 5
ENDMDL
MODEL 3
REMARK VINA RESULT:      -6.1      3.826      5.936
REMARK  Name = 
REMARK  7 active torsions:
REMARK  status: ('A' for Active; 'I' for Inactive)
REMARK    1  A    between atoms: C_1  and  O_2
REMARK    2  A    between atoms: O_2  and  C_3
REMARK    3  A    between atoms: C_3  and  C_4
REMARK    4  A    between atoms: C_4  and  C_5
REMARK    5  A    between atoms: C_5  and  N_6
REMARK    6  A    between atoms: N_6  and  C_7
REMARK    7  A    between atoms: C_9  and  C_10
REMARK                            x       y       z     vdW  Elec       q    Type
REMARK                         _______ _______ _______ _____ _____    ______ ____
ROOT
ATOM      1  C   UNL     1       2.540   6.169  19.670  0.00  0.00    +0.000 A 
ATOM      2  C   UNL     1       3.419   6.746  18.749  0.00  0.00    +0.000 A 
ATOM      3  C   UNL     1       3.850   6.018  17.646  0.00  0.00    +0.000 A 
ATOM      4  C   UNL     1       4.805   6.612  16.656  0.00  0.00    +0.000 C 
ATOM      5  N   UNL     1       3.436   4.759  17.402  0.00  0.00    +0.000 NA
ATOM      6  C   UNL     1       2.560   4.198  18.247  0.00  0.00    +0.000 A 
ATOM      7  C   UNL     1       2.108   2.918  17.959  0.00  0.00    +0.000 A 
ATOM      8  C   UNL     1       1.181   2.258  18.769  0.00  0.00    +0.000 A 
ATOM      9  C   UNL     1       0.693   2.887  19.904  0.00  0.00    +0.000 A 
ATOM     10  C   UNL     1       1.129   4.174  20.215  0.00  0.00    +0.000 A 
ATOM     11  C   UNL     1       2.072   4.856  19.401  0.00  0.00    +0.000 A 
ENDROOT
BRANCH   1  12
ATOM     12  N   UNL     1       2.029   6.888  20.767  0.00  0.00    +0.000 N 
ATOM     13  H   UNL     1       2.608   6.795  21.595  0.00  0.00    +0.000 HD
BRANCH  12  14
ATOM     14  C   UNL     1       1.453   8.214  20.580  0.00  0.00    +0.000 C 
BRANCH  14  15
ATOM     15  C   UNL     1       1.203   8.881  21.933  0.00  0.00    +0.000 C 
BRANCH  15  16
ATOM     16  C   UNL     1       0.146   9.972  21.807  0.00  0.00    +0.000 C 
BRANCH  16  18
ATOM     17  C   UNL     1      -1.341  11.245  23.125  0.00  0.00    +0.000 C 
ATOM     18  O   UNL     1      -0.131  10.504  23.102  0.00  0.00    +0.000 OA
ENDBRANCH  16  18
ENDBRANCH  15  16
ENDBRANCH  14  15
ENDBRANCH  12  14
ENDBRANCH   1  12
TORSDOF 5
ENDMDL
MODEL 4
REMARK VINA RESULT:      -6.1      1.799      2.227
REMARK  Name = 
REMARK  7 active torsions:
REMARK  status: ('A' for Active; 'I' for Inactive)
REMARK    1  A    between atoms: C_1  and  O_2
REMARK    2  A    between atoms: O_2  and  C_3
REMARK    3  A    between atoms: C_3  and  C_4
REMARK    4  A    between atoms: C_4  and  C_5
REMARK    5  A    between atoms: C_5  and  N_6
REMARK    6  A    between atoms: N_6  and  C_7
REMARK    7  A    between atoms: C_9  and  C_10
REMARK                            x       y       z     vdW  Elec       q    Type
REMARK                         _______ _______ _______ _____ _____    ______ ____
ROOT
ATOM      1  C   UNL     1       4.756   4.963  17.710  0.00  0.00    +0.000 A 
ATOM      2  C   UNL     1       4.459   6.329  17.693  0.00  0.00    +0.000 A 
ATOM      3  C   UNL     1       3.151   6.761  17.879  0.00  0.00    +0.000 A 
ATOM      4  C   UNL     1       2.810   8.219  17.848  0.00  0.00    +0.000 C 
ATOM      5  N   UNL     1       2.132   5.908  18.101  0.00  0.00    +0.000 NA
ATOM      6  C   UNL     1       2.396   4.596  18.164  0.00  0.00    +0.000 A 
ATOM      7  C   UNL     1       1.344   3.734  18.438  0.00  0.00    +0.000 A 
ATOM      8  C   UNL     1       1.524   2.353  18.542  0.00  0.00    +0.000 A 
ATOM      9  C   UNL     1       2.788   1.811  18.362  0.00  0.00    +0.000 A 
ATOM     10  C   UNL     1       3.862   2.656  18.088  0.00  0.00    +0.000 A 
ATOM     11  C   UNL     1       3.693   4.061  17.978  0.00  0.00    +0.000 A 
ENDROOT
BRANCH   1  12
ATOM     12  N   UNL     1       6.074   4.483  17.588  0.00  0.00    +0.000 N 
ATOM     13  H   UNL     1       6.224   3.627  18.111  0.00  0.00    +0.000 HD
BRANCH  12  14
ATOM     14  C   UNL     1       6.766   4.537  16.306  0.00  0.00    +0.000 C 
BRANCH  14  15
ATOM     15  C   UNL     1       6.048   3.663  15.277  0.00  0.00    +0.000 C 
BRANCH  15  16
ATOM     16  C   UNL     1       6.380   4.117  13.861  0.00  0.00    +0.000 C 
BRANCH  16  18
ATOM     17  C   UNL     1       8.067   5.342  12.755  0.00  0.00    +0.000 C 
ATOM     18  O   UNL     1       7.269   5.231  13.924  0.00  0.00    +0.000 OA
ENDBRANCH  16  18
ENDBRANCH  15  16
ENDBRANCH  14  15
ENDBRANCH  12  14
ENDBRANCH   1  12
TORSDOF 5
ENDMDL
MODEL 5
REMARK VINA RESULT:      -6.1      1.667      2.131
REMARK  Name = 
REMARK  7 active torsions:
REMARK  status: ('A' for Active; 'I' for Inactive)
REMARK    1  A    between atoms: C_1  and  O_2
REMARK    2  A    between atoms: O_2  and  C_3
REMARK    3  A    between atoms: C_3  and  C_4
REMARK    4  A    between atoms: C_4  and  C_5
REMARK    5  A    between atoms: C_5  and  N_6
REMARK    6  A    between atoms: N_6  and  C_7
REMARK    7  A    between atoms: C_9  and  C_10
REMARK                            x       y       z     vdW  Elec       q    Type
REMARK                         _______ _______ _______ _____ _____    ______ ____
ROOT
ATOM      1  C   UNL     1       4.676   4.897  18.712  0.00  0.00    +0.000 A 
ATOM      2  C   UNL     1       4.391   6.244  18.466  0.00  0.00    +0.000 A 
ATOM      3  C   UNL     1       3.096   6.637  18.154  0.00  0.00    +0.000 A 
ATOM      4  C   UNL     1       2.773   8.072  17.870  0.00  0.00    +0.000 C 
ATOM      5  N   UNL     1       2.069   5.766  18.096  0.00  0.00    +0.000 NA
ATOM      6  C   UNL     1       2.306   4.476  18.370  0.00  0.00    +0.000 A 
ATOM      7  C   UNL     1       1.231   3.599  18.351  0.00  0.00    +0.000 A 
ATOM      8  C   UNL     1       1.376   2.241  18.641  0.00  0.00    +0.000 A 
ATOM      9  C   UNL     1       2.630   1.736  18.953  0.00  0.00    +0.000 A 
ATOM     10  C   UNL     1       3.726   2.597  18.981  0.00  0.00    +0.000 A 
ATOM     11  C   UNL     1       3.593   3.980  18.687  0.00  0.00    +0.000 A 
ENDROOT
BRANCH   1  12
ATOM     12  N   UNL     1       5.960   4.462  19.091  0.00  0.00    +0.000 N 
ATOM     13  H   UNL     1       6.035   3.450  19.114  0.00  0.00    +0.000 HD
BRANCH  12  14
ATOM     14  C   UNL     1       7.149   5.144  18.597  0.00  0.00    +0.000 C 
BRANCH  14  15
ATOM     15  C   UNL     1       7.515   4.634  17.203  0.00  0.00    +0.000 C 
BRANCH  15  16
ATOM     16  C   UNL     1       7.190   5.681  16.144  0.00  0.00    +0.000 C 
BRANCH  16  18
ATOM     17  C   UNL     1       6.511   4.246  14.398  0.00  0.00    +0.000 C 
ATOM     18  O   UNL     1       7.502   5.154  14.856  0.00  0.00    +0.000 OA
ENDBRANCH  16  18
ENDBRANCH  15  16
ENDBRANCH  14  15
ENDBRANCH  12  14
ENDBRANCH   1  12
TORSDOF 5
ENDMDL
MODEL 6
REMARK VINA RESULT:      -6.1      1.941      2.613
REMARK  Name = 
REMARK  7 active torsions:
REMARK  status: ('A' for Active; 'I' for Inactive)
REMARK    1  A    between atoms: C_1  and  O_2
REMARK    2  A    between atoms: O_2  and  C_3
REMARK    3  A    between atoms: C_3  and  C_4
REMARK    4  A    between atoms: C_4  and  C_5
REMARK    5  A    between atoms: C_5  and  N_6
REMARK    6  A    between atoms: N_6  and  C_7
REMARK    7  A    between atoms: C_9  and  C_10
REMARK                            x       y       z     vdW  Elec       q    Type
REMARK                         _______ _______ _______ _____ _____    ______ ____
ROOT
ATOM      1  C   UNL     1       4.433   4.581  17.193  0.00  0.00    +0.000 A 
ATOM      2  C   UNL     1       4.302   5.972  17.248  0.00  0.00    +0.000 A 
ATOM      3  C   UNL     1       3.162   6.544  17.799  0.00  0.00    +0.000 A 
ATOM      4  C   UNL     1       2.995   8.032  17.851  0.00  0.00    +0.000 C 
ATOM      5  N   UNL     1       2.159   5.807  18.316  0.00  0.00    +0.000 NA
ATOM      6  C   UNL     1       2.279   4.472  18.315  0.00  0.00    +0.000 A 
ATOM      7  C   UNL     1       1.260   3.728  18.892  0.00  0.00    +0.000 A 
ATOM      8  C   UNL     1       1.304   2.333  18.955  0.00  0.00    +0.000 A 
ATOM      9  C   UNL     1       2.391   1.657  18.423  0.00  0.00    +0.000 A 
ATOM     10  C   UNL     1       3.429   2.381  17.840  0.00  0.00    +0.000 A 
ATOM     11  C   UNL     1       3.397   3.799  17.768  0.00  0.00    +0.000 A 
ENDROOT
BRANCH   1  12
ATOM     12  N   UNL     1       5.596   3.958  16.700  0.00  0.00    +0.000 N 
ATOM     13  H   UNL     1       5.393   3.273  15.980  0.00  0.00    +0.000 HD
BRANCH  12  14
ATOM     14  C   UNL     1       6.810   4.732  16.473  0.00  0.00    +0.000 C 
BRANCH  14  15
ATOM     15  C   UNL     1       7.118   4.810  14.977  0.00  0.00    +0.000 C 
BRANCH  15  16
ATOM     16  C   UNL     1       6.179   3.908  14.186  0.00  0.00    +0.000 C 
BRANCH  16  18
ATOM     17  C   UNL     1       5.799   3.013  12.036  0.00  0.00    +0.000 C 
ATOM     18  O   UNL     1       6.573   3.913  12.815  0.00  0.00    +0.000 OA
ENDBRANCH  16  18
ENDBRANCH  15  16
ENDBRANCH  14  15
ENDBRANCH  12  14
ENDBRANCH   1  12
TORSDOF 5
ENDMDL
MODEL 7
REMARK VINA RESULT:      -6.1      2.311      4.778
REMARK  Name = 
REMARK  7 active torsions:
REMARK  status: ('A' for Active; 'I' for Inactive)
REMARK    1  A    between atoms: C_1  and  O_2
REMARK    2  A    between atoms: O_2  and  C_3
REMARK    3  A    between atoms: C_3  and  C_4
REMARK    4  A    between atoms: C_4  and  C_5
REMARK    5  A    between atoms: C_5  and  N_6
REMARK    6  A    between atoms: N_6  and  C_7
REMARK    7  A    between atoms: C_9  and  C_10
REMARK                            x       y       z     vdW  Elec       q    Type
REMARK                         _______ _______ _______ _____ _____    ______ ____
ROOT
ATOM      1  C   UNL     1       3.271   5.841  19.474  0.00  0.00    +0.000 A 
ATOM      2  C   UNL     1       2.376   6.876  19.185  0.00  0.00    +0.000 A 
ATOM      3  C   UNL     1       2.642   7.759  18.146  0.00  0.00    +0.000 A 
ATOM      4  C   UNL     1       1.704   8.883  17.831  0.00  0.00    +0.000 C 
ATOM      5  N   UNL     1       3.738   7.652  17.369  0.00  0.00    +0.000 NA
ATOM      6  C   UNL     1       4.591   6.644  17.597  0.00  0.00    +0.000 A 
ATOM      7  C   UNL     1       5.691   6.521  16.760  0.00  0.00    +0.000 A 
ATOM      8  C   UNL     1       6.624   5.492  16.908  0.00  0.00    +0.000 A 
ATOM      9  C   UNL     1       6.463   4.561  17.922  0.00  0.00    +0.000 A 
ATOM     10  C   UNL     1       5.365   4.661  18.775  0.00  0.00    +0.000 A 
ATOM     11  C   UNL     1       4.409   5.702  18.638  0.00  0.00    +0.000 A 
ENDROOT
BRANCH   1  12
ATOM     12  N   UNL     1       3.012   4.887  20.477  0.00  0.00    +0.000 N 
ATOM     13  H   UNL     1       3.593   5.021  21.298  0.00  0.00    +0.000 HD
BRANCH  12  14
ATOM     14  C   UNL     1       1.647   4.468  20.766  0.00  0.00    +0.000 C 
BRANCH  14  15
ATOM     15  C   UNL     1       1.485   2.970  20.509  0.00  0.00    +0.000 C 
BRANCH  15  16
ATOM     16  C   UNL     1       0.867   2.722  19.138  0.00  0.00    +0.000 C 
BRANCH  16  18
ATOM     17  C   UNL     1       2.825   2.068  17.995  0.00  0.00    +0.000 C 
ATOM     18  O   UNL     1       1.818   3.060  18.130  0.00  0.00    +0.000 OA
ENDBRANCH  16  18
ENDBRANCH  15  16
ENDBRANCH  14  15
ENDBRANCH  12  14
ENDBRANCH   1  12
TORSDOF 5
ENDMDL
MODEL 8
REMARK VINA RESULT:      -6.0      2.474      5.217
REMARK  Name = 
REMARK  7 active torsions:
REMARK  status: ('A' for Active; 'I' for Inactive)
REMARK    1  A    between atoms: C_1  and  O_2
REMARK    2  A    between atoms: O_2  and  C_3
REMARK    3  A    between atoms: C_3  and  C_4
REMARK    4  A    between atoms: C_4  and  C_5
REMARK    5  A    between atoms: C_5  and  N_6
REMARK    6  A    between atoms: N_6  and  C_7
REMARK    7  A    between atoms: C_9  and  C_10
REMARK                            x       y       z     vdW  Elec       q    Type
REMARK                         _______ _______ _______ _____ _____    ______ ____
ROOT
ATOM      1  C   UNL     1       2.886   6.054  19.729  0.00  0.00    +0.000 A 
ATOM      2  C   UNL     1       3.762   5.514  18.783  0.00  0.00    +0.000 A 
ATOM      3  C   UNL     1       4.003   6.186  17.591  0.00  0.00    +0.000 A 
ATOM      4  C   UNL     1       4.925   5.616  16.558  0.00  0.00    +0.000 C 
ATOM      5  N   UNL     1       3.436   7.375  17.303  0.00  0.00    +0.000 NA
ATOM      6  C   UNL     1       2.625   7.935  18.211  0.00  0.00    +0.000 A 
ATOM      7  C   UNL     1       2.084   9.179  17.919  0.00  0.00    +0.000 A 
ATOM      8  C   UNL     1       1.243   9.850  18.810  0.00  0.00    +0.000 A 
ATOM      9  C   UNL     1       0.925   9.264  20.026  0.00  0.00    +0.000 A 
ATOM     10  C   UNL     1       1.458   8.016  20.344  0.00  0.00    +0.000 A 
ATOM     11  C   UNL     1       2.312   7.322  19.447  0.00  0.00    +0.000 A 
ENDROOT
BRANCH   1  12
ATOM     12  N   UNL     1       2.659   5.439  20.976  0.00  0.00    +0.000 N 
ATOM     13  H   UNL     1       2.271   6.081  21.659  0.00  0.00    +0.000 HD
BRANCH  12  14
ATOM     14  C   UNL     1       2.125   4.085  21.047  0.00  0.00    +0.000 C 
BRANCH  14  15
ATOM     15  C   UNL     1       0.871   3.962  20.182  0.00  0.00    +0.000 C 
BRANCH  15  16
ATOM     16  C   UNL     1       0.914   2.687  19.348  0.00  0.00    +0.000 C 
BRANCH  16  18
ATOM     17  C   UNL     1       2.488   2.331  17.626  0.00  0.00    +0.000 C 
ATOM     18  O   UNL     1       1.306   3.015  18.016  0.00  0.00    +0.000 OA
ENDBRANCH  16  18
ENDBRANCH  15  16
ENDBRANCH  14  15
ENDBRANCH  12  14
ENDBRANCH   1  12
TORSDOF 5
ENDMDL
MODEL 9
REMARK VINA RESULT:      -6.0      2.681      5.133
REMARK  Name = 
REMARK  7 active torsions:
REMARK  status: ('A' for Active; 'I' for Inactive)
REMARK    1  A    between atoms: C_1  and  O_2
REMARK    2  A    between atoms: O_2  and  C_3
REMARK    3  A    between atoms: C_3  and  C_4
REMARK    4  A    between atoms: C_4  and  C_5
REMARK    5  A    between atoms: C_5  and  N_6
REMARK    6  A    between atoms: N_6  and  C_7
REMARK    7  A    between atoms: C_9  and  C_10
REMARK                            x       y       z     vdW  Elec       q    Type
REMARK                         _______ _______ _______ _____ _____    ______ ____
ROOT
ATOM      1  C   UNL     1       4.596   3.919  17.145  0.00  0.00    +0.000 A 
ATOM      2  C   UNL     1       5.563   3.825  16.139  0.00  0.00    +0.000 A 
ATOM      3  C   UNL     1       5.941   4.957  15.427  0.00  0.00    +0.000 A 
ATOM      4  C   UNL     1       6.962   4.874  14.335  0.00  0.00    +0.000 C 
ATOM      5  N   UNL     1       5.424   6.176  15.678  0.00  0.00    +0.000 NA
ATOM      6  C   UNL     1       4.527   6.301  16.666  0.00  0.00    +0.000 A 
ATOM      7  C   UNL     1       4.038   7.569  16.943  0.00  0.00    +0.000 A 
ATOM      8  C   UNL     1       3.115   7.802  17.965  0.00  0.00    +0.000 A 
ATOM      9  C   UNL     1       2.658   6.741  18.731  0.00  0.00    +0.000 A 
ATOM     10  C   UNL     1       3.136   5.456  18.475  0.00  0.00    +0.000 A 
ATOM     11  C   UNL     1       4.073   5.205  17.438  0.00  0.00    +0.000 A 
ENDROOT
BRANCH   1  12
ATOM     12  N   UNL     1       4.227   2.811  17.933  0.00  0.00    +0.000 N 
ATOM     13  H   UNL     1       4.440   2.946  18.916  0.00  0.00    +0.000 HD
BRANCH  12  14
ATOM     14  C   UNL     1       2.979   2.104  17.678  0.00  0.00    +0.000 C 
BRANCH  14  15
ATOM     15  C   UNL     1       2.216   1.883  18.984  0.00  0.00    +0.000 C 
BRANCH  15  16
ATOM     16  C   UNL     1       0.858   2.573  18.939  0.00  0.00    +0.000 C 
BRANCH  16  18
ATOM     17  C   UNL     1       1.373   2.866  21.223  0.00  0.00    +0.000 C 
ATOM     18  O   UNL     1       0.724   3.412  20.085  0.00  0.00    +0.000 OA
ENDBRANCH  16  18
ENDBRANCH  15  16
ENDBRANCH  14  15
ENDBRANCH  12  14
ENDBRANCH   1  12
TORSDOF 5
ENDMDL
