MODEL 1
REMARK VINA RESULT:      -8.2      0.000      0.000
REMARK  Name = 
REMARK  9 active torsions:
REMARK  status: ('A' for Active; 'I' for Inactive)
REMARK    1  A    between atoms: C_1  and  C_2
REMARK    2  A    between atoms: C_4  and  C_5
REMARK    3  A    between atoms: C_6  and  C_7
REMARK    4  A    between atoms: C_8  and  C_9
REMARK    5  A    between atoms: C_11  and  O_12
REMARK    6  A    between atoms: C_17  and  C_18
REMARK    7  A    between atoms: C_17  and  C_19
REMARK    8  A    between atoms: C_21  and  C_22
REMARK    9  A    between atoms: C_21  and  C_23
REMARK                            x       y       z     vdW  Elec       q    Type
REMARK                         _______ _______ _______ _____ _____    ______ ____
ROOT
ATOM      1  C   UNL     1       2.195   5.294  19.614  0.00  0.00    +0.000 C 
ATOM      2  C   UNL     1       3.233   4.693  18.993  0.00  0.00    +0.000 C 
ATOM      3  C   UNL     1       3.498   3.181  19.096  0.00  0.00    +0.000 C 
ATOM      4  C   UNL     1       4.854   2.960  19.821  0.00  0.00    +0.000 C 
ATOM      5  C   UNL     1       3.608   2.523  17.697  0.00  0.00    +0.000 C 
ATOM      6  C   UNL     1       2.429   2.355  19.876  0.00  0.00    +0.000 C 
ATOM      7  C   UNL     1       1.211   3.047  20.528  0.00  0.00    +0.000 C 
ATOM      8  C   UNL     1      -0.075   2.494  19.866  0.00  0.00    +0.000 C 
ATOM      9  C   UNL     1       1.162   2.623  22.018  0.00  0.00    +0.000 C 
ATOM     10  C   UNL     1       1.175   4.589  20.461  0.00  0.00    +0.000 C 
ENDROOT
BRANCH   1  14
ATOM     11  C   UNL     1       0.936   9.627  21.875  0.00  0.00    +0.000 C 
ATOM     12  C   UNL     1       1.336   8.849  20.658  0.00  0.00    +0.000 A 
ATOM     13  C   UNL     1       1.589   7.470  20.717  0.00  0.00    +0.000 A 
ATOM     14  C   UNL     1       1.973   6.762  19.566  0.00  0.00    +0.000 A 
ATOM     15  C   UNL     1       2.104   7.442  18.349  0.00  0.00    +0.000 A 
ATOM     16  C   UNL     1       1.861   8.814  18.285  0.00  0.00    +0.000 A 
ATOM     17  C   UNL     1       1.487   9.505  19.433  0.00  0.00    +0.000 A 
ATOM     18  F   UNL     1       1.256  10.825  19.350  0.00  0.00    +0.000 F 
ENDBRANCH   1  14
BRANCH   2  19
ATOM     19  C   UNL     1       4.274   5.502  18.347  0.00  0.00    +0.000 C 
ATOM     20  C   UNL     1       4.409   5.707  17.026  0.00  0.00    +0.000 C 
BRANCH  20  21
ATOM     21  C   UNL     1       5.594   6.344  16.337  0.00  0.00    +0.000 C 
ATOM     22  C   UNL     1       6.925   6.047  17.004  0.00  0.00    +0.000 C 
ATOM     23  C   UNL     1       7.292   4.600  16.751  0.00  0.00    +0.000 C 
ATOM     24  C   UNL     1       7.352   4.322  15.265  0.00  0.00    +0.000 C 
ATOM     25  C   UNL     1       6.210   4.896  14.472  0.00  0.00    +0.000 C 
ATOM     26  O   UNL     1       5.914   4.447  13.368  0.00  0.00    +0.000 OA
ATOM     27  O   UNL     1       5.620   6.019  14.936  0.00  0.00    +0.000 OA
BRANCH  23  28
ATOM     28  O   UNL     1       8.553   4.323  17.357  0.00  0.00    +0.000 OA
ATOM     29  H   UNL     1       9.125   5.106  17.270  0.00  0.00    +0.000 HD
ENDBRANCH  23  28
ENDBRANCH  20  21
ENDBRANCH   2  19
TORSDOF 4
ENDMDL
MODEL 2
REMARK VINA RESULT:      -7.9      2.911      6.466
REMARK  Name = 
REMARK  9 active torsions:
REMARK  status: ('A' for Active; 'I' for Inactive)
REMARK    1  A    between atoms: C_1  and  C_2
REMARK    2  A    between atoms: C_4  and  C_5
REMARK    3  A    between atoms: C_6  and  C_7
REMARK    4  A    between atoms: C_8  and  C_9
REMARK    5  A    between atoms: C_11  and  O_12
REMARK    6  A    between atoms: C_17  and  C_18
REMARK    7  A    between atoms: C_17  and  C_19
REMARK    8  A    between atoms: C_21  and  C_22
REMARK    9  A    between atoms: C_21  and  C_23
REMARK                            x       y       z     vdW  Elec       q    Type
REMARK                         _______ _______ _______ _____ _____    ______ ____
ROOT
ATOM      1  C   UNL     1       2.072   8.000  18.993  0.00  0.00    +0.000 C 
ATOM      2  C   UNL     1       1.535   7.729  20.202  0.00  0.00    +0.000 C 
ATOM      3  C   UNL     1       0.727   8.765  21.002  0.00  0.00    +0.000 C 
ATOM      4  C   UNL     1       1.490   9.089  22.315  0.00  0.00    +0.000 C 
ATOM      5  C   UNL     1      -0.669   8.219  21.399  0.00  0.00    +0.000 C 
ATOM      6  C   UNL     1       0.466  10.125  20.284  0.00  0.00    +0.000 C 
ATOM      7  C   UNL     1       1.033  10.400  18.873  0.00  0.00    +0.000 C 
ATOM      8  C   UNL     1      -0.156  10.630  17.907  0.00  0.00    +0.000 C 
ATOM      9  C   UNL     1       1.826  11.730  18.928  0.00  0.00    +0.000 C 
ATOM     10  C   UNL     1       1.950   9.313  18.274  0.00  0.00    +0.000 C 
ENDROOT
BRANCH   1  14
ATOM     11  C   UNL     1       6.434   6.694  16.817  0.00  0.00    +0.000 C 
ATOM     12  C   UNL     1       5.006   6.408  17.172  0.00  0.00    +0.000 A 
ATOM     13  C   UNL     1       4.237   7.315  17.916  0.00  0.00    +0.000 A 
ATOM     14  C   UNL     1       2.904   7.022  18.247  0.00  0.00    +0.000 A 
ATOM     15  C   UNL     1       2.340   5.809  17.830  0.00  0.00    +0.000 A 
ATOM     16  C   UNL     1       3.101   4.900  17.096  0.00  0.00    +0.000 A 
ATOM     17  C   UNL     1       4.422   5.200  16.779  0.00  0.00    +0.000 A 
ATOM     18  F   UNL     1       5.138   4.312  16.071  0.00  0.00    +0.000 F 
ENDBRANCH   1  14
BRANCH   2  19
ATOM     19  C   UNL     1       1.873   6.480  20.895  0.00  0.00    +0.000 C 
ATOM     20  C   UNL     1       1.821   5.244  20.368  0.00  0.00    +0.000 C 
BRANCH  20  21
ATOM     21  C   UNL     1       1.947   3.943  21.127  0.00  0.00    +0.000 C 
ATOM     22  C   UNL     1       0.976   2.869  20.668  0.00  0.00    +0.000 C 
ATOM     23  C   UNL     1       1.410   2.359  19.310  0.00  0.00    +0.000 C 
ATOM     24  C   UNL     1       2.824   1.826  19.372  0.00  0.00    +0.000 C 
ATOM     25  C   UNL     1       3.791   2.698  20.125  0.00  0.00    +0.000 C 
ATOM     26  O   UNL     1       5.002   2.611  19.939  0.00  0.00    +0.000 OA
ATOM     27  O   UNL     1       3.304   3.466  21.123  0.00  0.00    +0.000 OA
BRANCH  23  28
ATOM     28  O   UNL     1       0.513   1.333  18.886  0.00  0.00    +0.000 OA
ATOM     29  H   UNL     1      -0.396   1.681  18.901  0.00  0.00    +0.000 HD
ENDBRANCH  23  28
ENDBRANCH  20  21
ENDBRANCH   2  19
TORSDOF 4
ENDMDL
MODEL 3
REMARK VINA RESULT:      -7.9      2.912      6.429
REMARK  Name = 
REMARK  9 active torsions:
REMARK  status: ('A' for Active; 'I' for Inactive)
REMARK    1  A    between atoms: C_1  and  C_2
REMARK    2  A    between atoms: C_4  and  C_5
REMARK    3  A    between atoms: C_6  and  C_7
REMARK    4  A    between atoms: C_8  and  C_9
REMARK    5  A    between atoms: C_11  and  O_12
REMARK    6  A    between atoms: C_17  and  C_18
REMARK    7  A    between atoms: C_17  and  C_19
REMARK    8  A    between atoms: C_21  and  C_22
REMARK    9  A    between atoms: C_21  and  C_23
REMARK                            x       y       z     vdW  Elec       q    Type
REMARK                         _______ _______ _______ _____ _____    ______ ____
ROOT
ATOM      1  C   UNL     1       2.128   8.045  18.853  0.00  0.00    +0.000 C 
ATOM      2  C   UNL     1       1.660   7.706  20.073  0.00  0.00    +0.000 C 
ATOM      3  C   UNL     1       0.809   8.660  20.929  0.00  0.00    +0.000 C 
ATOM      4  C   UNL     1       1.597   9.009  22.222  0.00  0.00    +0.000 C 
ATOM      5  C   UNL     1      -0.526   8.003  21.363  0.00  0.00    +0.000 C 
ATOM      6  C   UNL     1       0.423  10.014  20.257  0.00  0.00    +0.000 C 
ATOM      7  C   UNL     1       0.913  10.364  18.835  0.00  0.00    +0.000 C 
ATOM      8  C   UNL     1      -0.326  10.527  17.919  0.00  0.00    +0.000 C 
ATOM      9  C   UNL     1       1.608  11.747  18.895  0.00  0.00    +0.000 C 
ATOM     10  C   UNL     1       1.883   9.361  18.173  0.00  0.00    +0.000 C 
ENDROOT
BRANCH   1  14
ATOM     11  C   UNL     1       3.056   3.564  16.722  0.00  0.00    +0.000 C 
ATOM     12  C   UNL     1       3.456   4.972  17.048  0.00  0.00    +0.000 A 
ATOM     13  C   UNL     1       2.609   5.830  17.766  0.00  0.00    +0.000 A 
ATOM     14  C   UNL     1       3.000   7.149  18.052  0.00  0.00    +0.000 A 
ATOM     15  C   UNL     1       4.248   7.609  17.612  0.00  0.00    +0.000 A 
ATOM     16  C   UNL     1       5.091   6.763  16.892  0.00  0.00    +0.000 A 
ATOM     17  C   UNL     1       4.690   5.461  16.611  0.00  0.00    +0.000 A 
ATOM     18  F   UNL     1       5.517   4.663  15.917  0.00  0.00    +0.000 F 
ENDBRANCH   1  14
BRANCH   2  19
ATOM     19  C   UNL     1       2.114   6.470  20.720  0.00  0.00    +0.000 C 
ATOM     20  C   UNL     1       1.712   5.224  20.416  0.00  0.00    +0.000 C 
BRANCH  20  21
ATOM     21  C   UNL     1       1.996   3.972  21.214  0.00  0.00    +0.000 C 
ATOM     22  C   UNL     1       1.120   2.791  20.837  0.00  0.00    +0.000 C 
ATOM     23  C   UNL     1       1.547   2.273  19.481  0.00  0.00    +0.000 C 
ATOM     24  C   UNL     1       3.009   1.883  19.500  0.00  0.00    +0.000 C 
ATOM     25  C   UNL     1       3.913   2.874  20.178  0.00  0.00    +0.000 C 
ATOM     26  O   UNL     1       5.119   2.899  19.943  0.00  0.00    +0.000 OA
ATOM     27  O   UNL     1       3.392   3.630  21.169  0.00  0.00    +0.000 OA
BRANCH  23  28
ATOM     28  O   UNL     1       0.740   1.148  19.133  0.00  0.00    +0.000 OA
ATOM     29  H   UNL     1      -0.092   1.187  19.637  0.00  0.00    +0.000 HD
ENDBRANCH  23  28
ENDBRANCH  20  21
ENDBRANCH   2  19
TORSDOF 4
ENDMDL
MODEL 4
REMARK VINA RESULT:      -7.8      0.886      1.540
REMARK  Name = 
REMARK  9 active torsions:
REMARK  status: ('A' for Active; 'I' for Inactive)
REMARK    1  A    between atoms: C_1  and  C_2
REMARK    2  A    between atoms: C_4  and  C_5
REMARK    3  A    between atoms: C_6  and  C_7
REMARK    4  A    between atoms: C_8  and  C_9
REMARK    5  A    between atoms: C_11  and  O_12
REMARK    6  A    between atoms: C_17  and  C_18
REMARK    7  A    between atoms: C_17  and  C_19
REMARK    8  A    between atoms: C_21  and  C_22
REMARK    9  A    between atoms: C_21  and  C_23
REMARK                            x       y       z     vdW  Elec       q    Type
REMARK                         _______ _______ _______ _____ _____    ______ ____
ROOT
ATOM      1  C   UNL     1       2.113   5.427  19.754  0.00  0.00    +0.000 C 
ATOM      2  C   UNL     1       3.128   4.971  18.990  0.00  0.00    +0.000 C 
ATOM      3  C   UNL     1       3.500   3.480  18.908  0.00  0.00    +0.000 C 
ATOM      4  C   UNL     1       4.927   3.289  19.491  0.00  0.00    +0.000 C 
ATOM      5  C   UNL     1       3.526   2.976  17.443  0.00  0.00    +0.000 C 
ATOM      6  C   UNL     1       2.561   2.503  19.682  0.00  0.00    +0.000 C 
ATOM      7  C   UNL     1       1.365   3.033  20.503  0.00  0.00    +0.000 C 
ATOM      8  C   UNL     1       0.063   2.455  19.894  0.00  0.00    +0.000 C 
ATOM      9  C   UNL     1       1.478   2.459  21.938  0.00  0.00    +0.000 C 
ATOM     10  C   UNL     1       1.222   4.566  20.603  0.00  0.00    +0.000 C 
ENDROOT
BRANCH   1  14
ATOM     11  C   UNL     1       1.800  10.055  17.765  0.00  0.00    +0.000 C 
ATOM     12  C   UNL     1       1.670   9.112  18.922  0.00  0.00    +0.000 A 
ATOM     13  C   UNL     1       1.931   7.740  18.786  0.00  0.00    +0.000 A 
ATOM     14  C   UNL     1       1.792   6.872  19.882  0.00  0.00    +0.000 A 
ATOM     15  C   UNL     1       1.388   7.384  21.121  0.00  0.00    +0.000 A 
ATOM     16  C   UNL     1       1.120   8.746  21.262  0.00  0.00    +0.000 A 
ATOM     17  C   UNL     1       1.256   9.594  20.168  0.00  0.00    +0.000 A 
ATOM     18  F   UNL     1       0.995  10.902  20.323  0.00  0.00    +0.000 F 
ENDBRANCH   1  14
BRANCH   2  19
ATOM     19  C   UNL     1       4.051   5.916  18.349  0.00  0.00    +0.000 C 
ATOM     20  C   UNL     1       4.174   6.128  17.028  0.00  0.00    +0.000 C 
BRANCH  20  21
ATOM     21  C   UNL     1       5.265   6.924  16.348  0.00  0.00    +0.000 C 
ATOM     22  C   UNL     1       6.354   7.402  17.292  0.00  0.00    +0.000 C 
ATOM     23  C   UNL     1       7.196   6.217  17.715  0.00  0.00    +0.000 C 
ATOM     24  C   UNL     1       7.786   5.527  16.503  0.00  0.00    +0.000 C 
ATOM     25  C   UNL     1       6.823   5.323  15.367  0.00  0.00    +0.000 C 
ATOM     26  O   UNL     1       7.025   4.467  14.509  0.00  0.00    +0.000 OA
ATOM     27  O   UNL     1       5.812   6.208  15.227  0.00  0.00    +0.000 OA
BRANCH  23  28
ATOM     28  O   UNL     1       8.235   6.665  18.583  0.00  0.00    +0.000 OA
ATOM     29  H   UNL     1       8.085   6.300  19.472  0.00  0.00    +0.000 HD
ENDBRANCH  23  28
ENDBRANCH  20  21
ENDBRANCH   2  19
TORSDOF 4
ENDMDL
MODEL 5
REMARK VINA RESULT:      -7.7      6.031      9.423
REMARK  Name = 
REMARK  9 active torsions:
REMARK  status: ('A' for Active; 'I' for Inactive)
REMARK    1  A    between atoms: C_1  and  C_2
REMARK    2  A    between atoms: C_4  and  C_5
REMARK    3  A    between atoms: C_6  and  C_7
REMARK    4  A    between atoms: C_8  and  C_9
REMARK    5  A    between atoms: C_11  and  O_12
REMARK    6  A    between atoms: C_17  and  C_18
REMARK    7  A    between atoms: C_17  and  C_19
REMARK    8  A    between atoms: C_21  and  C_22
REMARK    9  A    between atoms: C_21  and  C_23
REMARK                            x       y       z     vdW  Elec       q    Type
REMARK                         _______ _______ _______ _____ _____    ______ ____
ROOT
ATOM      1  C   UNL     1      -3.843  12.336  19.527  0.00  0.00    +0.000 C 
ATOM      2  C   UNL     1      -2.975  11.771  18.659  0.00  0.00    +0.000 C 
ATOM      3  C   UNL     1      -3.435  10.990  17.416  0.00  0.00    +0.000 C 
ATOM      4  C   UNL     1      -2.993   9.508  17.565  0.00  0.00    +0.000 C 
ATOM      5  C   UNL     1      -2.785  11.540  16.121  0.00  0.00    +0.000 C 
ATOM      6  C   UNL     1      -4.973  10.978  17.152  0.00  0.00    +0.000 C 
ATOM      7  C   UNL     1      -5.951  11.682  18.119  0.00  0.00    +0.000 C 
ATOM      8  C   UNL     1      -6.682  12.804  17.341  0.00  0.00    +0.000 C 
ATOM      9  C   UNL     1      -7.032  10.654  18.538  0.00  0.00    +0.000 C 
ATOM     10  C   UNL     1      -5.338  12.290  19.399  0.00  0.00    +0.000 C 
ENDROOT
BRANCH   1  14
ATOM     11  C   UNL     1      -3.875  12.844  24.548  0.00  0.00    +0.000 C 
ATOM     12  C   UNL     1      -3.444  13.295  23.185  0.00  0.00    +0.000 A 
ATOM     13  C   UNL     1      -3.826  12.603  22.026  0.00  0.00    +0.000 A 
ATOM     14  C   UNL     1      -3.402  13.037  20.759  0.00  0.00    +0.000 A 
ATOM     15  C   UNL     1      -2.588  14.173  20.656  0.00  0.00    +0.000 A 
ATOM     16  C   UNL     1      -2.199  14.861  21.805  0.00  0.00    +0.000 A 
ATOM     17  C   UNL     1      -2.622  14.418  23.053  0.00  0.00    +0.000 A 
ATOM     18  F   UNL     1      -2.238  15.095  24.147  0.00  0.00    +0.000 F 
ENDBRANCH   1  14
BRANCH   2  19
ATOM     19  C   UNL     1      -1.544  11.715  18.979  0.00  0.00    +0.000 C 
ATOM     20  C   UNL     1      -0.963  10.884  19.862  0.00  0.00    +0.000 C 
BRANCH  20  21
ATOM     21  C   UNL     1       0.461  10.966  20.363  0.00  0.00    +0.000 C 
ATOM     22  C   UNL     1       0.577  11.000  21.877  0.00  0.00    +0.000 C 
ATOM     23  C   UNL     1       0.242   9.631  22.429  0.00  0.00    +0.000 C 
ATOM     24  C   UNL     1       1.157   8.583  21.834  0.00  0.00    +0.000 C 
ATOM     25  C   UNL     1       1.364   8.700  20.349  0.00  0.00    +0.000 C 
ATOM     26  O   UNL     1       1.741   7.739  19.683  0.00  0.00    +0.000 OA
ATOM     27  O   UNL     1       1.275   9.928  19.794  0.00  0.00    +0.000 OA
BRANCH  23  28
ATOM     28  O   UNL     1       0.373   9.653  23.850  0.00  0.00    +0.000 OA
ATOM     29  H   UNL     1       0.950  10.395  24.103  0.00  0.00    +0.000 HD
ENDBRANCH  23  28
ENDBRANCH  20  21
ENDBRANCH   2  19
TORSDOF 4
ENDMDL
MODEL 6
REMARK VINA RESULT:      -7.6      7.823     10.010
REMARK  Name = 
REMARK  9 active torsions:
REMARK  status: ('A' for Active; 'I' for Inactive)
REMARK    1  A    between atoms: C_1  and  C_2
REMARK    2  A    between atoms: C_4  and  C_5
REMARK    3  A    between atoms: C_6  and  C_7
REMARK    4  A    between atoms: C_8  and  C_9
REMARK    5  A    between atoms: C_11  and  O_12
REMARK    6  A    between atoms: C_17  and  C_18
REMARK    7  A    between atoms: C_17  and  C_19
REMARK    8  A    between atoms: C_21  and  C_22
REMARK    9  A    between atoms: C_21  and  C_23
REMARK                            x       y       z     vdW  Elec       q    Type
REMARK                         _______ _______ _______ _____ _____    ______ ____
ROOT
ATOM      1  C   UNL     1      -3.879  12.494  19.721  0.00  0.00    +0.000 C 
ATOM      2  C   UNL     1      -2.962  11.805  19.007  0.00  0.00    +0.000 C 
ATOM      3  C   UNL     1      -3.309  11.072  17.700  0.00  0.00    +0.000 C 
ATOM      4  C   UNL     1      -3.100   9.547  17.913  0.00  0.00    +0.000 C 
ATOM      5  C   UNL     1      -2.384  11.509  16.536  0.00  0.00    +0.000 C 
ATOM      6  C   UNL     1      -4.769  11.260  17.182  0.00  0.00    +0.000 C 
ATOM      7  C   UNL     1      -5.791  12.103  17.976  0.00  0.00    +0.000 C 
ATOM      8  C   UNL     1      -6.225  13.299  17.093  0.00  0.00    +0.000 C 
ATOM      9  C   UNL     1      -7.055  11.234  18.202  0.00  0.00    +0.000 C 
ATOM     10  C   UNL     1      -5.325  12.645  19.344  0.00  0.00    +0.000 C 
ENDROOT
BRANCH   1  14
ATOM     11  C   UNL     1      -4.105  12.625  24.761  0.00  0.00    +0.000 C 
ATOM     12  C   UNL     1      -3.697  13.224  23.449  0.00  0.00    +0.000 A 
ATOM     13  C   UNL     1      -3.961  12.577  22.232  0.00  0.00    +0.000 A 
ATOM     14  C   UNL     1      -3.559  13.151  21.014  0.00  0.00    +0.000 A 
ATOM     15  C   UNL     1      -2.889  14.381  21.018  0.00  0.00    +0.000 A 
ATOM     16  C   UNL     1      -2.617  15.025  22.225  0.00  0.00    +0.000 A 
ATOM     17  C   UNL     1      -3.015  14.444  23.425  0.00  0.00    +0.000 A 
ATOM     18  F   UNL     1      -2.746  15.080  24.576  0.00  0.00    +0.000 F 
ENDBRANCH   1  14
BRANCH   2  19
ATOM     19  C   UNL     1      -1.625  11.565  19.562  0.00  0.00    +0.000 C 
ATOM     20  C   UNL     1      -0.515  12.271  19.283  0.00  0.00    +0.000 C 
BRANCH  20  21
ATOM     21  C   UNL     1       0.900  11.900  19.667  0.00  0.00    +0.000 C 
ATOM     22  C   UNL     1       1.927  12.206  18.592  0.00  0.00    +0.000 C 
ATOM     23  C   UNL     1       2.122  13.705  18.508  0.00  0.00    +0.000 C 
ATOM     24  C   UNL     1       2.552  14.259  19.849  0.00  0.00    +0.000 C 
ATOM     25  C   UNL     1       1.782  13.725  21.025  0.00  0.00    +0.000 C 
ATOM     26  O   UNL     1       1.741  14.338  22.089  0.00  0.00    +0.000 OA
ATOM     27  O   UNL     1       1.267  12.480  20.930  0.00  0.00    +0.000 OA
BRANCH  23  28
ATOM     28  O   UNL     1       3.105  13.996  17.515  0.00  0.00    +0.000 OA
ATOM     29  H   UNL     1       3.240  14.959  17.476  0.00  0.00    +0.000 HD
ENDBRANCH  23  28
ENDBRANCH  20  21
ENDBRANCH   2  19
TORSDOF 4
ENDMDL
MODEL 7
REMARK VINA RESULT:      -7.5      6.015      9.412
REMARK  Name = 
REMARK  9 active torsions:
REMARK  status: ('A' for Active; 'I' for Inactive)
REMARK    1  A    between atoms: C_1  and  C_2
REMARK    2  A    between atoms: C_4  and  C_5
REMARK    3  A    between atoms: C_6  and  C_7
REMARK    4  A    between atoms: C_8  and  C_9
REMARK    5  A    between atoms: C_11  and  O_12
REMARK    6  A    between atoms: C_17  and  C_18
REMARK    7  A    between atoms: C_17  and  C_19
REMARK    8  A    between atoms: C_21  and  C_22
REMARK    9  A    between atoms: C_21  and  C_23
REMARK                            x       y       z     vdW  Elec       q    Type
REMARK                         _______ _______ _______ _____ _____    ______ ____
ROOT
ATOM      1  C   UNL     1      -3.779  12.398  19.617  0.00  0.00    +0.000 C 
ATOM      2  C   UNL     1      -2.911  11.839  18.747  0.00  0.00    +0.000 C 
ATOM      3  C   UNL     1      -3.370  11.033  17.520  0.00  0.00    +0.000 C 
ATOM      4  C   UNL     1      -2.899   9.562  17.683  0.00  0.00    +0.000 C 
ATOM      5  C   UNL     1      -2.745  11.578  16.211  0.00  0.00    +0.000 C 
ATOM      6  C   UNL     1      -4.910  10.989  17.274  0.00  0.00    +0.000 C 
ATOM      7  C   UNL     1      -5.890  11.687  18.243  0.00  0.00    +0.000 C 
ATOM      8  C   UNL     1      -6.650  12.785  17.459  0.00  0.00    +0.000 C 
ATOM      9  C   UNL     1      -6.947  10.644  18.687  0.00  0.00    +0.000 C 
ATOM     10  C   UNL     1      -5.275  12.323  19.508  0.00  0.00    +0.000 C 
ENDROOT
BRANCH   1  14
ATOM     11  C   UNL     1      -2.349  16.653  21.927  0.00  0.00    +0.000 C 
ATOM     12  C   UNL     1      -2.619  15.178  21.940  0.00  0.00    +0.000 A 
ATOM     13  C   UNL     1      -3.080  14.504  20.798  0.00  0.00    +0.000 A 
ATOM     14  C   UNL     1      -3.337  13.124  20.836  0.00  0.00    +0.000 A 
ATOM     15  C   UNL     1      -3.131  12.416  22.027  0.00  0.00    +0.000 A 
ATOM     16  C   UNL     1      -2.680  13.080  23.167  0.00  0.00    +0.000 A 
ATOM     17  C   UNL     1      -2.434  14.449  23.118  0.00  0.00    +0.000 A 
ATOM     18  F   UNL     1      -1.999  15.070  24.225  0.00  0.00    +0.000 F 
ENDBRANCH   1  14
BRANCH   2  19
ATOM     19  C   UNL     1      -1.475  11.813  19.051  0.00  0.00    +0.000 C 
ATOM     20  C   UNL     1      -0.803  10.791  19.609  0.00  0.00    +0.000 C 
BRANCH  20  21
ATOM     21  C   UNL     1       0.615  10.833  20.131  0.00  0.00    +0.000 C 
ATOM     22  C   UNL     1       0.710  10.948  21.642  0.00  0.00    +0.000 C 
ATOM     23  C   UNL     1       0.300   9.631  22.264  0.00  0.00    +0.000 C 
ATOM     24  C   UNL     1       1.171   8.507  21.746  0.00  0.00    +0.000 C 
ATOM     25  C   UNL     1       1.406   8.529  20.261  0.00  0.00    +0.000 C 
ATOM     26  O   UNL     1       1.745   7.515  19.657  0.00  0.00    +0.000 OA
ATOM     27  O   UNL     1       1.387   9.725  19.636  0.00  0.00    +0.000 OA
BRANCH  23  28
ATOM     28  O   UNL     1       0.410   9.728  23.684  0.00  0.00    +0.000 OA
ATOM     29  H   UNL     1       0.858  10.561  23.910  0.00  0.00    +0.000 HD
ENDBRANCH  23  28
ENDBRANCH  20  21
ENDBRANCH   2  19
TORSDOF 4
ENDMDL
MODEL 8
REMARK VINA RESULT:      -7.4      6.747      9.562
REMARK  Name = 
REMARK  9 active torsions:
REMARK  status: ('A' for Active; 'I' for Inactive)
REMARK    1  A    between atoms: C_1  and  C_2
REMARK    2  A    between atoms: C_4  and  C_5
REMARK    3  A    between atoms: C_6  and  C_7
REMARK    4  A    between atoms: C_8  and  C_9
REMARK    5  A    between atoms: C_11  and  O_12
REMARK    6  A    between atoms: C_17  and  C_18
REMARK    7  A    between atoms: C_17  and  C_19
REMARK    8  A    between atoms: C_21  and  C_22
REMARK    9  A    between atoms: C_21  and  C_23
REMARK                            x       y       z     vdW  Elec       q    Type
REMARK                         _______ _______ _______ _____ _____    ______ ____
ROOT
ATOM      1  C   UNL     1      -3.504  12.407  19.678  0.00  0.00    +0.000 C 
ATOM      2  C   UNL     1      -2.779  11.752  18.745  0.00  0.00    +0.000 C 
ATOM      3  C   UNL     1      -3.425  11.025  17.553  0.00  0.00    +0.000 C 
ATOM      4  C   UNL     1      -3.134   9.504  17.677  0.00  0.00    +0.000 C 
ATOM      5  C   UNL     1      -2.831  11.502  16.202  0.00  0.00    +0.000 C 
ATOM      6  C   UNL     1      -4.972  11.180  17.419  0.00  0.00    +0.000 C 
ATOM      7  C   UNL     1      -5.782  11.985  18.459  0.00  0.00    +0.000 C 
ATOM      8  C   UNL     1      -6.451  13.180  17.736  0.00  0.00    +0.000 C 
ATOM      9  C   UNL     1      -6.928  11.079  18.977  0.00  0.00    +0.000 C 
ATOM     10  C   UNL     1      -5.001  12.523  19.677  0.00  0.00    +0.000 C 
ENDROOT
BRANCH   1  14
ATOM     11  C   UNL     1      -1.246  16.367  21.844  0.00  0.00    +0.000 C 
ATOM     12  C   UNL     1      -1.770  14.963  21.896  0.00  0.00    +0.000 A 
ATOM     13  C   UNL     1      -2.393  14.369  20.788  0.00  0.00    +0.000 A 
ATOM     14  C   UNL     1      -2.887  13.056  20.862  0.00  0.00    +0.000 A 
ATOM     15  C   UNL     1      -2.754  12.336  22.056  0.00  0.00    +0.000 A 
ATOM     16  C   UNL     1      -2.142  12.923  23.163  0.00  0.00    +0.000 A 
ATOM     17  C   UNL     1      -1.662  14.226  23.078  0.00  0.00    +0.000 A 
ATOM     18  F   UNL     1      -1.075  14.773  24.154  0.00  0.00    +0.000 F 
ENDBRANCH   1  14
BRANCH   2  19
ATOM     19  C   UNL     1      -1.340  11.541  18.943  0.00  0.00    +0.000 C 
ATOM     20  C   UNL     1      -0.778  10.576  19.691  0.00  0.00    +0.000 C 
BRANCH  20  21
ATOM     21  C   UNL     1       0.679  10.484  20.083  0.00  0.00    +0.000 C 
ATOM     22  C   UNL     1       1.638  10.597  18.912  0.00  0.00    +0.000 C 
ATOM     23  C   UNL     1       1.647  12.027  18.418  0.00  0.00    +0.000 C 
ATOM     24  C   UNL     1       2.036  12.970  19.535  0.00  0.00    +0.000 C 
ATOM     25  C   UNL     1       1.362  12.697  20.851  0.00  0.00    +0.000 C 
ATOM     26  O   UNL     1       1.271  13.568  21.712  0.00  0.00    +0.000 OA
ATOM     27  O   UNL     1       1.000  11.424  21.123  0.00  0.00    +0.000 OA
BRANCH  23  28
ATOM     28  O   UNL     1       2.566  12.143  17.331  0.00  0.00    +0.000 OA
ATOM     29  H   UNL     1       3.112  12.938  17.462  0.00  0.00    +0.000 HD
ENDBRANCH  23  28
ENDBRANCH  20  21
ENDBRANCH   2  19
TORSDOF 4
ENDMDL
MODEL 9
REMARK VINA RESULT:      -7.4      5.822      9.120
REMARK  Name = 
REMARK  9 active torsions:
REMARK  status: ('A' for Active; 'I' for Inactive)
REMARK    1  A    between atoms: C_1  and  C_2
REMARK    2  A    between atoms: C_4  and  C_5
REMARK    3  A    between atoms: C_6  and  C_7
REMARK    4  A    between atoms: C_8  and  C_9
REMARK    5  A    between atoms: C_11  and  O_12
REMARK    6  A    between atoms: C_17  and  C_18
REMARK    7  A    between atoms: C_17  and  C_19
REMARK    8  A    between atoms: C_21  and  C_22
REMARK    9  A    between atoms: C_21  and  C_23
REMARK                            x       y       z     vdW  Elec       q    Type
REMARK                         _______ _______ _______ _____ _____    ______ ____
ROOT
ATOM      1  C   UNL     1      -3.857  12.350  19.893  0.00  0.00    +0.000 C 
ATOM      2  C   UNL     1      -3.187  11.784  18.866  0.00  0.00    +0.000 C 
ATOM      3  C   UNL     1      -3.892  10.981  17.759  0.00  0.00    +0.000 C 
ATOM      4  C   UNL     1      -3.408   9.507  17.825  0.00  0.00    +0.000 C 
ATOM      5  C   UNL     1      -3.541  11.521  16.349  0.00  0.00    +0.000 C 
ATOM      6  C   UNL     1      -5.450  10.949  17.829  0.00  0.00    +0.000 C 
ATOM      7  C   UNL     1      -6.208  11.654  18.976  0.00  0.00    +0.000 C 
ATOM      8  C   UNL     1      -7.104  12.758  18.360  0.00  0.00    +0.000 C 
ATOM      9  C   UNL     1      -7.161  10.620  19.627  0.00  0.00    +0.000 C 
ATOM     10  C   UNL     1      -5.345  12.286  20.088  0.00  0.00    +0.000 C 
ENDROOT
BRANCH   1  14
ATOM     11  C   UNL     1      -1.425  16.411  21.646  0.00  0.00    +0.000 C 
ATOM     12  C   UNL     1      -1.972  15.027  21.828  0.00  0.00    +0.000 A 
ATOM     13  C   UNL     1      -2.658  14.366  20.798  0.00  0.00    +0.000 A 
ATOM     14  C   UNL     1      -3.172  13.073  20.995  0.00  0.00    +0.000 A 
ATOM     15  C   UNL     1      -2.997  12.442  22.233  0.00  0.00    +0.000 A 
ATOM     16  C   UNL     1      -2.322  13.097  23.263  0.00  0.00    +0.000 A 
ATOM     17  C   UNL     1      -1.823  14.378  23.057  0.00  0.00    +0.000 A 
ATOM     18  F   UNL     1      -1.175  14.992  24.061  0.00  0.00    +0.000 F 
ENDBRANCH   1  14
BRANCH   2  19
ATOM     19  C   UNL     1      -1.720  11.748  18.873  0.00  0.00    +0.000 C 
ATOM     20  C   UNL     1      -0.952  10.988  19.671  0.00  0.00    +0.000 C 
BRANCH  20  21
ATOM     21  C   UNL     1       0.545  11.104  19.846  0.00  0.00    +0.000 C 
ATOM     22  C   UNL     1       1.083  10.351  21.050  0.00  0.00    +0.000 C 
ATOM     23  C   UNL     1       1.022   8.865  20.770  0.00  0.00    +0.000 C 
ATOM     24  C   UNL     1       1.808   8.529  19.521  0.00  0.00    +0.000 C 
ATOM     25  C   UNL     1       1.576   9.461  18.365  0.00  0.00    +0.000 C 
ATOM     26  O   UNL     1       1.820   9.116  17.211  0.00  0.00    +0.000 OA
ATOM     27  O   UNL     1       1.241  10.740  18.641  0.00  0.00    +0.000 OA
BRANCH  23  28
ATOM     28  O   UNL     1       1.548   8.154  21.891  0.00  0.00    +0.000 OA
ATOM     29  H   UNL     1       1.649   8.771  22.637  0.00  0.00    +0.000 HD
ENDBRANCH  23  28
ENDBRANCH  20  21
ENDBRANCH   2  19
TORSDOF 4
ENDMDL
