MODEL 1
REMARK VINA RESULT:      -8.4      0.000      0.000
REMARK  Name = 
REMARK  5 active torsions:
REMARK  status: ('A' for Active; 'I' for Inactive)
REMARK    1  A    between atoms: C_2  and  C_4
REMARK    2  A    between atoms: C_7  and  C_8
REMARK    3  A    between atoms: C_8  and  C_9
REMARK    4  A    between atoms: C_12  and  C_13
REMARK    5  A    between atoms: C_16  and  C_17
REMARK                            x       y       z     vdW  Elec       q    Type
REMARK                         _______ _______ _______ _____ _____    ______ ____
ROOT
ATOM      1  C   UNL     1       6.482   6.622  17.134  0.00  0.00    +0.000 A 
ATOM      2  C   UNL     1       7.316   5.942  17.993  0.00  0.00    +0.000 A 
ATOM      3  C   UNL     1       8.165   6.914  18.578  0.00  0.00    +0.000 A 
ATOM      4  C   UNL     1       7.835   8.137  18.024  0.00  0.00    +0.000 A 
ATOM      5  O   UNL     1       6.785   7.953  17.153  0.00  0.00    +0.000 OA
ENDROOT
BRANCH   4   6
ATOM      6  C   UNL     1       8.456   9.414  18.233  0.00  0.00    +0.000 A 
ATOM      7  C   UNL     1       9.394   9.750  19.194  0.00  0.00    +0.000 A 
ATOM      8  C   UNL     1       9.631  11.138  19.084  0.00  0.00    +0.000 A 
ATOM      9  C   UNL     1       8.843  11.591  18.048  0.00  0.00    +0.000 A 
ATOM     10  O   UNL     1       8.149  10.541  17.506  0.00  0.00    +0.000 OA
BRANCH   9  11
ATOM     11  C   UNL     1       8.645  12.925  17.517  0.00  0.00    +0.000 C 
ATOM     12  N   UNL     1       9.661  13.709  17.330  0.00  0.00    +0.000 NA
ATOM     13  N   UNL     1       7.425  13.441  17.190  0.00  0.00    +0.000 N 
ATOM     14  H   UNL     1      10.516  13.199  17.604  0.00  0.00    +0.000 HD
ATOM     15  H   UNL     1       6.636  13.125  17.738  0.00  0.00    +0.000 HD
ATOM     16  H   UNL     1       7.469  14.446  17.071  0.00  0.00    +0.000 HD
ENDBRANCH   9  11
ENDBRANCH   4   6
BRANCH   1  17
ATOM     17  C   UNL     1       5.348   6.199  16.263  0.00  0.00    +0.000 C 
BRANCH  17  21
ATOM     18  C   UNL     1       2.307   3.916  18.214  0.00  0.00    +0.000 A 
ATOM     19  C   UNL     1       3.225   3.255  17.399  0.00  0.00    +0.000 A 
ATOM     20  C   UNL     1       4.229   3.988  16.766  0.00  0.00    +0.000 A 
ATOM     21  C   UNL     1       4.301   5.366  16.971  0.00  0.00    +0.000 A 
ATOM     22  N   UNL     1       3.407   6.025  17.756  0.00  0.00    +0.000 NA
ATOM     23  C   UNL     1       2.427   5.290  18.349  0.00  0.00    +0.000 A 
BRANCH  18  25
ATOM     24  N   UNL     1       0.808   2.053  18.434  0.00  0.00    +0.000 NA
ATOM     25  C   UNL     1       1.228   3.177  18.915  0.00  0.00    +0.000 C 
ATOM     26  N   UNL     1       0.678   3.687  20.057  0.00  0.00    +0.000 N 
ATOM     27  H   UNL     1       0.101   1.652  19.053  0.00  0.00    +0.000 HD
ATOM     28  H   UNL     1      -0.234   3.322  20.306  0.00  0.00    +0.000 HD
ATOM     29  H   UNL     1       0.704   4.699  20.141  0.00  0.00    +0.000 HD
ENDBRANCH  18  25
ENDBRANCH  17  21
ENDBRANCH   1  17
TORSDOF 5
ENDMDL
MODEL 2
REMARK VINA RESULT:      -8.4      0.566      1.212
REMARK  Name = 
REMARK  5 active torsions:
REMARK  status: ('A' for Active; 'I' for Inactive)
REMARK    1  A    between atoms: C_2  and  C_4
REMARK    2  A    between atoms: C_7  and  C_8
REMARK    3  A    between atoms: C_8  and  C_9
REMARK    4  A    between atoms: C_12  and  C_13
REMARK    5  A    between atoms: C_16  and  C_17
REMARK                            x       y       z     vdW  Elec       q    Type
REMARK                         _______ _______ _______ _____ _____    ______ ____
ROOT
ATOM      1  C   UNL     1       6.473   6.667  17.148  0.00  0.00    +0.000 A 
ATOM      2  C   UNL     1       7.298   5.983  18.013  0.00  0.00    +0.000 A 
ATOM      3  C   UNL     1       8.153   6.949  18.597  0.00  0.00    +0.000 A 
ATOM      4  C   UNL     1       7.836   8.173  18.036  0.00  0.00    +0.000 A 
ATOM      5  O   UNL     1       6.788   7.995  17.163  0.00  0.00    +0.000 OA
ENDROOT
BRANCH   4   6
ATOM      6  C   UNL     1       8.469   9.445  18.242  0.00  0.00    +0.000 A 
ATOM      7  C   UNL     1       9.403   9.777  19.208  0.00  0.00    +0.000 A 
ATOM      8  C   UNL     1       9.654  11.162  19.092  0.00  0.00    +0.000 A 
ATOM      9  C   UNL     1       8.877  11.617  18.048  0.00  0.00    +0.000 A 
ATOM     10  O   UNL     1       8.177  10.571  17.508  0.00  0.00    +0.000 OA
BRANCH   9  11
ATOM     11  C   UNL     1       8.695  12.950  17.509  0.00  0.00    +0.000 C 
ATOM     12  N   UNL     1       9.722  13.715  17.302  0.00  0.00    +0.000 NA
ATOM     13  N   UNL     1       7.480  13.484  17.193  0.00  0.00    +0.000 N 
ATOM     14  H   UNL     1      10.571  13.192  17.568  0.00  0.00    +0.000 HD
ATOM     15  H   UNL     1       6.694  13.186  17.755  0.00  0.00    +0.000 HD
ATOM     16  H   UNL     1       7.540  14.488  17.065  0.00  0.00    +0.000 HD
ENDBRANCH   9  11
ENDBRANCH   4   6
BRANCH   1  17
ATOM     17  C   UNL     1       5.339   6.250  16.274  0.00  0.00    +0.000 C 
BRANCH  17  21
ATOM     18  C   UNL     1       2.356   4.000  18.351  0.00  0.00    +0.000 A 
ATOM     19  C   UNL     1       2.427   5.376  18.559  0.00  0.00    +0.000 A 
ATOM     20  C   UNL     1       3.388   6.123  17.879  0.00  0.00    +0.000 A 
ATOM     21  C   UNL     1       4.253   5.478  16.994  0.00  0.00    +0.000 A 
ATOM     22  N   UNL     1       4.202   4.135  16.786  0.00  0.00    +0.000 NA
ATOM     23  C   UNL     1       3.266   3.426  17.475  0.00  0.00    +0.000 A 
BRANCH  18  25
ATOM     24  N   UNL     1       0.672   3.666  20.029  0.00  0.00    +0.000 NA
ATOM     25  C   UNL     1       1.344   3.166  19.044  0.00  0.00    +0.000 C 
ATOM     26  N   UNL     1       1.131   1.875  18.650  0.00  0.00    +0.000 N 
ATOM     27  H   UNL     1      -0.011   2.985  20.366  0.00  0.00    +0.000 HD
ATOM     28  H   UNL     1       0.682   1.276  19.332  0.00  0.00    +0.000 HD
ATOM     29  H   UNL     1       1.928   1.412  18.221  0.00  0.00    +0.000 HD
ENDBRANCH  18  25
ENDBRANCH  17  21
ENDBRANCH   1  17
TORSDOF 5
ENDMDL
MODEL 3
REMARK VINA RESULT:      -8.1      1.612      1.999
REMARK  Name = 
REMARK  5 active torsions:
REMARK  status: ('A' for Active; 'I' for Inactive)
REMARK    1  A    between atoms: C_2  and  C_4
REMARK    2  A    between atoms: C_7  and  C_8
REMARK    3  A    between atoms: C_8  and  C_9
REMARK    4  A    between atoms: C_12  and  C_13
REMARK    5  A    between atoms: C_16  and  C_17
REMARK                            x       y       z     vdW  Elec       q    Type
REMARK                         _______ _______ _______ _____ _____    ______ ____
ROOT
ATOM      1  C   UNL     1       6.580   6.499  17.156  0.00  0.00    +0.000 A 
ATOM      2  C   UNL     1       7.407   5.868  18.058  0.00  0.00    +0.000 A 
ATOM      3  C   UNL     1       8.195   6.883  18.655  0.00  0.00    +0.000 A 
ATOM      4  C   UNL     1       7.839   8.082  18.063  0.00  0.00    +0.000 A 
ATOM      5  O   UNL     1       6.831   7.840  17.159  0.00  0.00    +0.000 OA
ENDROOT
BRANCH   4   6
ATOM      6  C   UNL     1       8.402   9.386  18.269  0.00  0.00    +0.000 A 
ATOM      7  C   UNL     1       8.235  10.512  17.482  0.00  0.00    +0.000 A 
ATOM      8  C   UNL     1       9.063  11.525  18.015  0.00  0.00    +0.000 A 
ATOM      9  C   UNL     1       9.688  10.983  19.118  0.00  0.00    +0.000 A 
ATOM     10  O   UNL     1       9.266   9.692  19.295  0.00  0.00    +0.000 OA
BRANCH   9  11
ATOM     11  C   UNL     1      10.672  11.542  20.023  0.00  0.00    +0.000 C 
ATOM     12  N   UNL     1      11.910  11.651  19.654  0.00  0.00    +0.000 NA
ATOM     13  N   UNL     1      10.386  11.976  21.284  0.00  0.00    +0.000 N 
ATOM     14  H   UNL     1      11.989  11.301  18.686  0.00  0.00    +0.000 HD
ATOM     15  H   UNL     1       9.644  11.493  21.773  0.00  0.00    +0.000 HD
ATOM     16  H   UNL     1      11.228  12.102  21.833  0.00  0.00    +0.000 HD
ENDBRANCH   9  11
ENDBRANCH   4   6
BRANCH   1  17
ATOM     17  C   UNL     1       5.497   6.014  16.252  0.00  0.00    +0.000 C 
BRANCH  17  21
ATOM     18  C   UNL     1       2.402   3.907  18.312  0.00  0.00    +0.000 A 
ATOM     19  C   UNL     1       2.487   5.290  18.460  0.00  0.00    +0.000 A 
ATOM     20  C   UNL     1       3.485   5.991  17.784  0.00  0.00    +0.000 A 
ATOM     21  C   UNL     1       4.373   5.293  16.964  0.00  0.00    +0.000 A 
ATOM     22  N   UNL     1       4.308   3.942  16.816  0.00  0.00    +0.000 NA
ATOM     23  C   UNL     1       3.335   3.280  17.500  0.00  0.00    +0.000 A 
BRANCH  18  25
ATOM     24  N   UNL     1       1.074   1.926  18.594  0.00  0.00    +0.000 NA
ATOM     25  C   UNL     1       1.350   3.121  19.004  0.00  0.00    +0.000 C 
ATOM     26  N   UNL     1       0.673   3.661  20.060  0.00  0.00    +0.000 N 
ATOM     27  H   UNL     1       0.365   1.506  19.199  0.00  0.00    +0.000 HD
ATOM     28  H   UNL     1      -0.216   3.227  20.280  0.00  0.00    +0.000 HD
ATOM     29  H   UNL     1       0.597   4.675  20.058  0.00  0.00    +0.000 HD
ENDBRANCH  18  25
ENDBRANCH  17  21
ENDBRANCH   1  17
TORSDOF 5
ENDMDL
MODEL 4
REMARK VINA RESULT:      -7.9      4.344      6.531
REMARK  Name = 
REMARK  5 active torsions:
REMARK  status: ('A' for Active; 'I' for Inactive)
REMARK    1  A    between atoms: C_2  and  C_4
REMARK    2  A    between atoms: C_7  and  C_8
REMARK    3  A    between atoms: C_8  and  C_9
REMARK    4  A    between atoms: C_12  and  C_13
REMARK    5  A    between atoms: C_16  and  C_17
REMARK                            x       y       z     vdW  Elec       q    Type
REMARK                         _______ _______ _______ _____ _____    ______ ____
ROOT
ATOM      1  C   UNL     1       5.220   6.561  16.994  0.00  0.00    +0.000 A 
ATOM      2  C   UNL     1       6.541   6.543  17.382  0.00  0.00    +0.000 A 
ATOM      3  C   UNL     1       7.259   5.934  16.324  0.00  0.00    +0.000 A 
ATOM      4  C   UNL     1       6.340   5.574  15.355  0.00  0.00    +0.000 A 
ATOM      5  O   UNL     1       5.091   5.982  15.765  0.00  0.00    +0.000 OA
ENDROOT
BRANCH   4   6
ATOM      6  C   UNL     1       6.561   4.860  14.129  0.00  0.00    +0.000 A 
ATOM      7  C   UNL     1       7.576   5.056  13.209  0.00  0.00    +0.000 A 
ATOM      8  C   UNL     1       7.324   4.199  12.115  0.00  0.00    +0.000 A 
ATOM      9  C   UNL     1       6.174   3.501  12.419  0.00  0.00    +0.000 A 
ATOM     10  O   UNL     1       5.723   3.877  13.657  0.00  0.00    +0.000 OA
BRANCH   9  11
ATOM     11  C   UNL     1       5.426   2.523  11.655  0.00  0.00    +0.000 C 
ATOM     12  N   UNL     1       5.937   1.356  11.412  0.00  0.00    +0.000 NA
ATOM     13  N   UNL     1       4.179   2.745  11.148  0.00  0.00    +0.000 N 
ATOM     14  H   UNL     1       6.868   1.313  11.856  0.00  0.00    +0.000 HD
ATOM     15  H   UNL     1       3.963   3.695  10.874  0.00  0.00    +0.000 HD
ATOM     16  H   UNL     1       3.932   2.049  10.454  0.00  0.00    +0.000 HD
ENDBRANCH   9  11
ENDBRANCH   4   6
BRANCH   1  17
ATOM     17  C   UNL     1       3.979   7.098  17.623  0.00  0.00    +0.000 C 
BRANCH  17  21
ATOM     18  C   UNL     1       1.841   4.132  19.837  0.00  0.00    +0.000 A 
ATOM     19  C   UNL     1       1.930   5.423  20.354  0.00  0.00    +0.000 A 
ATOM     20  C   UNL     1       2.615   6.403  19.636  0.00  0.00    +0.000 A 
ATOM     21  C   UNL     1       3.188   6.073  18.407  0.00  0.00    +0.000 A 
ATOM     22  N   UNL     1       3.116   4.815  17.893  0.00  0.00    +0.000 NA
ATOM     23  C   UNL     1       2.457   3.874  18.622  0.00  0.00    +0.000 A 
BRANCH  18  25
ATOM     24  N   UNL     1       0.142   2.441  19.975  0.00  0.00    +0.000 NA
ATOM     25  C   UNL     1       1.113   3.061  20.561  0.00  0.00    +0.000 C 
ATOM     26  N   UNL     1       1.463   2.739  21.842  0.00  0.00    +0.000 N 
ATOM     27  H   UNL     1      -0.222   1.707  20.585  0.00  0.00    +0.000 HD
ATOM     28  H   UNL     1       0.758   2.247  22.379  0.00  0.00    +0.000 HD
ATOM     29  H   UNL     1       1.881   3.491  22.383  0.00  0.00    +0.000 HD
ENDBRANCH  18  25
ENDBRANCH  17  21
ENDBRANCH   1  17
TORSDOF 5
ENDMDL
MODEL 5
REMARK VINA RESULT:      -7.9      4.966      6.608
REMARK  Name = 
REMARK  5 active torsions:
REMARK  status: ('A' for Active; 'I' for Inactive)
REMARK    1  A    between atoms: C_2  and  C_4
REMARK    2  A    between atoms: C_7  and  C_8
REMARK    3  A    between atoms: C_8  and  C_9
REMARK    4  A    between atoms: C_12  and  C_13
REMARK    5  A    between atoms: C_16  and  C_17
REMARK                            x       y       z     vdW  Elec       q    Type
REMARK                         _______ _______ _______ _____ _____    ______ ____
ROOT
ATOM      1  C   UNL     1       3.538   4.509  19.990  0.00  0.00    +0.000 A 
ATOM      2  C   UNL     1       2.315   3.982  20.338  0.00  0.00    +0.000 A 
ATOM      3  C   UNL     1       1.420   5.077  20.431  0.00  0.00    +0.000 A 
ATOM      4  C   UNL     1       2.145   6.225  20.171  0.00  0.00    +0.000 A 
ATOM      5  O   UNL     1       3.442   5.867  19.880  0.00  0.00    +0.000 OA
ENDROOT
BRANCH   4   6
ATOM      6  C   UNL     1       1.709   7.592  20.218  0.00  0.00    +0.000 A 
ATOM      7  C   UNL     1       1.205   8.280  21.308  0.00  0.00    +0.000 A 
ATOM      8  C   UNL     1       0.811   9.558  20.853  0.00  0.00    +0.000 A 
ATOM      9  C   UNL     1       1.108   9.605  19.507  0.00  0.00    +0.000 A 
ATOM     10  O   UNL     1       1.683   8.423  19.123  0.00  0.00    +0.000 OA
BRANCH   9  11
ATOM     11  C   UNL     1       0.885  10.644  18.521  0.00  0.00    +0.000 C 
ATOM     12  N   UNL     1      -0.234  10.693  17.867  0.00  0.00    +0.000 NA
ATOM     13  N   UNL     1       1.798  11.609  18.212  0.00  0.00    +0.000 N 
ATOM     14  H   UNL     1      -0.835   9.922  18.200  0.00  0.00    +0.000 HD
ATOM     15  H   UNL     1       2.773  11.351  18.286  0.00  0.00    +0.000 HD
ATOM     16  H   UNL     1       1.559  12.081  17.348  0.00  0.00    +0.000 HD
ENDBRANCH   9  11
ENDBRANCH   4   6
BRANCH   1  17
ATOM     17  C   UNL     1       4.866   3.899  19.694  0.00  0.00    +0.000 C 
BRANCH  17  21
ATOM     18  C   UNL     1       6.266   4.364  15.682  0.00  0.00    +0.000 A 
ATOM     19  C   UNL     1       4.924   4.052  15.894  0.00  0.00    +0.000 A 
ATOM     20  C   UNL     1       4.452   3.909  17.199  0.00  0.00    +0.000 A 
ATOM     21  C   UNL     1       5.332   4.092  18.266  0.00  0.00    +0.000 A 
ATOM     22  N   UNL     1       6.646   4.388  18.075  0.00  0.00    +0.000 NA
ATOM     23  C   UNL     1       7.084   4.505  16.792  0.00  0.00    +0.000 A 
BRANCH  18  25
ATOM     24  N   UNL     1       7.652   5.487  14.075  0.00  0.00    +0.000 NA
ATOM     25  C   UNL     1       6.810   4.536  14.312  0.00  0.00    +0.000 C 
ATOM     26  N   UNL     1       6.415   3.699  13.308  0.00  0.00    +0.000 N 
ATOM     27  H   UNL     1       7.964   5.442  13.104  0.00  0.00    +0.000 HD
ATOM     28  H   UNL     1       6.560   4.044  12.366  0.00  0.00    +0.000 HD
ATOM     29  H   UNL     1       5.487   3.296  13.413  0.00  0.00    +0.000 HD
ENDBRANCH  18  25
ENDBRANCH  17  21
ENDBRANCH   1  17
TORSDOF 5
ENDMDL
MODEL 6
REMARK VINA RESULT:      -7.9      1.795      2.271
REMARK  Name = 
REMARK  5 active torsions:
REMARK  status: ('A' for Active; 'I' for Inactive)
REMARK    1  A    between atoms: C_2  and  C_4
REMARK    2  A    between atoms: C_7  and  C_8
REMARK    3  A    between atoms: C_8  and  C_9
REMARK    4  A    between atoms: C_12  and  C_13
REMARK    5  A    between atoms: C_16  and  C_17
REMARK                            x       y       z     vdW  Elec       q    Type
REMARK                         _______ _______ _______ _____ _____    ______ ____
ROOT
ATOM      1  C   UNL     1       7.690   6.936  18.208  0.00  0.00    +0.000 A 
ATOM      2  C   UNL     1       6.926   7.682  17.340  0.00  0.00    +0.000 A 
ATOM      3  C   UNL     1       7.438   9.002  17.388  0.00  0.00    +0.000 A 
ATOM      4  C   UNL     1       8.468   9.010  18.312  0.00  0.00    +0.000 A 
ATOM      5  O   UNL     1       8.632   7.732  18.795  0.00  0.00    +0.000 OA
ENDROOT
BRANCH   4   6
ATOM      6  C   UNL     1       9.251  10.122  18.773  0.00  0.00    +0.000 A 
ATOM      7  C   UNL     1       9.451  10.528  20.080  0.00  0.00    +0.000 A 
ATOM      8  C   UNL     1      10.198  11.727  20.038  0.00  0.00    +0.000 A 
ATOM      9  C   UNL     1      10.441  11.993  18.707  0.00  0.00    +0.000 A 
ATOM     10  O   UNL     1       9.893  11.003  17.935  0.00  0.00    +0.000 OA
BRANCH   9  11
ATOM     11  C   UNL     1      11.118  13.103  18.069  0.00  0.00    +0.000 C 
ATOM     12  N   UNL     1      12.143  13.656  18.638  0.00  0.00    +0.000 NA
ATOM     13  N   UNL     1      10.743  13.635  16.870  0.00  0.00    +0.000 N 
ATOM     14  H   UNL     1      12.327  13.158  19.523  0.00  0.00    +0.000 HD
ATOM     15  H   UNL     1       9.756  13.609  16.650  0.00  0.00    +0.000 HD
ATOM     16  H   UNL     1      11.177  14.538  16.713  0.00  0.00    +0.000 HD
ENDBRANCH   9  11
ENDBRANCH   4   6
BRANCH   1  17
ATOM     17  C   UNL     1       7.700   5.492  18.578  0.00  0.00    +0.000 C 
BRANCH  17  21
ATOM     18  C   UNL     1       3.935   3.573  17.939  0.00  0.00    +0.000 A 
ATOM     19  C   UNL     1       4.761   3.814  16.843  0.00  0.00    +0.000 A 
ATOM     20  C   UNL     1       5.997   4.429  17.040  0.00  0.00    +0.000 A 
ATOM     21  C   UNL     1       6.386   4.781  18.333  0.00  0.00    +0.000 A 
ATOM     22  N   UNL     1       5.587   4.559  19.411  0.00  0.00    +0.000 NA
ATOM     23  C   UNL     1       4.379   3.973  19.190  0.00  0.00    +0.000 A 
BRANCH  18  25
ATOM     24  N   UNL     1       1.599   3.604  17.382  0.00  0.00    +0.000 NA
ATOM     25  C   UNL     1       2.616   2.912  17.779  0.00  0.00    +0.000 C 
ATOM     26  N   UNL     1       2.477   1.582  18.059  0.00  0.00    +0.000 N 
ATOM     27  H   UNL     1       0.783   2.998  17.279  0.00  0.00    +0.000 HD
ATOM     28  H   UNL     1       1.530   1.267  18.237  0.00  0.00    +0.000 HD
ATOM     29  H   UNL     1       3.124   1.210  18.750  0.00  0.00    +0.000 HD
ENDBRANCH  18  25
ENDBRANCH  17  21
ENDBRANCH   1  17
TORSDOF 5
ENDMDL
MODEL 7
REMARK VINA RESULT:      -7.9      5.053      6.498
REMARK  Name = 
REMARK  5 active torsions:
REMARK  status: ('A' for Active; 'I' for Inactive)
REMARK    1  A    between atoms: C_2  and  C_4
REMARK    2  A    between atoms: C_7  and  C_8
REMARK    3  A    between atoms: C_8  and  C_9
REMARK    4  A    between atoms: C_12  and  C_13
REMARK    5  A    between atoms: C_16  and  C_17
REMARK                            x       y       z     vdW  Elec       q    Type
REMARK                         _______ _______ _______ _____ _____    ______ ____
ROOT
ATOM      1  C   UNL     1       3.515   4.766  19.887  0.00  0.00    +0.000 A 
ATOM      2  C   UNL     1       2.451   4.644  20.752  0.00  0.00    +0.000 A 
ATOM      3  C   UNL     1       1.667   5.813  20.587  0.00  0.00    +0.000 A 
ATOM      4  C   UNL     1       2.307   6.611  19.656  0.00  0.00    +0.000 A 
ATOM      5  O   UNL     1       3.431   5.951  19.214  0.00  0.00    +0.000 OA
ENDROOT
BRANCH   4   6
ATOM      6  C   UNL     1       1.951   7.927  19.207  0.00  0.00    +0.000 A 
ATOM      7  C   UNL     1       2.240   8.508  17.984  0.00  0.00    +0.000 A 
ATOM      8  C   UNL     1       1.786   9.845  18.036  0.00  0.00    +0.000 A 
ATOM      9  C   UNL     1       1.222  10.020  19.282  0.00  0.00    +0.000 A 
ATOM     10  O   UNL     1       1.292   8.848  19.987  0.00  0.00    +0.000 OA
BRANCH   9  11
ATOM     11  C   UNL     1       0.638  11.192  19.904  0.00  0.00    +0.000 C 
ATOM     12  N   UNL     1       0.954  11.510  21.121  0.00  0.00    +0.000 NA
ATOM     13  N   UNL     1      -0.255  12.017  19.286  0.00  0.00    +0.000 N 
ATOM     14  H   UNL     1       1.639  10.819  21.467  0.00  0.00    +0.000 HD
ATOM     15  H   UNL     1      -0.877  11.589  18.612  0.00  0.00    +0.000 HD
ATOM     16  H   UNL     1      -0.721  12.623  19.951  0.00  0.00    +0.000 HD
ENDBRANCH   9  11
ENDBRANCH   4   6
BRANCH   1  17
ATOM     17  C   UNL     1       4.660   3.874  19.544  0.00  0.00    +0.000 C 
BRANCH  17  21
ATOM     18  C   UNL     1       6.271   4.350  15.614  0.00  0.00    +0.000 A 
ATOM     19  C   UNL     1       4.940   3.962  15.752  0.00  0.00    +0.000 A 
ATOM     20  C   UNL     1       4.399   3.814  17.030  0.00  0.00    +0.000 A 
ATOM     21  C   UNL     1       5.200   4.069  18.143  0.00  0.00    +0.000 A 
ATOM     22  N   UNL     1       6.503   4.441  18.024  0.00  0.00    +0.000 NA
ATOM     23  C   UNL     1       7.011   4.561  16.768  0.00  0.00    +0.000 A 
BRANCH  18  25
ATOM     24  N   UNL     1       7.750   5.474  14.092  0.00  0.00    +0.000 NA
ATOM     25  C   UNL     1       6.886   4.530  14.276  0.00  0.00    +0.000 C 
ATOM     26  N   UNL     1       6.535   3.707  13.243  0.00  0.00    +0.000 N 
ATOM     27  H   UNL     1       8.110   5.436  13.137  0.00  0.00    +0.000 HD
ATOM     28  H   UNL     1       6.732   4.060  12.314  0.00  0.00    +0.000 HD
ATOM     29  H   UNL     1       5.599   3.314  13.297  0.00  0.00    +0.000 HD
ENDBRANCH  18  25
ENDBRANCH  17  21
ENDBRANCH   1  17
TORSDOF 5
ENDMDL
MODEL 8
REMARK VINA RESULT:      -7.8      1.076      1.503
REMARK  Name = 
REMARK  5 active torsions:
REMARK  status: ('A' for Active; 'I' for Inactive)
REMARK    1  A    between atoms: C_2  and  C_4
REMARK    2  A    between atoms: C_7  and  C_8
REMARK    3  A    between atoms: C_8  and  C_9
REMARK    4  A    between atoms: C_12  and  C_13
REMARK    5  A    between atoms: C_16  and  C_17
REMARK                            x       y       z     vdW  Elec       q    Type
REMARK                         _______ _______ _______ _____ _____    ______ ____
ROOT
ATOM      1  C   UNL     1       6.848   7.182  17.324  0.00  0.00    +0.000 A 
ATOM      2  C   UNL     1       7.561   6.418  18.219  0.00  0.00    +0.000 A 
ATOM      3  C   UNL     1       8.466   7.298  18.863  0.00  0.00    +0.000 A 
ATOM      4  C   UNL     1       8.289   8.552  18.306  0.00  0.00    +0.000 A 
ATOM      5  O   UNL     1       7.277   8.477  17.376  0.00  0.00    +0.000 OA
ENDROOT
BRANCH   4   6
ATOM      6  C   UNL     1       9.018   9.760  18.565  0.00  0.00    +0.000 A 
ATOM      7  C   UNL     1       9.179  10.406  19.779  0.00  0.00    +0.000 A 
ATOM      8  C   UNL     1       9.879  11.607  19.527  0.00  0.00    +0.000 A 
ATOM      9  C   UNL     1      10.134  11.637  18.173  0.00  0.00    +0.000 A 
ATOM     10  O   UNL     1       9.640  10.502  17.587  0.00  0.00    +0.000 OA
BRANCH   9  11
ATOM     11  C   UNL     1      10.777  12.642  17.349  0.00  0.00    +0.000 C 
ATOM     12  N   UNL     1      10.134  13.715  17.008  0.00  0.00    +0.000 NA
ATOM     13  N   UNL     1      12.056  12.539  16.885  0.00  0.00    +0.000 N 
ATOM     14  H   UNL     1       9.193  13.673  17.429  0.00  0.00    +0.000 HD
ATOM     15  H   UNL     1      12.395  11.607  16.689  0.00  0.00    +0.000 HD
ATOM     16  H   UNL     1      12.235  13.208  16.145  0.00  0.00    +0.000 HD
ENDBRANCH   9  11
ENDBRANCH   4   6
BRANCH   1  17
ATOM     17  C   UNL     1       5.730   6.878  16.385  0.00  0.00    +0.000 C 
BRANCH  17  21
ATOM     18  C   UNL     1       2.904   3.989  17.778  0.00  0.00    +0.000 A 
ATOM     19  C   UNL     1       3.961   3.563  16.976  0.00  0.00    +0.000 A 
ATOM     20  C   UNL     1       4.896   4.494  16.524  0.00  0.00    +0.000 A 
ATOM     21  C   UNL     1       4.760   5.832  16.895  0.00  0.00    +0.000 A 
ATOM     22  N   UNL     1       3.730   6.264  17.671  0.00  0.00    +0.000 NA
ATOM     23  C   UNL     1       2.822   5.339  18.084  0.00  0.00    +0.000 A 
BRANCH  18  25
ATOM     24  N   UNL     1       0.929   3.463  19.039  0.00  0.00    +0.000 NA
ATOM     25  C   UNL     1       1.891   3.033  18.290  0.00  0.00    +0.000 C 
ATOM     26  N   UNL     1       1.982   1.706  17.980  0.00  0.00    +0.000 N 
ATOM     27  H   UNL     1       0.296   2.695  19.269  0.00  0.00    +0.000 HD
ATOM     28  H   UNL     1       1.475   1.076  18.591  0.00  0.00    +0.000 HD
ATOM     29  H   UNL     1       2.921   1.363  17.795  0.00  0.00    +0.000 HD
ENDBRANCH  18  25
ENDBRANCH  17  21
ENDBRANCH   1  17
TORSDOF 5
ENDMDL
MODEL 9
REMARK VINA RESULT:      -7.8      4.769      6.758
REMARK  Name = 
REMARK  5 active torsions:
REMARK  status: ('A' for Active; 'I' for Inactive)
REMARK    1  A    between atoms: C_2  and  C_4
REMARK    2  A    between atoms: C_7  and  C_8
REMARK    3  A    between atoms: C_8  and  C_9
REMARK    4  A    between atoms: C_12  and  C_13
REMARK    5  A    between atoms: C_16  and  C_17
REMARK                            x       y       z     vdW  Elec       q    Type
REMARK                         _______ _______ _______ _____ _____    ______ ____
ROOT
ATOM      1  C   UNL     1       6.310   5.566  17.561  0.00  0.00    +0.000 A 
ATOM      2  C   UNL     1       6.091   6.816  17.027  0.00  0.00    +0.000 A 
ATOM      3  C   UNL     1       6.123   6.660  15.619  0.00  0.00    +0.000 A 
ATOM      4  C   UNL     1       6.396   5.329  15.358  0.00  0.00    +0.000 A 
ATOM      5  O   UNL     1       6.488   4.659  16.557  0.00  0.00    +0.000 OA
ENDROOT
BRANCH   4   6
ATOM      6  C   UNL     1       6.604   4.687  14.091  0.00  0.00    +0.000 A 
ATOM      7  C   UNL     1       7.552   4.998  13.133  0.00  0.00    +0.000 A 
ATOM      8  C   UNL     1       7.306   4.172  12.013  0.00  0.00    +0.000 A 
ATOM      9  C   UNL     1       6.229   3.377  12.341  0.00  0.00    +0.000 A 
ATOM     10  O   UNL     1       5.817   3.664  13.615  0.00  0.00    +0.000 OA
BRANCH   9  11
ATOM     11  C   UNL     1       5.515   2.379  11.569  0.00  0.00    +0.000 C 
ATOM     12  N   UNL     1       4.335   2.639  11.100  0.00  0.00    +0.000 NA
ATOM     13  N   UNL     1       6.008   1.137  11.291  0.00  0.00    +0.000 N 
ATOM     14  H   UNL     1       4.087   3.604  11.369  0.00  0.00    +0.000 HD
ATOM     15  H   UNL     1       6.616   0.724  11.985  0.00  0.00    +0.000 HD
ATOM     16  H   UNL     1       5.279   0.517  10.958  0.00  0.00    +0.000 HD
ENDBRANCH   9  11
ENDBRANCH   4   6
BRANCH   1  17
ATOM     17  C   UNL     1       6.352   5.046  18.958  0.00  0.00    +0.000 C 
BRANCH  17  21
ATOM     18  C   UNL     1       2.664   3.501  20.470  0.00  0.00    +0.000 A 
ATOM     19  C   UNL     1       2.768   4.868  20.218  0.00  0.00    +0.000 A 
ATOM     20  C   UNL     1       3.962   5.383  19.714  0.00  0.00    +0.000 A 
ATOM     21  C   UNL     1       5.026   4.516  19.461  0.00  0.00    +0.000 A 
ATOM     22  N   UNL     1       4.942   3.181  19.709  0.00  0.00    +0.000 NA
ATOM     23  C   UNL     1       3.772   2.707  20.217  0.00  0.00    +0.000 A 
BRANCH  18  25
ATOM     24  N   UNL     1       0.342   2.924  20.269  0.00  0.00    +0.000 NA
ATOM     25  C   UNL     1       1.411   2.908  20.997  0.00  0.00    +0.000 C 
ATOM     26  N   UNL     1       1.385   2.357  22.246  0.00  0.00    +0.000 N 
ATOM     27  H   UNL     1      -0.416   2.439  20.753  0.00  0.00    +0.000 HD
ATOM     28  H   UNL     1       0.467   2.260  22.665  0.00  0.00    +0.000 HD
ATOM     29  H   UNL     1       2.053   2.742  22.908  0.00  0.00    +0.000 HD
ENDBRANCH  18  25
ENDBRANCH  17  21
ENDBRANCH   1  17
TORSDOF 5
ENDMDL
