MODEL 1
REMARK VINA RESULT:      -8.1      0.000      0.000
REMARK  Name = 
REMARK  4 active torsions:
REMARK  status: ('A' for Active; 'I' for Inactive)
REMARK    1  A    between atoms: C_2  and  C_3
REMARK    2  A    between atoms: C_3  and  C_4
REMARK    3  A    between atoms: C_21  and  C_22
REMARK    4  A    between atoms: C_22  and  N_23
REMARK                            x       y       z     vdW  Elec       q    Type
REMARK                         _______ _______ _______ _____ _____    ______ ____
ROOT
ATOM      1  O   UNL     1       1.082   8.401  20.352  0.00  0.00    +0.000 OA
ATOM      2  C   UNL     1       1.807   7.895  19.508  0.00  0.00    +0.000 C 
ATOM      3  N   UNL     1       2.380   6.661  19.772  0.00  0.00    +0.000 N 
ATOM      4  C   UNL     1       1.977   6.013  21.041  0.00  0.00    +0.000 C 
ATOM      5  C   UNL     1       2.501   4.576  21.210  0.00  0.00    +0.000 C 
ATOM      6  C   UNL     1       2.298   3.834  19.918  0.00  0.00    +0.000 A 
ATOM      7  C   UNL     1       1.776   2.535  19.899  0.00  0.00    +0.000 A 
ATOM      8  C   UNL     1       1.594   1.874  18.682  0.00  0.00    +0.000 A 
ATOM      9  C   UNL     1       1.909   2.517  17.479  0.00  0.00    +0.000 A 
ATOM     10  C   UNL     1       2.414   3.827  17.489  0.00  0.00    +0.000 A 
ATOM     11  C   UNL     1       2.624   4.489  18.712  0.00  0.00    +0.000 A 
ATOM     12  C   UNL     1       3.187   5.906  18.785  0.00  0.00    +0.000 C 
ENDROOT
BRANCH   2  13
ATOM     13  C   UNL     1       2.048   8.750  18.275  0.00  0.00    +0.000 C 
BRANCH  13  14
ATOM     14  C   UNL     1       1.465  10.153  18.289  0.00  0.00    +0.000 A 
ATOM     15  C   UNL     1       0.074  10.352  18.426  0.00  0.00    +0.000 A 
ATOM     16  C   UNL     1      -0.453  11.645  18.541  0.00  0.00    +0.000 A 
ATOM     17  C   UNL     1       0.394  12.758  18.527  0.00  0.00    +0.000 A 
ATOM     18 CL   UNL     1      -0.298  14.364  18.720  0.00  0.00    +0.000 Cl
ATOM     19  C   UNL     1       1.776  12.573  18.378  0.00  0.00    +0.000 A 
ATOM     20 CL   UNL     1       2.882  13.942  18.378  0.00  0.00    +0.000 Cl
ATOM     21  C   UNL     1       2.303  11.281  18.255  0.00  0.00    +0.000 A 
ENDBRANCH  13  14
ENDBRANCH   2  13
BRANCH  12  22
ATOM     22  C   UNL     1       4.705   5.750  19.103  0.00  0.00    +0.000 C 
BRANCH  22  23
ATOM     23  N   UNL     1       5.624   5.524  17.959  0.00  0.00    +0.000 NA
ATOM     24  C   UNL     1       6.964   5.070  18.378  0.00  0.00    +0.000 C 
ATOM     25  C   UNL     1       7.771   6.323  18.632  0.00  0.00    +0.000 C 
ATOM     26  C   UNL     1       7.390   7.129  17.426  0.00  0.00    +0.000 C 
ATOM     27  C   UNL     1       5.895   6.841  17.307  0.00  0.00    +0.000 C 
ENDBRANCH  22  23
ENDBRANCH  12  22
TORSDOF 4
ENDMDL
MODEL 2
REMARK VINA RESULT:      -8.0      2.217      4.805
REMARK  Name = 
REMARK  4 active torsions:
REMARK  status: ('A' for Active; 'I' for Inactive)
REMARK    1  A    between atoms: C_2  and  C_3
REMARK    2  A    between atoms: C_3  and  C_4
REMARK    3  A    between atoms: C_21  and  C_22
REMARK    4  A    between atoms: C_22  and  N_23
REMARK                            x       y       z     vdW  Elec       q    Type
REMARK                         _______ _______ _______ _____ _____    ______ ____
ROOT
ATOM      1  O   UNL     1       1.879   8.971  18.594  0.00  0.00    +0.000 OA
ATOM      2  C   UNL     1       2.213   7.892  19.062  0.00  0.00    +0.000 C 
ATOM      3  N   UNL     1       3.039   7.067  18.315  0.00  0.00    +0.000 N 
ATOM      4  C   UNL     1       3.527   7.621  17.032  0.00  0.00    +0.000 C 
ATOM      5  C   UNL     1       4.573   6.744  16.322  0.00  0.00    +0.000 C 
ATOM      6  C   UNL     1       5.576   6.273  17.338  0.00  0.00    +0.000 A 
ATOM      7  C   UNL     1       6.951   6.312  17.077  0.00  0.00    +0.000 A 
ATOM      8  C   UNL     1       7.858   5.873  18.044  0.00  0.00    +0.000 A 
ATOM      9  C   UNL     1       7.397   5.418  19.284  0.00  0.00    +0.000 A 
ATOM     10  C   UNL     1       6.021   5.394  19.562  0.00  0.00    +0.000 A 
ATOM     11  C   UNL     1       5.101   5.811  18.584  0.00  0.00    +0.000 A 
ATOM     12  C   UNL     1       3.593   5.790  18.821  0.00  0.00    +0.000 C 
ENDROOT
BRANCH   2  13
ATOM     13  C   UNL     1       1.598   7.561  20.411  0.00  0.00    +0.000 C 
BRANCH  13  14
ATOM     14  C   UNL     1       0.743   8.638  21.058  0.00  0.00    +0.000 A 
ATOM     15  C   UNL     1       0.698   8.771  22.463  0.00  0.00    +0.000 A 
ATOM     16  C   UNL     1      -0.007   9.826  23.057  0.00  0.00    +0.000 A 
ATOM     17  C   UNL     1      -0.672  10.766  22.264  0.00  0.00    +0.000 A 
ATOM     18 CL   UNL     1      -1.509  12.105  23.042  0.00  0.00    +0.000 Cl
ATOM     19  C   UNL     1      -0.645  10.637  20.868  0.00  0.00    +0.000 A 
ATOM     20 CL   UNL     1      -1.448  11.810  19.830  0.00  0.00    +0.000 Cl
ATOM     21  C   UNL     1       0.053   9.578  20.274  0.00  0.00    +0.000 A 
ENDBRANCH  13  14
ENDBRANCH   2  13
BRANCH  12  22
ATOM     22  C   UNL     1       3.067   4.488  18.144  0.00  0.00    +0.000 C 
BRANCH  22  23
ATOM     23  N   UNL     1       2.934   3.279  18.996  0.00  0.00    +0.000 NA
ATOM     24  C   UNL     1       1.703   2.514  18.722  0.00  0.00    +0.000 C 
ATOM     25  C   UNL     1       0.632   3.115  19.604  0.00  0.00    +0.000 C 
ATOM     26  C   UNL     1       1.391   3.238  20.891  0.00  0.00    +0.000 C 
ATOM     27  C   UNL     1       2.758   3.720  20.412  0.00  0.00    +0.000 C 
ENDBRANCH  22  23
ENDBRANCH  12  22
TORSDOF 4
ENDMDL
MODEL 3
REMARK VINA RESULT:      -8.0      0.653      1.073
REMARK  Name = 
REMARK  4 active torsions:
REMARK  status: ('A' for Active; 'I' for Inactive)
REMARK    1  A    between atoms: C_2  and  C_3
REMARK    2  A    between atoms: C_3  and  C_4
REMARK    3  A    between atoms: C_21  and  C_22
REMARK    4  A    between atoms: C_22  and  N_23
REMARK                            x       y       z     vdW  Elec       q    Type
REMARK                         _______ _______ _______ _____ _____    ______ ____
ROOT
ATOM      1  O   UNL     1       1.167   8.299  20.371  0.00  0.00    +0.000 OA
ATOM      2  C   UNL     1       1.872   7.784  19.516  0.00  0.00    +0.000 C 
ATOM      3  N   UNL     1       2.435   6.544  19.771  0.00  0.00    +0.000 N 
ATOM      4  C   UNL     1       2.045   5.902  21.047  0.00  0.00    +0.000 C 
ATOM      5  C   UNL     1       2.556   4.459  21.209  0.00  0.00    +0.000 C 
ATOM      6  C   UNL     1       2.323   3.718  19.921  0.00  0.00    +0.000 A 
ATOM      7  C   UNL     1       1.785   2.425  19.911  0.00  0.00    +0.000 A 
ATOM      8  C   UNL     1       1.576   1.766  18.697  0.00  0.00    +0.000 A 
ATOM      9  C   UNL     1       1.878   2.405  17.490  0.00  0.00    +0.000 A 
ATOM     10  C   UNL     1       2.399   3.709  17.490  0.00  0.00    +0.000 A 
ATOM     11  C   UNL     1       2.636   4.369  18.709  0.00  0.00    +0.000 A 
ATOM     12  C   UNL     1       3.217   5.779  18.772  0.00  0.00    +0.000 C 
ENDROOT
BRANCH   2  13
ATOM     13  C   UNL     1       2.103   8.636  18.279  0.00  0.00    +0.000 C 
BRANCH  13  14
ATOM     14  C   UNL     1       1.499  10.030  18.283  0.00  0.00    +0.000 A 
ATOM     15  C   UNL     1       0.105  10.209  18.412  0.00  0.00    +0.000 A 
ATOM     16  C   UNL     1      -0.442  11.495  18.519  0.00  0.00    +0.000 A 
ATOM     17  C   UNL     1       0.388  12.619  18.504  0.00  0.00    +0.000 A 
ATOM     18 CL   UNL     1      -0.329  14.216  18.687  0.00  0.00    +0.000 Cl
ATOM     19  C   UNL     1       1.774  12.455  18.363  0.00  0.00    +0.000 A 
ATOM     20 CL   UNL     1       2.859  13.840  18.363  0.00  0.00    +0.000 Cl
ATOM     21  C   UNL     1       2.320  11.170  18.248  0.00  0.00    +0.000 A 
ENDBRANCH  13  14
ENDBRANCH   2  13
BRANCH  12  22
ATOM     22  C   UNL     1       4.738   5.606  19.065  0.00  0.00    +0.000 C 
BRANCH  22  23
ATOM     23  N   UNL     1       5.694   6.126  18.054  0.00  0.00    +0.000 NA
ATOM     24  C   UNL     1       5.241   5.906  16.668  0.00  0.00    +0.000 C 
ATOM     25  C   UNL     1       5.745   4.537  16.274  0.00  0.00    +0.000 C 
ATOM     26  C   UNL     1       7.147   4.611  16.801  0.00  0.00    +0.000 C 
ATOM     27  C   UNL     1       6.949   5.320  18.138  0.00  0.00    +0.000 C 
ENDBRANCH  22  23
ENDBRANCH  12  22
TORSDOF 4
ENDMDL
MODEL 4
REMARK VINA RESULT:      -7.9      0.640      1.427
REMARK  Name = 
REMARK  4 active torsions:
REMARK  status: ('A' for Active; 'I' for Inactive)
REMARK    1  A    between atoms: C_2  and  C_3
REMARK    2  A    between atoms: C_3  and  C_4
REMARK    3  A    between atoms: C_21  and  C_22
REMARK    4  A    between atoms: C_22  and  N_23
REMARK                            x       y       z     vdW  Elec       q    Type
REMARK                         _______ _______ _______ _____ _____    ______ ____
ROOT
ATOM      1  O   UNL     1       0.993   8.321  20.493  0.00  0.00    +0.000 OA
ATOM      2  C   UNL     1       1.721   7.871  19.620  0.00  0.00    +0.000 C 
ATOM      3  N   UNL     1       2.340   6.649  19.831  0.00  0.00    +0.000 N 
ATOM      4  C   UNL     1       1.982   5.944  21.082  0.00  0.00    +0.000 C 
ATOM      5  C   UNL     1       2.559   4.522  21.193  0.00  0.00    +0.000 C 
ATOM      6  C   UNL     1       2.360   3.817  19.879  0.00  0.00    +0.000 A 
ATOM      7  C   UNL     1       1.882   2.502  19.822  0.00  0.00    +0.000 A 
ATOM      8  C   UNL     1       1.703   1.878  18.585  0.00  0.00    +0.000 A 
ATOM      9  C   UNL     1       1.974   2.573  17.402  0.00  0.00    +0.000 A 
ATOM     10  C   UNL     1       2.434   3.899  17.449  0.00  0.00    +0.000 A 
ATOM     11  C   UNL     1       2.641   4.525  18.691  0.00  0.00    +0.000 A 
ATOM     12  C   UNL     1       3.156   5.958  18.806  0.00  0.00    +0.000 C 
ENDROOT
BRANCH   2  13
ATOM     13  C   UNL     1       1.911   8.775  18.414  0.00  0.00    +0.000 C 
BRANCH  13  14
ATOM     14  C   UNL     1       1.348  10.183  18.517  0.00  0.00    +0.000 A 
ATOM     15  C   UNL     1       2.207  11.303  18.504  0.00  0.00    +0.000 A 
ATOM     16  C   UNL     1       1.684  12.603  18.496  0.00  0.00    +0.000 A 
ATOM     17  C   UNL     1       0.301  12.808  18.496  0.00  0.00    +0.000 A 
ATOM     18 CL   UNL     1      -0.321  14.453  18.438  0.00  0.00    +0.000 Cl
ATOM     19  C   UNL     1      -0.562  11.703  18.522  0.00  0.00    +0.000 A 
ATOM     20 CL   UNL     1      -2.309  11.914  18.497  0.00  0.00    +0.000 Cl
ATOM     21  C   UNL     1      -0.040  10.404  18.538  0.00  0.00    +0.000 A 
ENDBRANCH  13  14
ENDBRANCH   2  13
BRANCH  12  22
ATOM     22  C   UNL     1       4.684   5.845  19.093  0.00  0.00    +0.000 C 
BRANCH  22  23
ATOM     23  N   UNL     1       5.583   5.603  17.936  0.00  0.00    +0.000 NA
ATOM     24  C   UNL     1       6.907   5.090  18.333  0.00  0.00    +0.000 C 
ATOM     25  C   UNL     1       7.765   6.305  18.602  0.00  0.00    +0.000 C 
ATOM     26  C   UNL     1       7.405   7.148  17.415  0.00  0.00    +0.000 C 
ATOM     27  C   UNL     1       5.899   6.921  17.306  0.00  0.00    +0.000 C 
ENDBRANCH  22  23
ENDBRANCH  12  22
TORSDOF 4
ENDMDL
MODEL 5
REMARK VINA RESULT:      -7.9      6.175      8.327
REMARK  Name = 
REMARK  4 active torsions:
REMARK  status: ('A' for Active; 'I' for Inactive)
REMARK    1  A    between atoms: C_2  and  C_3
REMARK    2  A    between atoms: C_3  and  C_4
REMARK    3  A    between atoms: C_21  and  C_22
REMARK    4  A    between atoms: C_22  and  N_23
REMARK                            x       y       z     vdW  Elec       q    Type
REMARK                         _______ _______ _______ _____ _____    ______ ____
ROOT
ATOM      1  O   UNL     1      -0.712  10.708  23.243  0.00  0.00    +0.000 OA
ATOM      2  C   UNL     1      -1.114  11.586  22.492  0.00  0.00    +0.000 C 
ATOM      3  N   UNL     1      -0.833  11.486  21.139  0.00  0.00    +0.000 N 
ATOM      4  C   UNL     1      -0.139  10.253  20.705  0.00  0.00    +0.000 C 
ATOM      5  C   UNL     1      -0.003  10.108  19.180  0.00  0.00    +0.000 C 
ATOM      6  C   UNL     1      -1.317  10.464  18.542  0.00  0.00    +0.000 A 
ATOM      7  C   UNL     1      -1.871   9.677  17.525  0.00  0.00    +0.000 A 
ATOM      8  C   UNL     1      -3.097  10.032  16.958  0.00  0.00    +0.000 A 
ATOM      9  C   UNL     1      -3.785  11.159  17.420  0.00  0.00    +0.000 A 
ATOM     10  C   UNL     1      -3.246  11.943  18.453  0.00  0.00    +0.000 A 
ATOM     11  C   UNL     1      -2.001  11.606  19.012  0.00  0.00    +0.000 A 
ATOM     12  C   UNL     1      -1.356  12.430  20.124  0.00  0.00    +0.000 C 
ENDROOT
BRANCH   2  13
ATOM     13  C   UNL     1      -1.825  12.740  23.178  0.00  0.00    +0.000 C 
BRANCH  13  14
ATOM     14  C   UNL     1      -3.341  12.673  23.239  0.00  0.00    +0.000 A 
ATOM     15  C   UNL     1      -4.005  12.507  24.474  0.00  0.00    +0.000 A 
ATOM     16  C   UNL     1      -5.404  12.548  24.543  0.00  0.00    +0.000 A 
ATOM     17  C   UNL     1      -6.162  12.759  23.388  0.00  0.00    +0.000 A 
ATOM     18 CL   UNL     1      -7.915  12.851  23.519  0.00  0.00    +0.000 Cl
ATOM     19  C   UNL     1      -5.515  12.912  22.153  0.00  0.00    +0.000 A 
ATOM     20 CL   UNL     1      -6.429  13.204  20.678  0.00  0.00    +0.000 Cl
ATOM     21  C   UNL     1      -4.117  12.864  22.082  0.00  0.00    +0.000 A 
ENDBRANCH  13  14
ENDBRANCH   2  13
BRANCH  12  22
ATOM     22  C   UNL     1      -0.310  13.351  19.427  0.00  0.00    +0.000 C 
BRANCH  22  23
ATOM     23  N   UNL     1       0.852  13.802  20.235  0.00  0.00    +0.000 NA
ATOM     24  C   UNL     1       1.150  15.236  20.063  0.00  0.00    +0.000 C 
ATOM     25  C   UNL     1       2.082  15.332  18.876  0.00  0.00    +0.000 C 
ATOM     26  C   UNL     1       3.026  14.210  19.193  0.00  0.00    +0.000 C 
ATOM     27  C   UNL     1       2.078  13.130  19.708  0.00  0.00    +0.000 C 
ENDBRANCH  22  23
ENDBRANCH  12  22
TORSDOF 4
ENDMDL
MODEL 6
REMARK VINA RESULT:      -7.8      3.541      8.443
REMARK  Name = 
REMARK  4 active torsions:
REMARK  status: ('A' for Active; 'I' for Inactive)
REMARK    1  A    between atoms: C_2  and  C_3
REMARK    2  A    between atoms: C_3  and  C_4
REMARK    3  A    between atoms: C_21  and  C_22
REMARK    4  A    between atoms: C_22  and  N_23
REMARK                            x       y       z     vdW  Elec       q    Type
REMARK                         _______ _______ _______ _____ _____    ______ ____
ROOT
ATOM      1  O   UNL     1       1.493   8.378  20.352  0.00  0.00    +0.000 OA
ATOM      2  C   UNL     1       1.264   9.136  19.421  0.00  0.00    +0.000 C 
ATOM      3  N   UNL     1       0.802  10.413  19.697  0.00  0.00    +0.000 N 
ATOM      4  C   UNL     1       0.716  10.780  21.128  0.00  0.00    +0.000 C 
ATOM      5  C   UNL     1       0.364  12.257  21.381  0.00  0.00    +0.000 C 
ATOM      6  C   UNL     1       1.188  13.114  20.460  0.00  0.00    +0.000 A 
ATOM      7  C   UNL     1       1.836  14.265  20.921  0.00  0.00    +0.000 A 
ATOM      8  C   UNL     1       2.599  15.037  20.041  0.00  0.00    +0.000 A 
ATOM      9  C   UNL     1       2.737  14.646  18.704  0.00  0.00    +0.000 A 
ATOM     10  C   UNL     1       2.106  13.482  18.238  0.00  0.00    +0.000 A 
ATOM     11  C   UNL     1       1.317  12.714  19.112  0.00  0.00    +0.000 A 
ATOM     12  C   UNL     1       0.593  11.449  18.658  0.00  0.00    +0.000 C 
ENDROOT
BRANCH   2  13
ATOM     13  C   UNL     1       1.454   8.530  18.040  0.00  0.00    +0.000 C 
BRANCH  13  14
ATOM     14  C   UNL     1       2.438   7.378  17.926  0.00  0.00    +0.000 A 
ATOM     15  C   UNL     1       1.993   6.041  18.016  0.00  0.00    +0.000 A 
ATOM     16  C   UNL     1       2.882   4.978  17.809  0.00  0.00    +0.000 A 
ATOM     17  C   UNL     1       4.224   5.229  17.505  0.00  0.00    +0.000 A 
ATOM     18 CL   UNL     1       5.302   3.870  17.205  0.00  0.00    +0.000 Cl
ATOM     19  C   UNL     1       4.681   6.552  17.426  0.00  0.00    +0.000 A 
ATOM     20 CL   UNL     1       6.355   6.914  17.022  0.00  0.00    +0.000 Cl
ATOM     21  C   UNL     1       3.794   7.615  17.640  0.00  0.00    +0.000 A 
ENDBRANCH  13  14
ENDBRANCH   2  13
BRANCH  12  22
ATOM     22  C   UNL     1      -0.883  11.871  18.386  0.00  0.00    +0.000 C 
BRANCH  22  23
ATOM     23  N   UNL     1      -1.906  10.796  18.343  0.00  0.00    +0.000 NA
ATOM     24  C   UNL     1      -1.806   9.953  17.137  0.00  0.00    +0.000 C 
ATOM     25  C   UNL     1      -2.642  10.635  16.078  0.00  0.00    +0.000 C 
ATOM     26  C   UNL     1      -3.860  10.976  16.885  0.00  0.00    +0.000 C 
ATOM     27  C   UNL     1      -3.251  11.434  18.207  0.00  0.00    +0.000 C 
ENDBRANCH  22  23
ENDBRANCH  12  22
TORSDOF 4
ENDMDL
MODEL 7
REMARK VINA RESULT:      -7.8      6.006      8.618
REMARK  Name = 
REMARK  4 active torsions:
REMARK  status: ('A' for Active; 'I' for Inactive)
REMARK    1  A    between atoms: C_2  and  C_3
REMARK    2  A    between atoms: C_3  and  C_4
REMARK    3  A    between atoms: C_21  and  C_22
REMARK    4  A    between atoms: C_22  and  N_23
REMARK                            x       y       z     vdW  Elec       q    Type
REMARK                         _______ _______ _______ _____ _____    ______ ____
ROOT
ATOM      1  O   UNL     1      -0.462  10.756  23.186  0.00  0.00    +0.000 OA
ATOM      2  C   UNL     1      -0.837  11.627  22.415  0.00  0.00    +0.000 C 
ATOM      3  N   UNL     1      -0.511  11.516  21.073  0.00  0.00    +0.000 N 
ATOM      4  C   UNL     1       0.198  10.280  20.673  0.00  0.00    +0.000 C 
ATOM      5  C   UNL     1       0.387  10.123  19.155  0.00  0.00    +0.000 C 
ATOM      6  C   UNL     1      -0.905  10.473  18.469  0.00  0.00    +0.000 A 
ATOM      7  C   UNL     1      -1.424   9.677  17.441  0.00  0.00    +0.000 A 
ATOM      8  C   UNL     1      -2.630  10.026  16.829  0.00  0.00    +0.000 A 
ATOM      9  C   UNL     1      -3.334  11.156  17.259  0.00  0.00    +0.000 A 
ATOM     10  C   UNL     1      -2.831  11.949  18.302  0.00  0.00    +0.000 A 
ATOM     11  C   UNL     1      -1.605  11.618  18.907  0.00  0.00    +0.000 A 
ATOM     12  C   UNL     1      -1.000  12.451  20.033  0.00  0.00    +0.000 C 
ENDROOT
BRANCH   2  13
ATOM     13  C   UNL     1      -1.572  12.786  23.067  0.00  0.00    +0.000 C 
BRANCH  13  14
ATOM     14  C   UNL     1      -3.088  12.697  23.115  0.00  0.00    +0.000 A 
ATOM     15  C   UNL     1      -3.763  12.598  24.351  0.00  0.00    +0.000 A 
ATOM     16  C   UNL     1      -5.163  12.619  24.403  0.00  0.00    +0.000 A 
ATOM     17  C   UNL     1      -5.912  12.744  23.229  0.00  0.00    +0.000 A 
ATOM     18 CL   UNL     1      -7.667  12.814  23.335  0.00  0.00    +0.000 Cl
ATOM     19  C   UNL     1      -5.253  12.830  21.994  0.00  0.00    +0.000 A 
ATOM     20 CL   UNL     1      -6.154  13.012  20.493  0.00  0.00    +0.000 Cl
ATOM     21  C   UNL     1      -3.853  12.801  21.941  0.00  0.00    +0.000 A 
ENDBRANCH  13  14
ENDBRANCH   2  13
BRANCH  12  22
ATOM     22  C   UNL     1       0.069  13.368  19.365  0.00  0.00    +0.000 C 
BRANCH  22  23
ATOM     23  N   UNL     1       0.411  14.638  20.054  0.00  0.00    +0.000 NA
ATOM     24  C   UNL     1      -0.702  15.606  20.063  0.00  0.00    +0.000 C 
ATOM     25  C   UNL     1      -0.578  16.399  18.782  0.00  0.00    +0.000 C 
ATOM     26  C   UNL     1       0.897  16.668  18.783  0.00  0.00    +0.000 C 
ATOM     27  C   UNL     1       1.467  15.334  19.258  0.00  0.00    +0.000 C 
ENDBRANCH  22  23
ENDBRANCH  12  22
TORSDOF 4
ENDMDL
MODEL 8
REMARK VINA RESULT:      -7.7      3.991      8.585
REMARK  Name = 
REMARK  4 active torsions:
REMARK  status: ('A' for Active; 'I' for Inactive)
REMARK    1  A    between atoms: C_2  and  C_3
REMARK    2  A    between atoms: C_3  and  C_4
REMARK    3  A    between atoms: C_21  and  C_22
REMARK    4  A    between atoms: C_22  and  N_23
REMARK                            x       y       z     vdW  Elec       q    Type
REMARK                         _______ _______ _______ _____ _____    ______ ____
ROOT
ATOM      1  O   UNL     1       2.230   7.303  20.468  0.00  0.00    +0.000 OA
ATOM      2  C   UNL     1       1.831   7.981  19.532  0.00  0.00    +0.000 C 
ATOM      3  N   UNL     1       0.978   9.041  19.791  0.00  0.00    +0.000 N 
ATOM      4  C   UNL     1       0.697   9.319  21.218  0.00  0.00    +0.000 C 
ATOM      5  C   UNL     1      -0.112  10.604  21.464  0.00  0.00    +0.000 C 
ATOM      6  C   UNL     1       0.455  11.703  20.609  0.00  0.00    +0.000 A 
ATOM      7  C   UNL     1       0.684  12.984  21.125  0.00  0.00    +0.000 A 
ATOM      8  C   UNL     1       1.218  13.981  20.306  0.00  0.00    +0.000 A 
ATOM      9  C   UNL     1       1.550  13.695  18.977  0.00  0.00    +0.000 A 
ATOM     10  C   UNL     1       1.343  12.408  18.457  0.00  0.00    +0.000 A 
ATOM     11  C   UNL     1       0.782  11.406  19.268  0.00  0.00    +0.000 A 
ATOM     12  C   UNL     1       0.517   9.993  18.753  0.00  0.00    +0.000 C 
ENDROOT
BRANCH   2  13
ATOM     13  C   UNL     1       2.282   7.507  18.160  0.00  0.00    +0.000 C 
BRANCH  13  14
ATOM     14  C   UNL     1       2.607   6.030  18.017  0.00  0.00    +0.000 A 
ATOM     15  C   UNL     1       3.910   5.612  17.671  0.00  0.00    +0.000 A 
ATOM     16  C   UNL     1       4.237   4.250  17.638  0.00  0.00    +0.000 A 
ATOM     17  C   UNL     1       3.276   3.285  17.954  0.00  0.00    +0.000 A 
ATOM     18 CL   UNL     1       3.733   1.586  17.949  0.00  0.00    +0.000 Cl
ATOM     19  C   UNL     1       1.974   3.688  18.288  0.00  0.00    +0.000 A 
ATOM     20 CL   UNL     1       0.740   2.509  18.716  0.00  0.00    +0.000 Cl
ATOM     21  C   UNL     1       1.645   5.049  18.313  0.00  0.00    +0.000 A 
ENDBRANCH  13  14
ENDBRANCH   2  13
BRANCH  12  22
ATOM     22  C   UNL     1      -0.997   9.944  18.389  0.00  0.00    +0.000 C 
BRANCH  22  23
ATOM     23  N   UNL     1      -1.549  11.074  17.598  0.00  0.00    +0.000 NA
ATOM     24  C   UNL     1      -2.562  11.852  18.336  0.00  0.00    +0.000 C 
ATOM     25  C   UNL     1      -3.886  11.171  18.075  0.00  0.00    +0.000 C 
ATOM     26  C   UNL     1      -3.775  10.940  16.597  0.00  0.00    +0.000 C 
ATOM     27  C   UNL     1      -2.318  10.509  16.448  0.00  0.00    +0.000 C 
ENDBRANCH  22  23
ENDBRANCH  12  22
TORSDOF 4
ENDMDL
MODEL 9
REMARK VINA RESULT:      -7.7      0.942      1.807
REMARK  Name = 
REMARK  4 active torsions:
REMARK  status: ('A' for Active; 'I' for Inactive)
REMARK    1  A    between atoms: C_2  and  C_3
REMARK    2  A    between atoms: C_3  and  C_4
REMARK    3  A    between atoms: C_21  and  C_22
REMARK    4  A    between atoms: C_22  and  N_23
REMARK                            x       y       z     vdW  Elec       q    Type
REMARK                         _______ _______ _______ _____ _____    ______ ____
ROOT
ATOM      1  O   UNL     1       1.155   8.271  20.496  0.00  0.00    +0.000 OA
ATOM      2  C   UNL     1       1.821   7.811  19.580  0.00  0.00    +0.000 C 
ATOM      3  N   UNL     1       2.438   6.582  19.755  0.00  0.00    +0.000 N 
ATOM      4  C   UNL     1       2.151   5.883  21.028  0.00  0.00    +0.000 C 
ATOM      5  C   UNL     1       2.716   4.454  21.105  0.00  0.00    +0.000 C 
ATOM      6  C   UNL     1       2.427   3.750  19.808  0.00  0.00    +0.000 A 
ATOM      7  C   UNL     1       1.931   2.441  19.783  0.00  0.00    +0.000 A 
ATOM      8  C   UNL     1       1.667   1.817  18.562  0.00  0.00    +0.000 A 
ATOM      9  C   UNL     1       1.871   2.508  17.362  0.00  0.00    +0.000 A 
ATOM     10  C   UNL     1       2.349   3.828  17.378  0.00  0.00    +0.000 A 
ATOM     11  C   UNL     1       2.641   4.453  18.603  0.00  0.00    +0.000 A 
ATOM     12  C   UNL     1       3.179   5.880  18.682  0.00  0.00    +0.000 C 
ENDROOT
BRANCH   2  13
ATOM     13  C   UNL     1       1.945   8.711  18.363  0.00  0.00    +0.000 C 
BRANCH  13  14
ATOM     14  C   UNL     1       1.377  10.115  18.488  0.00  0.00    +0.000 A 
ATOM     15  C   UNL     1       2.228  11.241  18.442  0.00  0.00    +0.000 A 
ATOM     16  C   UNL     1       1.697  12.538  18.454  0.00  0.00    +0.000 A 
ATOM     17  C   UNL     1       0.313  12.734  18.507  0.00  0.00    +0.000 A 
ATOM     18 CL   UNL     1      -0.321  14.375  18.473  0.00  0.00    +0.000 Cl
ATOM     19  C   UNL     1      -0.542  11.623  18.566  0.00  0.00    +0.000 A 
ATOM     20 CL   UNL     1      -2.289  11.823  18.609  0.00  0.00    +0.000 Cl
ATOM     21  C   UNL     1      -0.010  10.327  18.562  0.00  0.00    +0.000 A 
ENDBRANCH  13  14
ENDBRANCH   2  13
BRANCH  12  22
ATOM     22  C   UNL     1       4.721   5.749  18.873  0.00  0.00    +0.000 C 
BRANCH  22  23
ATOM     23  N   UNL     1       5.594   6.382  17.851  0.00  0.00    +0.000 NA
ATOM     24  C   UNL     1       5.020   6.333  16.494  0.00  0.00    +0.000 C 
ATOM     25  C   UNL     1       5.466   5.017  15.897  0.00  0.00    +0.000 C 
ATOM     26  C   UNL     1       6.909   5.021  16.304  0.00  0.00    +0.000 C 
ATOM     27  C   UNL     1       6.839   5.565  17.729  0.00  0.00    +0.000 C 
ENDBRANCH  22  23
ENDBRANCH  12  22
TORSDOF 4
ENDMDL
