MODEL 1
REMARK VINA RESULT:      -7.7      0.000      0.000
REMARK  Name = 
REMARK  11 active torsions:
REMARK  status: ('A' for Active; 'I' for Inactive)
REMARK    1  A    between atoms: N_6  and  C_7
REMARK    2  A    between atoms: C_9  and  C_10
REMARK    3  A    between atoms: C_10  and  O_11
REMARK    4  A    between atoms: O_11  and  P_12
REMARK    5  A    between atoms: P_12  and  O_14
REMARK    6  A    between atoms: P_12  and  C_15
REMARK    7  A    between atoms: C_15  and  P_18
REMARK    8  A    between atoms: P_18  and  O_20
REMARK    9  A    between atoms: P_18  and  O_21
REMARK   10  A    between atoms: C_22  and  O_23
REMARK   11  A    between atoms: C_24  and  O_25
REMARK                            x       y       z     vdW  Elec       q    Type
REMARK                         _______ _______ _______ _____ _____    ______ ____
ROOT
ATOM      1  C   UNL     1       2.129   4.974  20.451  0.00  0.00    +0.000 C 
ATOM      2  O   UNL     1       3.498   4.584  20.663  0.00  0.00    +0.000 OA
ATOM      3  C   UNL     1       3.638   3.167  20.423  0.00  0.00    +0.000 C 
ATOM      4  C   UNL     1       2.219   2.614  20.279  0.00  0.00    +0.000 C 
ATOM      5  C   UNL     1       1.430   3.802  19.745  0.00  0.00    +0.000 C 
ENDROOT
BRANCH   1  11
ATOM      6  O   UNL     1       1.800   9.605  17.532  0.00  0.00    +0.000 OA
ATOM      7  C   UNL     1       1.925   8.596  18.215  0.00  0.00    +0.000 A 
ATOM      8  N   UNL     1       2.294   7.388  17.687  0.00  0.00    +0.000 N 
ATOM      9  C   UNL     1       2.354   6.188  18.343  0.00  0.00    +0.000 A 
ATOM     10  O   UNL     1       2.613   5.157  17.730  0.00  0.00    +0.000 OA
ATOM     11  N   UNL     1       2.070   6.234  19.707  0.00  0.00    +0.000 N 
ATOM     12  C   UNL     1       1.762   7.435  20.340  0.00  0.00    +0.000 A 
ATOM     13  C   UNL     1       1.685   8.577  19.667  0.00  0.00    +0.000 A 
ATOM     14  F   UNL     1       1.354   9.740  20.264  0.00  0.00    +0.000 F 
ATOM     15  H   UNL     1       2.464   7.361  16.688  0.00  0.00    +0.000 HD
ENDBRANCH   1  11
BRANCH   4  16
ATOM     16  O   UNL     1       1.678   2.231  21.554  0.00  0.00    +0.000 OA
ATOM     17  H   UNL     1       2.395   2.214  22.216  0.00  0.00    +0.000 HD
ENDBRANCH   4  16
BRANCH   5  18
ATOM     18  O   UNL     1       0.043   3.682  20.041  0.00  0.00    +0.000 OA
ATOM     19  H   UNL     1      -0.023   3.356  20.962  0.00  0.00    +0.000 HD
ENDBRANCH   5  18
BRANCH   3  20
ATOM     20  C   UNL     1       4.477   2.942  19.165  0.00  0.00    +0.000 C 
BRANCH  20  21
ATOM     21  O   UNL     1       5.706   3.687  19.221  0.00  0.00    +0.000 OA
BRANCH  21  22
ATOM     22  P   UNL     1       5.961   4.673  17.822  0.00  0.00    +0.000 P 
ATOM     23  O   UNL     1       5.777   5.944  18.665  0.00  0.00    +0.000 OA
BRANCH  22  24
ATOM     24  C   UNL     1       6.229   5.715  16.341  0.00  0.00    +0.000 C 
ATOM     25  F   UNL     1       5.225   6.607  16.273  0.00  0.00    +0.000 F 
ATOM     26  F   UNL     1       7.431   6.295  16.537  0.00  0.00    +0.000 F 
BRANCH  24  27
ATOM     27  P   UNL     1       6.274   4.655  14.850  0.00  0.00    +0.000 P 
ATOM     28  O   UNL     1       7.731   5.022  14.534  0.00  0.00    +0.000 OA
BRANCH  27  29
ATOM     29  O   UNL     1       6.392   3.255  15.719  0.00  0.00    +0.000 OA
ATOM     30  H   UNL     1       5.605   2.901  16.169  0.00  0.00    +0.000 HD
ENDBRANCH  27  29
BRANCH  27  31
ATOM     31  O   UNL     1       6.315   3.653  13.440  0.00  0.00    +0.000 OA
ATOM     32  H   UNL     1       6.314   2.749  13.823  0.00  0.00    +0.000 HD
ENDBRANCH  27  31
ENDBRANCH  24  27
ENDBRANCH  22  24
BRANCH  22  33
ATOM     33  O   UNL     1       7.544   4.255  17.967  0.00  0.00    +0.000 OA
ATOM     34  H   UNL     1       7.992   4.873  18.580  0.00  0.00    +0.000 HD
ENDBRANCH  22  33
ENDBRANCH  21  22
ENDBRANCH  20  21
ENDBRANCH   3  20
TORSDOF 11
ENDMDL
MODEL 2
REMARK VINA RESULT:      -7.7      1.975      3.366
REMARK  Name = 
REMARK  11 active torsions:
REMARK  status: ('A' for Active; 'I' for Inactive)
REMARK    1  A    between atoms: N_6  and  C_7
REMARK    2  A    between atoms: C_9  and  C_10
REMARK    3  A    between atoms: C_10  and  O_11
REMARK    4  A    between atoms: O_11  and  P_12
REMARK    5  A    between atoms: P_12  and  O_14
REMARK    6  A    between atoms: P_12  and  C_15
REMARK    7  A    between atoms: C_15  and  P_18
REMARK    8  A    between atoms: P_18  and  O_20
REMARK    9  A    between atoms: P_18  and  O_21
REMARK   10  A    between atoms: C_22  and  O_23
REMARK   11  A    between atoms: C_24  and  O_25
REMARK                            x       y       z     vdW  Elec       q    Type
REMARK                         _______ _______ _______ _____ _____    ______ ____
ROOT
ATOM      1  C   UNL     1       3.443   3.639  19.250  0.00  0.00    +0.000 C 
ATOM      2  O   UNL     1       4.608   3.762  18.414  0.00  0.00    +0.000 OA
ATOM      3  C   UNL     1       4.566   2.757  17.377  0.00  0.00    +0.000 C 
ATOM      4  C   UNL     1       3.418   1.813  17.742  0.00  0.00    +0.000 C 
ATOM      5  C   UNL     1       2.463   2.705  18.524  0.00  0.00    +0.000 C 
ENDROOT
BRANCH   1  11
ATOM      6  O   UNL     1       1.454   8.584  20.539  0.00  0.00    +0.000 OA
ATOM      7  C   UNL     1       1.855   7.477  20.203  0.00  0.00    +0.000 A 
ATOM      8  N   UNL     1       1.696   6.364  20.985  0.00  0.00    +0.000 N 
ATOM      9  C   UNL     1       2.202   5.114  20.749  0.00  0.00    +0.000 A 
ATOM     10  O   UNL     1       2.063   4.221  21.580  0.00  0.00    +0.000 OA
ATOM     11  N   UNL     1       2.891   4.961  19.548  0.00  0.00    +0.000 N 
ATOM     12  C   UNL     1       3.031   6.022  18.656  0.00  0.00    +0.000 A 
ATOM     13  C   UNL     1       2.552   7.229  18.930  0.00  0.00    +0.000 A 
ATOM     14  F   UNL     1       2.712   8.272  18.089  0.00  0.00    +0.000 F 
ATOM     15  H   UNL     1       1.223   6.496  21.872  0.00  0.00    +0.000 HD
ENDBRANCH   1  11
BRANCH   4  16
ATOM     16  O   UNL     1       3.871   0.751  18.598  0.00  0.00    +0.000 OA
ATOM     17  H   UNL     1       4.190   1.129  19.439  0.00  0.00    +0.000 HD
ENDBRANCH   4  16
BRANCH   5  18
ATOM     18  O   UNL     1       1.630   1.942  19.389  0.00  0.00    +0.000 OA
ATOM     19  H   UNL     1       2.064   1.073  19.508  0.00  0.00    +0.000 HD
ENDBRANCH   5  18
BRANCH   3  20
ATOM     20  C   UNL     1       4.353   3.430  16.021  0.00  0.00    +0.000 C 
BRANCH  20  21
ATOM     21  O   UNL     1       5.600   3.878  15.462  0.00  0.00    +0.000 OA
BRANCH  21  22
ATOM     22  P   UNL     1       6.321   5.163  16.369  0.00  0.00    +0.000 P 
ATOM     23  O   UNL     1       7.695   4.481  16.272  0.00  0.00    +0.000 OA
BRANCH  22  24
ATOM     24  C   UNL     1       7.083   6.523  17.328  0.00  0.00    +0.000 C 
ATOM     25  F   UNL     1       7.981   7.138  16.538  0.00  0.00    +0.000 F 
ATOM     26  F   UNL     1       6.055   7.324  17.674  0.00  0.00    +0.000 F 
BRANCH  24  27
ATOM     27  P   UNL     1       7.882   5.838  18.826  0.00  0.00    +0.000 P 
ATOM     28  O   UNL     1       8.449   7.203  19.244  0.00  0.00    +0.000 OA
BRANCH  27  29
ATOM     29  O   UNL     1       6.461   5.722  19.660  0.00  0.00    +0.000 OA
ATOM     30  H   UNL     1       5.877   4.958  19.509  0.00  0.00    +0.000 HD
ENDBRANCH  27  29
BRANCH  27  31
ATOM     31  O   UNL     1       8.638   5.191  20.241  0.00  0.00    +0.000 OA
ATOM     32  H   UNL     1       7.962   4.561  20.573  0.00  0.00    +0.000 HD
ENDBRANCH  27  31
ENDBRANCH  24  27
ENDBRANCH  22  24
BRANCH  22  33
ATOM     33  O   UNL     1       6.158   6.056  14.998  0.00  0.00    +0.000 OA
ATOM     34  H   UNL     1       6.766   6.824  15.032  0.00  0.00    +0.000 HD
ENDBRANCH  22  33
ENDBRANCH  21  22
ENDBRANCH  20  21
ENDBRANCH   3  20
TORSDOF 11
ENDMDL
MODEL 3
REMARK VINA RESULT:      -7.6      2.758      5.434
REMARK  Name = 
REMARK  11 active torsions:
REMARK  status: ('A' for Active; 'I' for Inactive)
REMARK    1  A    between atoms: N_6  and  C_7
REMARK    2  A    between atoms: C_9  and  C_10
REMARK    3  A    between atoms: C_10  and  O_11
REMARK    4  A    between atoms: O_11  and  P_12
REMARK    5  A    between atoms: P_12  and  O_14
REMARK    6  A    between atoms: P_12  and  C_15
REMARK    7  A    between atoms: C_15  and  P_18
REMARK    8  A    between atoms: P_18  and  O_20
REMARK    9  A    between atoms: P_18  and  O_21
REMARK   10  A    between atoms: C_22  and  O_23
REMARK   11  A    between atoms: C_24  and  O_25
REMARK                            x       y       z     vdW  Elec       q    Type
REMARK                         _______ _______ _______ _____ _____    ______ ____
ROOT
ATOM      1  C   UNL     1       4.984   6.421  17.207  0.00  0.00    +0.000 C 
ATOM      2  O   UNL     1       4.461   5.435  16.299  0.00  0.00    +0.000 OA
ATOM      3  C   UNL     1       5.310   4.266  16.314  0.00  0.00    +0.000 C 
ATOM      4  C   UNL     1       6.557   4.654  17.111  0.00  0.00    +0.000 C 
ATOM      5  C   UNL     1       6.047   5.722  18.068  0.00  0.00    +0.000 C 
ENDROOT
BRANCH   1  11
ATOM      6  O   UNL     1       1.031   8.687  20.258  0.00  0.00    +0.000 OA
ATOM      7  C   UNL     1       1.868   8.162  19.534  0.00  0.00    +0.000 A 
ATOM      8  N   UNL     1       2.583   7.057  19.912  0.00  0.00    +0.000 N 
ATOM      9  C   UNL     1       3.609   6.468  19.225  0.00  0.00    +0.000 A 
ATOM     10  O   UNL     1       4.231   5.532  19.720  0.00  0.00    +0.000 OA
ATOM     11  N   UNL     1       3.897   7.024  17.981  0.00  0.00    +0.000 N 
ATOM     12  C   UNL     1       3.167   8.100  17.485  0.00  0.00    +0.000 A 
ATOM     13  C   UNL     1       2.195   8.666  18.191  0.00  0.00    +0.000 A 
ATOM     14  F   UNL     1       1.503   9.731  17.735  0.00  0.00    +0.000 F 
ATOM     15  H   UNL     1       2.387   6.683  20.834  0.00  0.00    +0.000 HD
ENDBRANCH   1  11
BRANCH   4  16
ATOM     16  O   UNL     1       7.560   5.232  16.259  0.00  0.00    +0.000 OA
ATOM     17  H   UNL     1       7.894   6.054  16.666  0.00  0.00    +0.000 HD
ENDBRANCH   4  16
BRANCH   5  18
ATOM     18  O   UNL     1       7.099   6.574  18.506  0.00  0.00    +0.000 OA
ATOM     19  H   UNL     1       7.397   7.083  17.724  0.00  0.00    +0.000 HD
ENDBRANCH   5  18
BRANCH   3  20
ATOM     20  C   UNL     1       4.558   3.097  16.951  0.00  0.00    +0.000 C 
BRANCH  20  21
ATOM     21  O   UNL     1       3.158   3.141  16.624  0.00  0.00    +0.000 OA
BRANCH  21  22
ATOM     22  P   UNL     1       2.141   3.226  18.022  0.00  0.00    +0.000 P 
ATOM     23  O   UNL     1       1.111   4.056  17.240  0.00  0.00    +0.000 OA
BRANCH  22  24
ATOM     24  C   UNL     1       1.068   3.316  19.501  0.00  0.00    +0.000 C 
ATOM     25  F   UNL     1       0.666   4.592  19.647  0.00  0.00    +0.000 F 
ATOM     26  F   UNL     1       0.047   2.474  19.242  0.00  0.00    +0.000 F 
BRANCH  24  27
ATOM     27  P   UNL     1       2.002   2.746  20.968  0.00  0.00    +0.000 P 
ATOM     28  O   UNL     1       3.253   2.416  20.142  0.00  0.00    +0.000 OA
BRANCH  27  29
ATOM     29  O   UNL     1       2.278   4.279  21.518  0.00  0.00    +0.000 OA
ATOM     30  H   UNL     1       3.184   4.550  21.748  0.00  0.00    +0.000 HD
ENDBRANCH  27  29
BRANCH  27  31
ATOM     31  O   UNL     1       2.884   2.208  22.355  0.00  0.00    +0.000 OA
ATOM     32  H   UNL     1       2.920   3.017  22.910  0.00  0.00    +0.000 HD
ENDBRANCH  27  31
ENDBRANCH  24  27
ENDBRANCH  22  24
BRANCH  22  33
ATOM     33  O   UNL     1       1.789   1.651  17.709  0.00  0.00    +0.000 OA
ATOM     34  H   UNL     1       2.123   1.089  18.439  0.00  0.00    +0.000 HD
ENDBRANCH  22  33
ENDBRANCH  21  22
ENDBRANCH  20  21
ENDBRANCH   3  20
TORSDOF 11
ENDMDL
MODEL 4
REMARK VINA RESULT:      -7.2      3.420      6.929
REMARK  Name = 
REMARK  11 active torsions:
REMARK  status: ('A' for Active; 'I' for Inactive)
REMARK    1  A    between atoms: N_6  and  C_7
REMARK    2  A    between atoms: C_9  and  C_10
REMARK    3  A    between atoms: C_10  and  O_11
REMARK    4  A    between atoms: O_11  and  P_12
REMARK    5  A    between atoms: P_12  and  O_14
REMARK    6  A    between atoms: P_12  and  C_15
REMARK    7  A    between atoms: C_15  and  P_18
REMARK    8  A    between atoms: P_18  and  O_20
REMARK    9  A    between atoms: P_18  and  O_21
REMARK   10  A    between atoms: C_22  and  O_23
REMARK   11  A    between atoms: C_24  and  O_25
REMARK                            x       y       z     vdW  Elec       q    Type
REMARK                         _______ _______ _______ _____ _____    ______ ____
ROOT
ATOM      1  C   UNL     1       5.907   3.944  16.377  0.00  0.00    +0.000 C 
ATOM      2  O   UNL     1       4.543   4.361  16.573  0.00  0.00    +0.000 OA
ATOM      3  C   UNL     1       4.432   5.075  17.824  0.00  0.00    +0.000 C 
ATOM      4  C   UNL     1       5.766   4.882  18.547  0.00  0.00    +0.000 C 
ATOM      5  C   UNL     1       6.761   4.695  17.409  0.00  0.00    +0.000 C 
ENDROOT
BRANCH   1  11
ATOM      6  O   UNL     1       7.614   4.820  11.240  0.00  0.00    +0.000 OA
ATOM      7  C   UNL     1       7.172   4.642  12.369  0.00  0.00    +0.000 A 
ATOM      8  N   UNL     1       7.527   5.426  13.433  0.00  0.00    +0.000 N 
ATOM      9  C   UNL     1       7.177   5.240  14.744  0.00  0.00    +0.000 A 
ATOM     10  O   UNL     1       7.639   5.967  15.619  0.00  0.00    +0.000 OA
ATOM     11  N   UNL     1       6.313   4.176  14.990  0.00  0.00    +0.000 N 
ATOM     12  C   UNL     1       5.841   3.375  13.954  0.00  0.00    +0.000 A 
ATOM     13  C   UNL     1       6.223   3.566  12.697  0.00  0.00    +0.000 A 
ATOM     14  F   UNL     1       5.799   2.775  11.690  0.00  0.00    +0.000 F 
ATOM     15  H   UNL     1       8.183   6.176  13.247  0.00  0.00    +0.000 HD
ENDBRANCH   1  11
BRANCH   4  16
ATOM     16  O   UNL     1       5.753   3.692  19.354  0.00  0.00    +0.000 OA
ATOM     17  H   UNL     1       5.397   2.950  18.828  0.00  0.00    +0.000 HD
ENDBRANCH   4  16
BRANCH   5  18
ATOM     18  O   UNL     1       7.918   3.987  17.840  0.00  0.00    +0.000 OA
ATOM     19  H   UNL     1       7.626   3.081  18.070  0.00  0.00    +0.000 HD
ENDBRANCH   5  18
BRANCH   3  20
ATOM     20  C   UNL     1       4.133   6.549  17.547  0.00  0.00    +0.000 C 
BRANCH  20  21
ATOM     21  O   UNL     1       3.193   7.075  18.501  0.00  0.00    +0.000 OA
BRANCH  21  22
ATOM     22  P   UNL     1       2.484   5.850  19.495  0.00  0.00    +0.000 P 
ATOM     23  O   UNL     1       1.753   6.921  20.319  0.00  0.00    +0.000 OA
BRANCH  22  24
ATOM     24  C   UNL     1       1.734   4.553  20.546  0.00  0.00    +0.000 C 
ATOM     25  F   UNL     1       2.423   4.504  21.701  0.00  0.00    +0.000 F 
ATOM     26  F   UNL     1       0.454   4.941  20.718  0.00  0.00    +0.000 F 
BRANCH  24  27
ATOM     27  P   UNL     1       1.796   2.947  19.671  0.00  0.00    +0.000 P 
ATOM     28  O   UNL     1       1.982   2.154  20.973  0.00  0.00    +0.000 OA
BRANCH  27  29
ATOM     29  O   UNL     1       0.166   2.908  19.407  0.00  0.00    +0.000 OA
ATOM     30  H   UNL     1      -0.404   3.577  19.825  0.00  0.00    +0.000 HD
ENDBRANCH  27  29
BRANCH  27  31
ATOM     31  O   UNL     1       1.856   1.429  18.844  0.00  0.00    +0.000 OA
ATOM     32  H   UNL     1       2.521   0.929  19.366  0.00  0.00    +0.000 HD
ENDBRANCH  27  31
ENDBRANCH  24  27
ENDBRANCH  22  24
BRANCH  22  33
ATOM     33  O   UNL     1       1.519   5.533  18.201  0.00  0.00    +0.000 OA
ATOM     34  H   UNL     1       1.768   4.670  17.811  0.00  0.00    +0.000 HD
ENDBRANCH  22  33
ENDBRANCH  21  22
ENDBRANCH  20  21
ENDBRANCH   3  20
TORSDOF 11
ENDMDL
MODEL 5
REMARK VINA RESULT:      -7.2      3.979      7.453
REMARK  Name = 
REMARK  11 active torsions:
REMARK  status: ('A' for Active; 'I' for Inactive)
REMARK    1  A    between atoms: N_6  and  C_7
REMARK    2  A    between atoms: C_9  and  C_10
REMARK    3  A    between atoms: C_10  and  O_11
REMARK    4  A    between atoms: O_11  and  P_12
REMARK    5  A    between atoms: P_12  and  O_14
REMARK    6  A    between atoms: P_12  and  C_15
REMARK    7  A    between atoms: C_15  and  P_18
REMARK    8  A    between atoms: P_18  and  O_20
REMARK    9  A    between atoms: P_18  and  O_21
REMARK   10  A    between atoms: C_22  and  O_23
REMARK   11  A    between atoms: C_24  and  O_25
REMARK                            x       y       z     vdW  Elec       q    Type
REMARK                         _______ _______ _______ _____ _____    ______ ____
ROOT
ATOM      1  C   UNL     1       3.053   4.142  18.946  0.00  0.00    +0.000 C 
ATOM      2  O   UNL     1       2.290   5.329  18.660  0.00  0.00    +0.000 OA
ATOM      3  C   UNL     1       1.557   5.727  19.840  0.00  0.00    +0.000 C 
ATOM      4  C   UNL     1       1.703   4.579  20.841  0.00  0.00    +0.000 C 
ATOM      5  C   UNL     1       3.040   3.954  20.470  0.00  0.00    +0.000 C 
ENDROOT
BRANCH   1  11
ATOM      6  O   UNL     1       8.005   4.629  16.641  0.00  0.00    +0.000 OA
ATOM      7  C   UNL     1       6.925   4.479  17.200  0.00  0.00    +0.000 A 
ATOM      8  N   UNL     1       5.866   3.850  16.602  0.00  0.00    +0.000 N 
ATOM      9  C   UNL     1       4.595   3.732  17.097  0.00  0.00    +0.000 A 
ATOM     10  O   UNL     1       3.709   3.222  16.417  0.00  0.00    +0.000 OA
ATOM     11  N   UNL     1       4.396   4.253  18.373  0.00  0.00    +0.000 N 
ATOM     12  C   UNL     1       5.439   4.839  19.085  0.00  0.00    +0.000 A 
ATOM     13  C   UNL     1       6.654   4.963  18.563  0.00  0.00    +0.000 A 
ATOM     14  F   UNL     1       7.663   5.560  19.229  0.00  0.00    +0.000 F 
ATOM     15  H   UNL     1       6.014   3.507  15.660  0.00  0.00    +0.000 HD
ENDBRANCH   1  11
BRANCH   4  16
ATOM     16  O   UNL     1       0.665   3.600  20.665  0.00  0.00    +0.000 OA
ATOM     17  H   UNL     1      -0.177   3.958  21.006  0.00  0.00    +0.000 HD
ENDBRANCH   4  16
BRANCH   5  18
ATOM     18  O   UNL     1       3.116   2.597  20.894  0.00  0.00    +0.000 OA
ATOM     19  H   UNL     1       2.646   2.063  20.222  0.00  0.00    +0.000 HD
ENDBRANCH   5  18
BRANCH   3  20
ATOM     20  C   UNL     1       2.128   7.039  20.378  0.00  0.00    +0.000 C 
BRANCH  20  21
ATOM     21  O   UNL     1       1.317   7.558  21.447  0.00  0.00    +0.000 OA
BRANCH  21  22
ATOM     22  P   UNL     1       0.840   9.201  21.194  0.00  0.00    +0.000 P 
ATOM     23  O   UNL     1       1.176   9.085  19.700  0.00  0.00    +0.000 OA
BRANCH  22  24
ATOM     24  C   UNL     1       0.335  10.940  20.928  0.00  0.00    +0.000 C 
ATOM     25  F   UNL     1       1.440  11.706  20.971  0.00  0.00    +0.000 F 
ATOM     26  F   UNL     1      -0.260  10.948  19.718  0.00  0.00    +0.000 F 
BRANCH  24  27
ATOM     27  P   UNL     1      -0.860  11.433  22.223  0.00  0.00    +0.000 P 
ATOM     28  O   UNL     1      -0.169  10.583  23.298  0.00  0.00    +0.000 OA
BRANCH  27  29
ATOM     29  O   UNL     1      -0.197  12.935  22.412  0.00  0.00    +0.000 OA
ATOM     30  H   UNL     1      -0.337  13.420  23.244  0.00  0.00    +0.000 HD
ENDBRANCH  27  29
BRANCH  27  31
ATOM     31  O   UNL     1      -1.990  11.899  23.448  0.00  0.00    +0.000 OA
ATOM     32  H   UNL     1      -2.736  12.261  22.921  0.00  0.00    +0.000 HD
ENDBRANCH  27  31
ENDBRANCH  24  27
ENDBRANCH  22  24
BRANCH  22  33
ATOM     33  O   UNL     1      -0.700   8.650  21.359  0.00  0.00    +0.000 OA
ATOM     34  H   UNL     1      -0.694   7.672  21.421  0.00  0.00    +0.000 HD
ENDBRANCH  22  33
ENDBRANCH  21  22
ENDBRANCH  20  21
ENDBRANCH   3  20
TORSDOF 11
ENDMDL
MODEL 6
REMARK VINA RESULT:      -7.2      3.395      6.814
REMARK  Name = 
REMARK  11 active torsions:
REMARK  status: ('A' for Active; 'I' for Inactive)
REMARK    1  A    between atoms: N_6  and  C_7
REMARK    2  A    between atoms: C_9  and  C_10
REMARK    3  A    between atoms: C_10  and  O_11
REMARK    4  A    between atoms: O_11  and  P_12
REMARK    5  A    between atoms: P_12  and  O_14
REMARK    6  A    between atoms: P_12  and  C_15
REMARK    7  A    between atoms: C_15  and  P_18
REMARK    8  A    between atoms: P_18  and  O_20
REMARK    9  A    between atoms: P_18  and  O_21
REMARK   10  A    between atoms: C_22  and  O_23
REMARK   11  A    between atoms: C_24  and  O_25
REMARK                            x       y       z     vdW  Elec       q    Type
REMARK                         _______ _______ _______ _____ _____    ______ ____
ROOT
ATOM      1  C   UNL     1       3.059   4.073  19.028  0.00  0.00    +0.000 C 
ATOM      2  O   UNL     1       2.242   5.208  18.690  0.00  0.00    +0.000 OA
ATOM      3  C   UNL     1       1.504   5.636  19.857  0.00  0.00    +0.000 C 
ATOM      4  C   UNL     1       1.711   4.550  20.915  0.00  0.00    +0.000 C 
ATOM      5  C   UNL     1       3.071   3.964  20.560  0.00  0.00    +0.000 C 
ENDROOT
BRANCH   1  11
ATOM      6  O   UNL     1       7.961   4.664  16.643  0.00  0.00    +0.000 OA
ATOM      7  C   UNL     1       6.894   4.491  17.218  0.00  0.00    +0.000 A 
ATOM      8  N   UNL     1       5.832   3.857  16.629  0.00  0.00    +0.000 N 
ATOM      9  C   UNL     1       4.572   3.714  17.145  0.00  0.00    +0.000 A 
ATOM     10  O   UNL     1       3.681   3.202  16.473  0.00  0.00    +0.000 OA
ATOM     11  N   UNL     1       4.389   4.211  18.433  0.00  0.00    +0.000 N 
ATOM     12  C   UNL     1       5.438   4.800  19.135  0.00  0.00    +0.000 A 
ATOM     13  C   UNL     1       6.641   4.949  18.594  0.00  0.00    +0.000 A 
ATOM     14  F   UNL     1       7.654   5.549  19.251  0.00  0.00    +0.000 F 
ATOM     15  H   UNL     1       5.967   3.531  15.679  0.00  0.00    +0.000 HD
ENDBRANCH   1  11
BRANCH   4  16
ATOM     16  O   UNL     1       0.715   3.519  20.803  0.00  0.00    +0.000 OA
ATOM     17  H   UNL     1       0.519   3.164  21.691  0.00  0.00    +0.000 HD
ENDBRANCH   4  16
BRANCH   5  18
ATOM     18  O   UNL     1       3.211   2.637  21.053  0.00  0.00    +0.000 OA
ATOM     19  H   UNL     1       2.848   2.040  20.367  0.00  0.00    +0.000 HD
ENDBRANCH   5  18
BRANCH   3  20
ATOM     20  C   UNL     1       2.023   6.998  20.319  0.00  0.00    +0.000 C 
BRANCH  20  21
ATOM     21  O   UNL     1       1.199   7.540  21.366  0.00  0.00    +0.000 OA
BRANCH  21  22
ATOM     22  P   UNL     1       0.551   9.096  20.978  0.00  0.00    +0.000 P 
ATOM     23  O   UNL     1       1.360   9.734  22.118  0.00  0.00    +0.000 OA
BRANCH  22  24
ATOM     24  C   UNL     1      -0.136  10.742  20.567  0.00  0.00    +0.000 C 
ATOM     25  F   UNL     1      -1.123  11.011  21.440  0.00  0.00    +0.000 F 
ATOM     26  F   UNL     1       0.906  11.591  20.679  0.00  0.00    +0.000 F 
BRANCH  24  27
ATOM     27  P   UNL     1      -0.761  10.730  18.847  0.00  0.00    +0.000 P 
ATOM     28  O   UNL     1      -1.666  11.948  19.082  0.00  0.00    +0.000 OA
BRANCH  27  29
ATOM     29  O   UNL     1       0.627  11.376  18.226  0.00  0.00    +0.000 OA
ATOM     30  H   UNL     1       1.462  11.283  18.718  0.00  0.00    +0.000 HD
ENDBRANCH  27  29
BRANCH  27  31
ATOM     31  O   UNL     1      -1.352  10.718  17.222  0.00  0.00    +0.000 OA
ATOM     32  H   UNL     1      -2.065  11.394  17.250  0.00  0.00    +0.000 HD
ENDBRANCH  27  31
ENDBRANCH  24  27
ENDBRANCH  22  24
BRANCH  22  33
ATOM     33  O   UNL     1       1.554   9.053  19.676  0.00  0.00    +0.000 OA
ATOM     34  H   UNL     1       1.099   9.435  18.898  0.00  0.00    +0.000 HD
ENDBRANCH  22  33
ENDBRANCH  21  22
ENDBRANCH  20  21
ENDBRANCH   3  20
TORSDOF 11
ENDMDL
MODEL 7
REMARK VINA RESULT:      -7.2      3.151      6.662
REMARK  Name = 
REMARK  11 active torsions:
REMARK  status: ('A' for Active; 'I' for Inactive)
REMARK    1  A    between atoms: N_6  and  C_7
REMARK    2  A    between atoms: C_9  and  C_10
REMARK    3  A    between atoms: C_10  and  O_11
REMARK    4  A    between atoms: O_11  and  P_12
REMARK    5  A    between atoms: P_12  and  O_14
REMARK    6  A    between atoms: P_12  and  C_15
REMARK    7  A    between atoms: C_15  and  P_18
REMARK    8  A    between atoms: P_18  and  O_20
REMARK    9  A    between atoms: P_18  and  O_21
REMARK   10  A    between atoms: C_22  and  O_23
REMARK   11  A    between atoms: C_24  and  O_25
REMARK                            x       y       z     vdW  Elec       q    Type
REMARK                         _______ _______ _______ _____ _____    ______ ____
ROOT
ATOM      1  C   UNL     1       4.907   4.224  18.684  0.00  0.00    +0.000 C 
ATOM      2  O   UNL     1       5.132   5.637  18.834  0.00  0.00    +0.000 OA
ATOM      3  C   UNL     1       5.264   6.246  17.531  0.00  0.00    +0.000 C 
ATOM      4  C   UNL     1       5.354   5.094  16.528  0.00  0.00    +0.000 C 
ATOM      5  C   UNL     1       4.576   3.974  17.205  0.00  0.00    +0.000 C 
ENDROOT
BRANCH   1  11
ATOM      6  O   UNL     1       1.132   2.537  22.287  0.00  0.00    +0.000 OA
ATOM      7  C   UNL     1       1.934   2.897  21.434  0.00  0.00    +0.000 A 
ATOM      8  N   UNL     1       3.128   2.259  21.227  0.00  0.00    +0.000 N 
ATOM      9  C   UNL     1       4.131   2.647  20.381  0.00  0.00    +0.000 A 
ATOM     10  O   UNL     1       5.195   2.034  20.356  0.00  0.00    +0.000 OA
ATOM     11  N   UNL     1       3.864   3.776  19.609  0.00  0.00    +0.000 N 
ATOM     12  C   UNL     1       2.643   4.439  19.699  0.00  0.00    +0.000 A 
ATOM     13  C   UNL     1       1.702   4.052  20.552  0.00  0.00    +0.000 A 
ATOM     14  F   UNL     1       0.529   4.708  20.672  0.00  0.00    +0.000 F 
ATOM     15  H   UNL     1       3.325   1.460  21.820  0.00  0.00    +0.000 HD
ENDBRANCH   1  11
BRANCH   4  16
ATOM     16  O   UNL     1       6.715   4.670  16.343  0.00  0.00    +0.000 OA
ATOM     17  H   UNL     1       6.732   3.881  15.769  0.00  0.00    +0.000 HD
ENDBRANCH   4  16
BRANCH   5  18
ATOM     18  O   UNL     1       4.975   2.696  16.722  0.00  0.00    +0.000 OA
ATOM     19  H   UNL     1       4.514   2.559  15.870  0.00  0.00    +0.000 HD
ENDBRANCH   5  18
BRANCH   3  20
ATOM     20  C   UNL     1       4.060   7.151  17.265  0.00  0.00    +0.000 C 
BRANCH  20  21
ATOM     21  O   UNL     1       3.173   7.179  18.398  0.00  0.00    +0.000 OA
BRANCH  21  22
ATOM     22  P   UNL     1       2.244   8.636  18.489  0.00  0.00    +0.000 P 
ATOM     23  O   UNL     1       1.209   8.054  17.514  0.00  0.00    +0.000 OA
BRANCH  22  24
ATOM     24  C   UNL     1       1.263  10.177  18.586  0.00  0.00    +0.000 C 
ATOM     25  F   UNL     1       1.999  11.173  18.061  0.00  0.00    +0.000 F 
ATOM     26  F   UNL     1       0.145   9.923  17.876  0.00  0.00    +0.000 F 
BRANCH  24  27
ATOM     27  P   UNL     1       0.837  10.521  20.333  0.00  0.00    +0.000 P 
ATOM     28  O   UNL     1       0.410  11.964  20.028  0.00  0.00    +0.000 OA
BRANCH  27  29
ATOM     29  O   UNL     1      -0.573   9.663  20.268  0.00  0.00    +0.000 OA
ATOM     30  H   UNL     1      -0.543   8.700  20.129  0.00  0.00    +0.000 HD
ENDBRANCH  27  29
BRANCH  27  31
ATOM     31  O   UNL     1       0.436  10.846  21.983  0.00  0.00    +0.000 OA
ATOM     32  H   UNL     1      -0.077  10.047  22.238  0.00  0.00    +0.000 HD
ENDBRANCH  27  31
ENDBRANCH  24  27
ENDBRANCH  22  24
BRANCH  22  33
ATOM     33  O   UNL     1       1.804   8.116  19.986  0.00  0.00    +0.000 OA
ATOM     34  H   UNL     1       2.450   8.438  20.648  0.00  0.00    +0.000 HD
ENDBRANCH  22  33
ENDBRANCH  21  22
ENDBRANCH  20  21
ENDBRANCH   3  20
TORSDOF 11
ENDMDL
MODEL 8
REMARK VINA RESULT:      -7.1      2.997      5.981
REMARK  Name = 
REMARK  11 active torsions:
REMARK  status: ('A' for Active; 'I' for Inactive)
REMARK    1  A    between atoms: N_6  and  C_7
REMARK    2  A    between atoms: C_9  and  C_10
REMARK    3  A    between atoms: C_10  and  O_11
REMARK    4  A    between atoms: O_11  and  P_12
REMARK    5  A    between atoms: P_12  and  O_14
REMARK    6  A    between atoms: P_12  and  C_15
REMARK    7  A    between atoms: C_15  and  P_18
REMARK    8  A    between atoms: P_18  and  O_20
REMARK    9  A    between atoms: P_18  and  O_21
REMARK   10  A    between atoms: C_22  and  O_23
REMARK   11  A    between atoms: C_24  and  O_25
REMARK                            x       y       z     vdW  Elec       q    Type
REMARK                         _______ _______ _______ _____ _____    ______ ____
ROOT
ATOM      1  C   UNL     1       4.159   3.536  17.806  0.00  0.00    +0.000 C 
ATOM      2  O   UNL     1       2.879   4.145  17.554  0.00  0.00    +0.000 OA
ATOM      3  C   UNL     1       1.953   3.772  18.598  0.00  0.00    +0.000 C 
ATOM      4  C   UNL     1       2.647   2.681  19.416  0.00  0.00    +0.000 C 
ATOM      5  C   UNL     1       4.127   2.997  19.244  0.00  0.00    +0.000 C 
ENDROOT
BRANCH   1  11
ATOM      6  O   UNL     1       8.071   7.234  16.761  0.00  0.00    +0.000 OA
ATOM      7  C   UNL     1       7.243   6.367  17.014  0.00  0.00    +0.000 A 
ATOM      8  N   UNL     1       6.504   5.745  16.043  0.00  0.00    +0.000 N 
ATOM      9  C   UNL     1       5.486   4.851  16.232  0.00  0.00    +0.000 A 
ATOM     10  O   UNL     1       4.838   4.434  15.276  0.00  0.00    +0.000 OA
ATOM     11  N   UNL     1       5.235   4.496  17.556  0.00  0.00    +0.000 N 
ATOM     12  C   UNL     1       5.993   5.021  18.600  0.00  0.00    +0.000 A 
ATOM     13  C   UNL     1       6.955   5.909  18.383  0.00  0.00    +0.000 A 
ATOM     14  F   UNL     1       7.673   6.450  19.389  0.00  0.00    +0.000 F 
ATOM     15  H   UNL     1       6.672   6.038  15.087  0.00  0.00    +0.000 HD
ENDBRANCH   1  11
BRANCH   4  16
ATOM     16  O   UNL     1       2.384   1.377  18.872  0.00  0.00    +0.000 OA
ATOM     17  H   UNL     1       1.789   0.890  19.474  0.00  0.00    +0.000 HD
ENDBRANCH   4  16
BRANCH   5  18
ATOM     18  O   UNL     1       4.934   1.845  19.457  0.00  0.00    +0.000 OA
ATOM     19  H   UNL     1       5.722   2.139  19.958  0.00  0.00    +0.000 HD
ENDBRANCH   5  18
BRANCH   3  20
ATOM     20  C   UNL     1       1.615   5.000  19.444  0.00  0.00    +0.000 C 
BRANCH  20  21
ATOM     21  O   UNL     1       2.636   6.007  19.327  0.00  0.00    +0.000 OA
BRANCH  21  22
ATOM     22  P   UNL     1       2.020   7.530  18.783  0.00  0.00    +0.000 P 
ATOM     23  O   UNL     1       2.124   8.097  20.208  0.00  0.00    +0.000 OA
BRANCH  22  24
ATOM     24  C   UNL     1       1.368   9.141  18.208  0.00  0.00    +0.000 C 
ATOM     25  F   UNL     1       2.389   9.838  17.678  0.00  0.00    +0.000 F 
ATOM     26  F   UNL     1       0.422   8.829  17.300  0.00  0.00    +0.000 F 
BRANCH  24  27
ATOM     27  P   UNL     1       0.621  10.035  19.620  0.00  0.00    +0.000 P 
ATOM     28  O   UNL     1       1.378  11.333  19.302  0.00  0.00    +0.000 OA
BRANCH  27  29
ATOM     29  O   UNL     1      -0.836  10.225  18.864  0.00  0.00    +0.000 OA
ATOM     30  H   UNL     1      -0.984   9.811  17.996  0.00  0.00    +0.000 HD
ENDBRANCH  27  29
BRANCH  27  31
ATOM     31  O   UNL     1      -0.085  10.880  20.954  0.00  0.00    +0.000 OA
ATOM     32  H   UNL     1       0.048  11.821  20.703  0.00  0.00    +0.000 HD
ENDBRANCH  27  31
ENDBRANCH  24  27
ENDBRANCH  22  24
BRANCH  22  33
ATOM     33  O   UNL     1       3.500   7.745  18.098  0.00  0.00    +0.000 OA
ATOM     34  H   UNL     1       4.026   8.367  18.642  0.00  0.00    +0.000 HD
ENDBRANCH  22  33
ENDBRANCH  21  22
ENDBRANCH  20  21
ENDBRANCH   3  20
TORSDOF 11
ENDMDL
MODEL 9
REMARK VINA RESULT:      -7.1      3.474      6.880
REMARK  Name = 
REMARK  11 active torsions:
REMARK  status: ('A' for Active; 'I' for Inactive)
REMARK    1  A    between atoms: N_6  and  C_7
REMARK    2  A    between atoms: C_9  and  C_10
REMARK    3  A    between atoms: C_10  and  O_11
REMARK    4  A    between atoms: O_11  and  P_12
REMARK    5  A    between atoms: P_12  and  O_14
REMARK    6  A    between atoms: P_12  and  C_15
REMARK    7  A    between atoms: C_15  and  P_18
REMARK    8  A    between atoms: P_18  and  O_20
REMARK    9  A    between atoms: P_18  and  O_21
REMARK   10  A    between atoms: C_22  and  O_23
REMARK   11  A    between atoms: C_24  and  O_25
REMARK                            x       y       z     vdW  Elec       q    Type
REMARK                         _______ _______ _______ _____ _____    ______ ____
ROOT
ATOM      1  C   UNL     1       3.016   4.370  18.924  0.00  0.00    +0.000 C 
ATOM      2  O   UNL     1       2.304   5.555  18.525  0.00  0.00    +0.000 OA
ATOM      3  C   UNL     1       1.521   6.045  19.637  0.00  0.00    +0.000 C 
ATOM      4  C   UNL     1       1.579   4.958  20.712  0.00  0.00    +0.000 C 
ATOM      5  C   UNL     1       2.916   4.277  20.454  0.00  0.00    +0.000 C 
ENDROOT
BRANCH   1  11
ATOM      6  O   UNL     1       8.097   4.586  16.872  0.00  0.00    +0.000 OA
ATOM      7  C   UNL     1       6.985   4.499  17.378  0.00  0.00    +0.000 A 
ATOM      8  N   UNL     1       5.939   3.866  16.759  0.00  0.00    +0.000 N 
ATOM      9  C   UNL     1       4.641   3.811  17.189  0.00  0.00    +0.000 A 
ATOM     10  O   UNL     1       3.777   3.287  16.491  0.00  0.00    +0.000 OA
ATOM     11  N   UNL     1       4.390   4.410  18.421  0.00  0.00    +0.000 N 
ATOM     12  C   UNL     1       5.412   5.007  19.155  0.00  0.00    +0.000 A 
ATOM     13  C   UNL     1       6.655   5.068  18.695  0.00  0.00    +0.000 A 
ATOM     14  F   UNL     1       7.646   5.674  19.381  0.00  0.00    +0.000 F 
ATOM     15  H   UNL     1       6.127   3.464  15.847  0.00  0.00    +0.000 HD
ENDBRANCH   1  11
BRANCH   4  16
ATOM     16  O   UNL     1       0.525   3.997  20.538  0.00  0.00    +0.000 OA
ATOM     17  H   UNL     1      -0.307   4.362  20.896  0.00  0.00    +0.000 HD
ENDBRANCH   4  16
BRANCH   5  18
ATOM     18  O   UNL     1       2.930   2.948  20.963  0.00  0.00    +0.000 OA
ATOM     19  H   UNL     1       2.290   2.921  21.704  0.00  0.00    +0.000 HD
ENDBRANCH   5  18
BRANCH   3  20
ATOM     20  C   UNL     1       2.100   7.373  20.125  0.00  0.00    +0.000 C 
BRANCH  20  21
ATOM     21  O   UNL     1       1.078   8.202  20.707  0.00  0.00    +0.000 OA
BRANCH  21  22
ATOM     22  P   UNL     1       1.032   9.792  20.027  0.00  0.00    +0.000 P 
ATOM     23  O   UNL     1       1.328   9.221  18.632  0.00  0.00    +0.000 OA
BRANCH  22  24
ATOM     24  C   UNL     1       0.985  11.475  19.310  0.00  0.00    +0.000 C 
ATOM     25  F   UNL     1       1.448  12.335  20.234  0.00  0.00    +0.000 F 
ATOM     26  F   UNL     1       1.772  11.409  18.217  0.00  0.00    +0.000 F 
BRANCH  24  27
ATOM     27  P   UNL     1      -0.733  11.884  18.829  0.00  0.00    +0.000 P 
ATOM     28  O   UNL     1      -0.318  13.206  18.168  0.00  0.00    +0.000 OA
BRANCH  27  29
ATOM     29  O   UNL     1      -0.754  10.802  17.581  0.00  0.00    +0.000 OA
ATOM     30  H   UNL     1       0.035  10.702  17.019  0.00  0.00    +0.000 HD
ENDBRANCH  27  29
BRANCH  27  31
ATOM     31  O   UNL     1      -2.357  12.271  18.374  0.00  0.00    +0.000 OA
ATOM     32  H   UNL     1      -2.536  13.082  18.898  0.00  0.00    +0.000 HD
ENDBRANCH  27  31
ENDBRANCH  24  27
ENDBRANCH  22  24
BRANCH  22  33
ATOM     33  O   UNL     1      -0.597   9.695  20.223  0.00  0.00    +0.000 OA
ATOM     34  H   UNL     1      -0.991   9.216  19.465  0.00  0.00    +0.000 HD
ENDBRANCH  22  33
ENDBRANCH  21  22
ENDBRANCH  20  21
ENDBRANCH   3  20
TORSDOF 11
ENDMDL
