MODEL 1
REMARK VINA RESULT:      -8.2      0.000      0.000
REMARK  Name = 
REMARK  6 active torsions:
REMARK  status: ('A' for Active; 'I' for Inactive)
REMARK    1  A    between atoms: C_1  and  C_2
REMARK    2  A    between atoms: C_6  and  C_7
REMARK    3  A    between atoms: C_9  and  C_10
REMARK    4  A    between atoms: N_21  and  C_22
REMARK    5  A    between atoms: C_22  and  C_23
REMARK    6  A    between atoms: C_22  and  C_24
REMARK                            x       y       z     vdW  Elec       q    Type
REMARK                         _______ _______ _______ _____ _____    ______ ____
ROOT
ATOM      1  C   UNL     1       1.025   8.670  20.922  0.00  0.00    +0.000 C 
ATOM      2  O   UNL     1       0.840   8.891  22.118  0.00  0.00    +0.000 OA
ATOM      3  N   UNL     1       1.635   7.492  20.464  0.00  0.00    +0.000 N 
ATOM      4  C   UNL     1       1.919   6.449  21.455  0.00  0.00    +0.000 C 
ATOM      5  C   UNL     1       1.773   5.049  20.863  0.00  0.00    +0.000 C 
ATOM      6  C   UNL     1       2.559   4.868  19.550  0.00  0.00    +0.000 C 
ATOM      7  C   UNL     1       2.069   5.988  18.583  0.00  0.00    +0.000 C 
ATOM      8  C   UNL     1       2.366   7.359  19.199  0.00  0.00    +0.000 C 
ATOM      9  C   UNL     1       4.116   4.988  19.745  0.00  0.00    +0.000 C 
ATOM     10  C   UNL     1       4.705   4.722  18.400  0.00  0.00    +0.000 A 
ATOM     11  C   UNL     1       5.367   5.503  17.478  0.00  0.00    +0.000 A 
ATOM     12  N   UNL     1       5.294   4.811  16.294  0.00  0.00    +0.000 N 
ATOM     13  N   UNL     1       4.723   3.593  16.418  0.00  0.00    +0.000 NA
ATOM     14  C   UNL     1       4.231   3.605  17.661  0.00  0.00    +0.000 A 
ATOM     15  C   UNL     1       3.099   2.803  18.134  0.00  0.00    +0.000 C 
ATOM     16  O   UNL     1       2.845   1.652  17.798  0.00  0.00    +0.000 OA
ATOM     17  N   UNL     1       2.274   3.497  19.020  0.00  0.00    +0.000 N 
ATOM     18  H   UNL     1       1.423   3.006  19.266  0.00  0.00    +0.000 HD
ENDROOT
BRANCH   1  27
ATOM     19  C   UNL     1      -3.408   9.689  17.348  0.00  0.00    +0.000 C 
ATOM     20  C   UNL     1      -2.309  10.656  17.593  0.00  0.00    +0.000 A 
ATOM     21  N   UNL     1      -2.289  11.830  16.954  0.00  0.00    +0.000 NA
ATOM     22  N   UNL     1      -1.149  12.400  17.368  0.00  0.00    +0.000 N 
ATOM     23  C   UNL     1      -0.413  11.634  18.224  0.00  0.00    +0.000 A 
ATOM     24  C   UNL     1       0.852  11.832  18.804  0.00  0.00    +0.000 A 
ATOM     25  C   UNL     1       1.674  13.082  18.683  0.00  0.00    +0.000 C 
ATOM     26  C   UNL     1       1.334  10.783  19.593  0.00  0.00    +0.000 A 
ATOM     27  C   UNL     1       0.539   9.685  19.947  0.00  0.00    +0.000 A 
ATOM     28  C   UNL     1      -0.719   9.513  19.341  0.00  0.00    +0.000 A 
ATOM     29  C   UNL     1      -1.178  10.492  18.439  0.00  0.00    +0.000 A 
ATOM     30  H   UNL     1      -0.906  13.312  16.992  0.00  0.00    +0.000 HD
ENDBRANCH   1  27
BRANCH  12  31
ATOM     31  C   UNL     1       5.538   5.344  14.954  0.00  0.00    +0.000 C 
ATOM     32  C   UNL     1       5.271   6.841  14.908  0.00  0.00    +0.000 C 
ATOM     33  C   UNL     1       6.957   5.016  14.462  0.00  0.00    +0.000 C 
ENDBRANCH  12  31
TORSDOF 2
ENDMDL
MODEL 2
REMARK VINA RESULT:      -7.9      2.071      7.928
REMARK  Name = 
REMARK  6 active torsions:
REMARK  status: ('A' for Active; 'I' for Inactive)
REMARK    1  A    between atoms: C_1  and  C_2
REMARK    2  A    between atoms: C_6  and  C_7
REMARK    3  A    between atoms: C_9  and  C_10
REMARK    4  A    between atoms: N_21  and  C_22
REMARK    5  A    between atoms: C_22  and  C_23
REMARK    6  A    between atoms: C_22  and  C_24
REMARK                            x       y       z     vdW  Elec       q    Type
REMARK                         _______ _______ _______ _____ _____    ______ ____
ROOT
ATOM      1  C   UNL     1       3.224   4.558  17.938  0.00  0.00    +0.000 C 
ATOM      2  O   UNL     1       2.784   3.416  17.816  0.00  0.00    +0.000 OA
ATOM      3  N   UNL     1       2.595   5.522  18.742  0.00  0.00    +0.000 N 
ATOM      4  C   UNL     1       1.463   5.081  19.562  0.00  0.00    +0.000 C 
ATOM      5  C   UNL     1       1.398   5.833  20.891  0.00  0.00    +0.000 C 
ATOM      6  C   UNL     1       1.464   7.362  20.718  0.00  0.00    +0.000 C 
ATOM      7  C   UNL     1       2.766   7.662  19.916  0.00  0.00    +0.000 C 
ATOM      8  C   UNL     1       2.693   6.973  18.549  0.00  0.00    +0.000 C 
ATOM      9  C   UNL     1       0.225   7.946  19.943  0.00  0.00    +0.000 C 
ATOM     10  C   UNL     1       0.426   9.425  19.932  0.00  0.00    +0.000 A 
ATOM     11  C   UNL     1       0.713  10.340  18.943  0.00  0.00    +0.000 A 
ATOM     12  N   UNL     1       1.174  11.455  19.600  0.00  0.00    +0.000 N 
ATOM     13  N   UNL     1       1.101  11.354  20.945  0.00  0.00    +0.000 NA
ATOM     14  C   UNL     1       0.792  10.069  21.145  0.00  0.00    +0.000 A 
ATOM     15  C   UNL     1       1.098   9.299  22.354  0.00  0.00    +0.000 C 
ATOM     16  O   UNL     1       1.064   9.724  23.503  0.00  0.00    +0.000 OA
ATOM     17  N   UNL     1       1.480   7.985  22.079  0.00  0.00    +0.000 N 
ATOM     18  H   UNL     1       1.811   7.472  22.887  0.00  0.00    +0.000 HD
ENDROOT
BRANCH   1  27
ATOM     19  C   UNL     1       5.952   3.563  12.935  0.00  0.00    +0.000 C 
ATOM     20  C   UNL     1       6.460   4.486  13.981  0.00  0.00    +0.000 A 
ATOM     21  N   UNL     1       7.623   5.124  13.810  0.00  0.00    +0.000 NA
ATOM     22  N   UNL     1       7.786   5.804  14.953  0.00  0.00    +0.000 N 
ATOM     23  C   UNL     1       6.795   5.610  15.871  0.00  0.00    +0.000 A 
ATOM     24  C   UNL     1       6.643   6.065  17.192  0.00  0.00    +0.000 A 
ATOM     25  C   UNL     1       7.557   7.033  17.886  0.00  0.00    +0.000 C 
ATOM     26  C   UNL     1       5.511   5.603  17.871  0.00  0.00    +0.000 A 
ATOM     27  C   UNL     1       4.490   4.891  17.229  0.00  0.00    +0.000 A 
ATOM     28  C   UNL     1       4.680   4.442  15.908  0.00  0.00    +0.000 A 
ATOM     29  C   UNL     1       5.871   4.784  15.240  0.00  0.00    +0.000 A 
ATOM     30  H   UNL     1       8.629   6.361  15.063  0.00  0.00    +0.000 HD
ENDBRANCH   1  27
BRANCH  12  31
ATOM     31  C   UNL     1       1.919  12.570  19.015  0.00  0.00    +0.000 C 
ATOM     32  C   UNL     1       2.724  12.111  17.809  0.00  0.00    +0.000 C 
ATOM     33  C   UNL     1       0.993  13.743  18.652  0.00  0.00    +0.000 C 
ENDBRANCH  12  31
TORSDOF 2
ENDMDL
MODEL 3
REMARK VINA RESULT:      -7.9      4.429      9.046
REMARK  Name = 
REMARK  6 active torsions:
REMARK  status: ('A' for Active; 'I' for Inactive)
REMARK    1  A    between atoms: C_1  and  C_2
REMARK    2  A    between atoms: C_6  and  C_7
REMARK    3  A    between atoms: C_9  and  C_10
REMARK    4  A    between atoms: N_21  and  C_22
REMARK    5  A    between atoms: C_22  and  C_23
REMARK    6  A    between atoms: C_22  and  C_24
REMARK                            x       y       z     vdW  Elec       q    Type
REMARK                         _______ _______ _______ _____ _____    ______ ____
ROOT
ATOM      1  C   UNL     1      -0.136  12.210  19.014  0.00  0.00    +0.000 C 
ATOM      2  O   UNL     1      -1.269  12.285  18.542  0.00  0.00    +0.000 OA
ATOM      3  N   UNL     1       0.758  13.292  18.991  0.00  0.00    +0.000 N 
ATOM      4  C   UNL     1       0.246  14.580  18.514  0.00  0.00    +0.000 C 
ATOM      5  C   UNL     1       0.894  15.754  19.247  0.00  0.00    +0.000 C 
ATOM      6  C   UNL     1       2.433  15.679  19.258  0.00  0.00    +0.000 C 
ATOM      7  C   UNL     1       2.804  14.299  19.879  0.00  0.00    +0.000 C 
ATOM      8  C   UNL     1       2.221  13.177  19.014  0.00  0.00    +0.000 C 
ATOM      9  C   UNL     1       3.063  15.794  17.820  0.00  0.00    +0.000 C 
ATOM     10  C   UNL     1       4.540  15.769  18.033  0.00  0.00    +0.000 A 
ATOM     11  C   UNL     1       5.530  14.859  17.737  0.00  0.00    +0.000 A 
ATOM     12  N   UNL     1       6.596  15.208  18.530  0.00  0.00    +0.000 N 
ATOM     13  N   UNL     1       6.392  16.343  19.234  0.00  0.00    +0.000 NA
ATOM     14  C   UNL     1       5.092  16.596  19.048  0.00  0.00    +0.000 A 
ATOM     15  C   UNL     1       4.235  17.357  19.962  0.00  0.00    +0.000 C 
ATOM     16  O   UNL     1       4.571  18.345  20.604  0.00  0.00    +0.000 OA
ATOM     17  N   UNL     1       2.950  16.825  20.070  0.00  0.00    +0.000 N 
ATOM     18  H   UNL     1       2.380  17.262  20.785  0.00  0.00    +0.000 HD
ENDROOT
BRANCH   1  27
ATOM     19  C   UNL     1       2.684   7.293  17.855  0.00  0.00    +0.000 C 
ATOM     20  C   UNL     1       2.159   7.645  19.198  0.00  0.00    +0.000 A 
ATOM     21  N   UNL     1       2.301   6.796  20.221  0.00  0.00    +0.000 NA
ATOM     22  N   UNL     1       1.670   7.406  21.234  0.00  0.00    +0.000 N 
ATOM     23  C   UNL     1       1.097   8.599  20.905  0.00  0.00    +0.000 A 
ATOM     24  C   UNL     1       0.293   9.485  21.643  0.00  0.00    +0.000 A 
ATOM     25  C   UNL     1      -0.034   9.348  23.101  0.00  0.00    +0.000 C 
ATOM     26  C   UNL     1      -0.183  10.602  20.947  0.00  0.00    +0.000 A 
ATOM     27  C   UNL     1       0.262  10.928  19.660  0.00  0.00    +0.000 A 
ATOM     28  C   UNL     1       1.058  10.014  18.946  0.00  0.00    +0.000 A 
ATOM     29  C   UNL     1       1.447   8.817  19.576  0.00  0.00    +0.000 A 
ATOM     30  H   UNL     1       1.630   6.928  22.130  0.00  0.00    +0.000 HD
ENDBRANCH   1  27
BRANCH  12  31
ATOM     31  C   UNL     1       7.759  14.379  18.847  0.00  0.00    +0.000 C 
ATOM     32  C   UNL     1       8.052  13.401  17.720  0.00  0.00    +0.000 C 
ATOM     33  C   UNL     1       8.993  15.234  19.177  0.00  0.00    +0.000 C 
ENDBRANCH  12  31
TORSDOF 2
ENDMDL
MODEL 4
REMARK VINA RESULT:      -7.8      0.871      2.363
REMARK  Name = 
REMARK  6 active torsions:
REMARK  status: ('A' for Active; 'I' for Inactive)
REMARK    1  A    between atoms: C_1  and  C_2
REMARK    2  A    between atoms: C_6  and  C_7
REMARK    3  A    between atoms: C_9  and  C_10
REMARK    4  A    between atoms: N_21  and  C_22
REMARK    5  A    between atoms: C_22  and  C_23
REMARK    6  A    between atoms: C_22  and  C_24
REMARK                            x       y       z     vdW  Elec       q    Type
REMARK                         _______ _______ _______ _____ _____    ______ ____
ROOT
ATOM      1  C   UNL     1       0.845   8.460  21.155  0.00  0.00    +0.000 C 
ATOM      2  O   UNL     1       0.481   8.520  22.328  0.00  0.00    +0.000 OA
ATOM      3  N   UNL     1       1.437   7.308  20.612  0.00  0.00    +0.000 N 
ATOM      4  C   UNL     1       1.475   6.109  21.454  0.00  0.00    +0.000 C 
ATOM      5  C   UNL     1       1.329   4.831  20.628  0.00  0.00    +0.000 C 
ATOM      6  C   UNL     1       2.308   4.770  19.440  0.00  0.00    +0.000 C 
ATOM      7  C   UNL     1       2.069   6.062  18.603  0.00  0.00    +0.000 C 
ATOM      8  C   UNL     1       2.358   7.292  19.469  0.00  0.00    +0.000 C 
ATOM      9  C   UNL     1       3.815   4.708  19.889  0.00  0.00    +0.000 C 
ATOM     10  C   UNL     1       4.600   4.587  18.625  0.00  0.00    +0.000 A 
ATOM     11  C   UNL     1       5.461   5.426  17.954  0.00  0.00    +0.000 A 
ATOM     12  N   UNL     1       5.537   4.927  16.677  0.00  0.00    +0.000 N 
ATOM     13  N   UNL     1       4.867   3.766  16.515  0.00  0.00    +0.000 NA
ATOM     14  C   UNL     1       4.176   3.642  17.652  0.00  0.00    +0.000 A 
ATOM     15  C   UNL     1       2.926   2.893  17.810  0.00  0.00    +0.000 C 
ATOM     16  O   UNL     1       2.649   1.835  17.258  0.00  0.00    +0.000 OA
ATOM     17  N   UNL     1       2.018   3.527  18.659  0.00  0.00    +0.000 N 
ATOM     18  H   UNL     1       1.104   3.090  18.689  0.00  0.00    +0.000 HD
ENDROOT
BRANCH   1  27
ATOM     19  C   UNL     1       2.850  13.809  20.238  0.00  0.00    +0.000 C 
ATOM     20  C   UNL     1       1.797  13.170  19.409  0.00  0.00    +0.000 A 
ATOM     21  N   UNL     1       1.234  13.842  18.399  0.00  0.00    +0.000 NA
ATOM     22  N   UNL     1       0.309  12.995  17.928  0.00  0.00    +0.000 N 
ATOM     23  C   UNL     1       0.225  11.815  18.608  0.00  0.00    +0.000 A 
ATOM     24  C   UNL     1      -0.653  10.724  18.481  0.00  0.00    +0.000 A 
ATOM     25  C   UNL     1      -1.693  10.568  17.410  0.00  0.00    +0.000 C 
ATOM     26  C   UNL     1      -0.484   9.694  19.412  0.00  0.00    +0.000 A 
ATOM     27  C   UNL     1       0.604   9.650  20.293  0.00  0.00    +0.000 A 
ATOM     28  C   UNL     1       1.458  10.764  20.400  0.00  0.00    +0.000 A 
ATOM     29  C   UNL     1       1.234  11.873  19.563  0.00  0.00    +0.000 A 
ATOM     30  H   UNL     1      -0.271  13.304  17.152  0.00  0.00    +0.000 HD
ENDBRANCH   1  27
BRANCH  12  31
ATOM     31  C   UNL     1       6.039   5.625  15.494  0.00  0.00    +0.000 C 
ATOM     32  C   UNL     1       6.186   4.668  14.320  0.00  0.00    +0.000 C 
ATOM     33  C   UNL     1       5.154   6.826  15.124  0.00  0.00    +0.000 C 
ENDBRANCH  12  31
TORSDOF 2
ENDMDL
MODEL 5
REMARK VINA RESULT:      -7.5      5.483     10.906
REMARK  Name = 
REMARK  6 active torsions:
REMARK  status: ('A' for Active; 'I' for Inactive)
REMARK    1  A    between atoms: C_1  and  C_2
REMARK    2  A    between atoms: C_6  and  C_7
REMARK    3  A    between atoms: C_9  and  C_10
REMARK    4  A    between atoms: N_21  and  C_22
REMARK    5  A    between atoms: C_22  and  C_23
REMARK    6  A    between atoms: C_22  and  C_24
REMARK                            x       y       z     vdW  Elec       q    Type
REMARK                         _______ _______ _______ _____ _____    ______ ____
ROOT
ATOM      1  C   UNL     1      -0.929  11.661  22.162  0.00  0.00    +0.000 C 
ATOM      2  O   UNL     1      -0.463  11.026  23.106  0.00  0.00    +0.000 OA
ATOM      3  N   UNL     1      -2.190  12.274  22.220  0.00  0.00    +0.000 N 
ATOM      4  C   UNL     1      -2.887  12.263  23.510  0.00  0.00    +0.000 C 
ATOM      5  C   UNL     1      -3.714  13.530  23.719  0.00  0.00    +0.000 C 
ATOM      6  C   UNL     1      -4.642  13.843  22.531  0.00  0.00    +0.000 C 
ATOM      7  C   UNL     1      -3.735  13.915  21.266  0.00  0.00    +0.000 C 
ATOM      8  C   UNL     1      -3.040  12.565  21.060  0.00  0.00    +0.000 C 
ATOM      9  C   UNL     1      -5.755  12.751  22.316  0.00  0.00    +0.000 C 
ATOM     10  C   UNL     1      -6.587  13.250  21.182  0.00  0.00    +0.000 A 
ATOM     11  C   UNL     1      -6.776  12.833  19.883  0.00  0.00    +0.000 A 
ATOM     12  N   UNL     1      -7.323  13.911  19.230  0.00  0.00    +0.000 N 
ATOM     13  N   UNL     1      -7.595  14.951  20.046  0.00  0.00    +0.000 NA
ATOM     14  C   UNL     1      -7.009  14.607  21.197  0.00  0.00    +0.000 A 
ATOM     15  C   UNL     1      -6.536  15.541  22.224  0.00  0.00    +0.000 C 
ATOM     16  O   UNL     1      -7.087  16.585  22.551  0.00  0.00    +0.000 OA
ATOM     17  N   UNL     1      -5.333  15.142  22.808  0.00  0.00    +0.000 N 
ATOM     18  H   UNL     1      -4.928  15.830  23.431  0.00  0.00    +0.000 HD
ENDROOT
BRANCH   1  27
ATOM     19  C   UNL     1       2.252  15.579  19.335  0.00  0.00    +0.000 C 
ATOM     20  C   UNL     1       2.155  14.154  18.934  0.00  0.00    +0.000 A 
ATOM     21  N   UNL     1       2.803  13.711  17.851  0.00  0.00    +0.000 NA
ATOM     22  N   UNL     1       2.443  12.423  17.767  0.00  0.00    +0.000 N 
ATOM     23  C   UNL     1       1.567  12.017  18.730  0.00  0.00    +0.000 A 
ATOM     24  C   UNL     1       0.901  10.796  18.933  0.00  0.00    +0.000 A 
ATOM     25  C   UNL     1       1.123   9.545  18.134  0.00  0.00    +0.000 C 
ATOM     26  C   UNL     1       0.005  10.760  20.006  0.00  0.00    +0.000 A 
ATOM     27  C   UNL     1      -0.088  11.800  20.940  0.00  0.00    +0.000 A 
ATOM     28  C   UNL     1       0.584  13.013  20.700  0.00  0.00    +0.000 A 
ATOM     29  C   UNL     1       1.395  13.124  19.555  0.00  0.00    +0.000 A 
ATOM     30  H   UNL     1       2.807  11.875  16.992  0.00  0.00    +0.000 HD
ENDBRANCH   1  27
BRANCH  12  31
ATOM     31  C   UNL     1      -7.401  14.108  17.783  0.00  0.00    +0.000 C 
ATOM     32  C   UNL     1      -6.880  15.483  17.393  0.00  0.00    +0.000 C 
ATOM     33  C   UNL     1      -6.665  12.997  17.017  0.00  0.00    +0.000 C 
ENDBRANCH  12  31
TORSDOF 2
ENDMDL
MODEL 6
REMARK VINA RESULT:      -7.3      5.921      9.011
REMARK  Name = 
REMARK  6 active torsions:
REMARK  status: ('A' for Active; 'I' for Inactive)
REMARK    1  A    between atoms: C_1  and  C_2
REMARK    2  A    between atoms: C_6  and  C_7
REMARK    3  A    between atoms: C_9  and  C_10
REMARK    4  A    between atoms: N_21  and  C_22
REMARK    5  A    between atoms: C_22  and  C_23
REMARK    6  A    between atoms: C_22  and  C_24
REMARK                            x       y       z     vdW  Elec       q    Type
REMARK                         _______ _______ _______ _____ _____    ______ ____
ROOT
ATOM      1  C   UNL     1      -1.200  10.751  19.270  0.00  0.00    +0.000 C 
ATOM      2  O   UNL     1      -1.134   9.721  19.938  0.00  0.00    +0.000 OA
ATOM      3  N   UNL     1      -0.143  11.674  19.210  0.00  0.00    +0.000 N 
ATOM      4  C   UNL     1       1.118  11.299  19.857  0.00  0.00    +0.000 C 
ATOM      5  C   UNL     1       2.327  11.851  19.105  0.00  0.00    +0.000 C 
ATOM      6  C   UNL     1       2.218  13.361  18.818  0.00  0.00    +0.000 C 
ATOM      7  C   UNL     1       0.879  13.569  18.048  0.00  0.00    +0.000 C 
ATOM      8  C   UNL     1      -0.290  13.105  18.922  0.00  0.00    +0.000 C 
ATOM      9  C   UNL     1       2.211  14.235  20.127  0.00  0.00    +0.000 C 
ATOM     10  C   UNL     1       2.167  15.651  19.657  0.00  0.00    +0.000 A 
ATOM     11  C   UNL     1       1.215  16.644  19.710  0.00  0.00    +0.000 A 
ATOM     12  N   UNL     1       1.598  17.567  18.768  0.00  0.00    +0.000 N 
ATOM     13  N   UNL     1       2.786  17.285  18.192  0.00  0.00    +0.000 NA
ATOM     14  C   UNL     1       3.054  16.048  18.620  0.00  0.00    +0.000 A 
ATOM     15  C   UNL     1       3.901  15.073  17.926  0.00  0.00    +0.000 C 
ATOM     16  O   UNL     1       4.926  15.327  17.304  0.00  0.00    +0.000 OA
ATOM     17  N   UNL     1       3.408  13.770  18.009  0.00  0.00    +0.000 N 
ATOM     18  H   UNL     1       3.910  13.101  17.438  0.00  0.00    +0.000 HD
ENDROOT
BRANCH   1  27
ATOM     19  C   UNL     1      -6.461  13.105  19.767  0.00  0.00    +0.000 C 
ATOM     20  C   UNL     1      -5.921  12.556  18.498  0.00  0.00    +0.000 A 
ATOM     21  N   UNL     1      -6.667  12.562  17.389  0.00  0.00    +0.000 NA
ATOM     22  N   UNL     1      -5.896  11.948  16.481  0.00  0.00    +0.000 N 
ATOM     23  C   UNL     1      -4.694  11.517  16.960  0.00  0.00    +0.000 A 
ATOM     24  C   UNL     1      -3.661  10.774  16.362  0.00  0.00    +0.000 A 
ATOM     25  C   UNL     1      -3.612  10.365  14.918  0.00  0.00    +0.000 C 
ATOM     26  C   UNL     1      -2.584  10.448  17.192  0.00  0.00    +0.000 A 
ATOM     27  C   UNL     1      -2.439  10.984  18.478  0.00  0.00    +0.000 A 
ATOM     28  C   UNL     1      -3.496  11.716  19.049  0.00  0.00    +0.000 A 
ATOM     29  C   UNL     1      -4.652  11.951  18.281  0.00  0.00    +0.000 A 
ATOM     30  H   UNL     1      -6.271  11.818  15.545  0.00  0.00    +0.000 HD
ENDBRANCH   1  27
BRANCH  12  31
ATOM     31  C   UNL     1       0.768  18.627  18.195  0.00  0.00    +0.000 C 
ATOM     32  C   UNL     1       0.724  18.522  16.678  0.00  0.00    +0.000 C 
ATOM     33  C   UNL     1      -0.649  18.626  18.793  0.00  0.00    +0.000 C 
ENDBRANCH  12  31
TORSDOF 2
ENDMDL
MODEL 7
REMARK VINA RESULT:      -7.3      5.183     10.817
REMARK  Name = 
REMARK  6 active torsions:
REMARK  status: ('A' for Active; 'I' for Inactive)
REMARK    1  A    between atoms: C_1  and  C_2
REMARK    2  A    between atoms: C_6  and  C_7
REMARK    3  A    between atoms: C_9  and  C_10
REMARK    4  A    between atoms: N_21  and  C_22
REMARK    5  A    between atoms: C_22  and  C_23
REMARK    6  A    between atoms: C_22  and  C_24
REMARK                            x       y       z     vdW  Elec       q    Type
REMARK                         _______ _______ _______ _____ _____    ______ ____
ROOT
ATOM      1  C   UNL     1      -1.186  11.464  22.382  0.00  0.00    +0.000 C 
ATOM      2  O   UNL     1      -0.783  10.852  23.370  0.00  0.00    +0.000 OA
ATOM      3  N   UNL     1      -2.408  12.154  22.374  0.00  0.00    +0.000 N 
ATOM      4  C   UNL     1      -3.135  12.252  23.643  0.00  0.00    +0.000 C 
ATOM      5  C   UNL     1      -3.888  13.576  23.765  0.00  0.00    +0.000 C 
ATOM      6  C   UNL     1      -4.766  13.882  22.536  0.00  0.00    +0.000 C 
ATOM      7  C   UNL     1      -3.824  13.834  21.296  0.00  0.00    +0.000 C 
ATOM      8  C   UNL     1      -3.209  12.435  21.177  0.00  0.00    +0.000 C 
ATOM      9  C   UNL     1      -5.937  12.849  22.347  0.00  0.00    +0.000 C 
ATOM     10  C   UNL     1      -6.709  13.338  21.166  0.00  0.00    +0.000 A 
ATOM     11  C   UNL     1      -6.891  12.866  19.885  0.00  0.00    +0.000 A 
ATOM     12  N   UNL     1      -7.355  13.939  19.164  0.00  0.00    +0.000 N 
ATOM     13  N   UNL     1      -7.582  15.035  19.918  0.00  0.00    +0.000 NA
ATOM     14  C   UNL     1      -7.047  14.716  21.101  0.00  0.00    +0.000 A 
ATOM     15  C   UNL     1      -6.543  15.673  22.092  0.00  0.00    +0.000 C 
ATOM     16  O   UNL     1      -7.036  16.764  22.351  0.00  0.00    +0.000 OA
ATOM     17  N   UNL     1      -5.382  15.233  22.728  0.00  0.00    +0.000 N 
ATOM     18  H   UNL     1      -4.950  15.927  23.328  0.00  0.00    +0.000 HD
ENDROOT
BRANCH   1  27
ATOM     19  C   UNL     1       1.819   7.903  18.951  0.00  0.00    +0.000 C 
ATOM     20  C   UNL     1       1.668   9.358  18.699  0.00  0.00    +0.000 A 
ATOM     21  N   UNL     1       2.264   9.925  17.645  0.00  0.00    +0.000 NA
ATOM     22  N   UNL     1       1.965  11.225  17.768  0.00  0.00    +0.000 N 
ATOM     23  C   UNL     1       1.227  11.532  18.873  0.00  0.00    +0.000 A 
ATOM     24  C   UNL     1       0.790  12.763  19.393  0.00  0.00    +0.000 A 
ATOM     25  C   UNL     1       0.961  14.096  18.724  0.00  0.00    +0.000 C 
ATOM     26  C   UNL     1       0.098  12.701  20.607  0.00  0.00    +0.000 A 
ATOM     27  C   UNL     1      -0.308  11.489  21.178  0.00  0.00    +0.000 A 
ATOM     28  C   UNL     1       0.155  10.275  20.637  0.00  0.00    +0.000 A 
ATOM     29  C   UNL     1       0.964  10.311  19.486  0.00  0.00    +0.000 A 
ATOM     30  H   UNL     1       2.335  11.869  17.074  0.00  0.00    +0.000 HD
ENDBRANCH   1  27
BRANCH  12  31
ATOM     31  C   UNL     1      -7.385  14.065  17.706  0.00  0.00    +0.000 C 
ATOM     32  C   UNL     1      -6.918  15.446  17.271  0.00  0.00    +0.000 C 
ATOM     33  C   UNL     1      -6.563  12.960  17.023  0.00  0.00    +0.000 C 
ENDBRANCH  12  31
TORSDOF 2
ENDMDL
MODEL 8
REMARK VINA RESULT:      -7.2      5.635      9.214
REMARK  Name = 
REMARK  6 active torsions:
REMARK  status: ('A' for Active; 'I' for Inactive)
REMARK    1  A    between atoms: C_1  and  C_2
REMARK    2  A    between atoms: C_6  and  C_7
REMARK    3  A    between atoms: C_9  and  C_10
REMARK    4  A    between atoms: N_21  and  C_22
REMARK    5  A    between atoms: C_22  and  C_23
REMARK    6  A    between atoms: C_22  and  C_24
REMARK                            x       y       z     vdW  Elec       q    Type
REMARK                         _______ _______ _______ _____ _____    ______ ____
ROOT
ATOM      1  C   UNL     1      -5.605  15.485  21.127  0.00  0.00    +0.000 C 
ATOM      2  O   UNL     1      -6.193  16.271  21.868  0.00  0.00    +0.000 OA
ATOM      3  N   UNL     1      -4.503  14.731  21.558  0.00  0.00    +0.000 N 
ATOM      4  C   UNL     1      -4.156  14.796  22.981  0.00  0.00    +0.000 C 
ATOM      5  C   UNL     1      -3.602  13.466  23.491  0.00  0.00    +0.000 C 
ATOM      6  C   UNL     1      -2.463  12.914  22.613  0.00  0.00    +0.000 C 
ATOM      7  C   UNL     1      -3.028  12.818  21.164  0.00  0.00    +0.000 C 
ATOM      8  C   UNL     1      -3.443  14.213  20.685  0.00  0.00    +0.000 C 
ATOM      9  C   UNL     1      -1.185  13.832  22.618  0.00  0.00    +0.000 C 
ATOM     10  C   UNL     1      -0.179  13.114  21.780  0.00  0.00    +0.000 A 
ATOM     11  C   UNL     1       0.387  13.361  20.550  0.00  0.00    +0.000 A 
ATOM     12  N   UNL     1       0.915  12.161  20.143  0.00  0.00    +0.000 N 
ATOM     13  N   UNL     1       0.819  11.189  21.075  0.00  0.00    +0.000 NA
ATOM     14  C   UNL     1       0.022  11.725  22.004  0.00  0.00    +0.000 A 
ATOM     15  C   UNL     1      -0.824  10.973  22.936  0.00  0.00    +0.000 C 
ATOM     16  O   UNL     1      -0.531   9.910  23.472  0.00  0.00    +0.000 OA
ATOM     17  N   UNL     1      -2.062  11.578  23.155  0.00  0.00    +0.000 N 
ATOM     18  H   UNL     1      -2.706  11.017  23.699  0.00  0.00    +0.000 HD
ENDROOT
BRANCH   1  27
ATOM     19  C   UNL     1      -7.022  18.607  16.467  0.00  0.00    +0.000 C 
ATOM     20  C   UNL     1      -7.030  17.124  16.498  0.00  0.00    +0.000 A 
ATOM     21  N   UNL     1      -7.405  16.429  15.419  0.00  0.00    +0.000 NA
ATOM     22  N   UNL     1      -7.348  15.153  15.824  0.00  0.00    +0.000 N 
ATOM     23  C   UNL     1      -6.984  14.990  17.128  0.00  0.00    +0.000 A 
ATOM     24  C   UNL     1      -6.890  13.844  17.937  0.00  0.00    +0.000 A 
ATOM     25  C   UNL     1      -7.077  12.432  17.463  0.00  0.00    +0.000 C 
ATOM     26  C   UNL     1      -6.544  14.067  19.273  0.00  0.00    +0.000 A 
ATOM     27  C   UNL     1      -6.126  15.319  19.741  0.00  0.00    +0.000 A 
ATOM     28  C   UNL     1      -6.241  16.447  18.908  0.00  0.00    +0.000 A 
ATOM     29  C   UNL     1      -6.712  16.273  17.592  0.00  0.00    +0.000 A 
ATOM     30  H   UNL     1      -7.613  14.429  15.162  0.00  0.00    +0.000 HD
ENDBRANCH   1  27
BRANCH  12  31
ATOM     31  C   UNL     1       1.322  11.800  18.785  0.00  0.00    +0.000 C 
ATOM     32  C   UNL     1       2.541  12.601  18.352  0.00  0.00    +0.000 C 
ATOM     33  C   UNL     1       1.573  10.289  18.649  0.00  0.00    +0.000 C 
ENDBRANCH  12  31
TORSDOF 2
ENDMDL
MODEL 9
REMARK VINA RESULT:      -7.1      5.910      9.667
REMARK  Name = 
REMARK  6 active torsions:
REMARK  status: ('A' for Active; 'I' for Inactive)
REMARK    1  A    between atoms: C_1  and  C_2
REMARK    2  A    between atoms: C_6  and  C_7
REMARK    3  A    between atoms: C_9  and  C_10
REMARK    4  A    between atoms: N_21  and  C_22
REMARK    5  A    between atoms: C_22  and  C_23
REMARK    6  A    between atoms: C_22  and  C_24
REMARK                            x       y       z     vdW  Elec       q    Type
REMARK                         _______ _______ _______ _____ _____    ______ ____
ROOT
ATOM      1  C   UNL     1      -0.457  10.679  18.461  0.00  0.00    +0.000 C 
ATOM      2  O   UNL     1      -0.012   9.547  18.645  0.00  0.00    +0.000 OA
ATOM      3  N   UNL     1       0.314  11.832  18.676  0.00  0.00    +0.000 N 
ATOM      4  C   UNL     1       1.733  11.645  18.990  0.00  0.00    +0.000 C 
ATOM      5  C   UNL     1       2.595  12.766  18.411  0.00  0.00    +0.000 C 
ATOM      6  C   UNL     1       2.073  14.170  18.772  0.00  0.00    +0.000 C 
ATOM      7  C   UNL     1       0.594  14.231  18.285  0.00  0.00    +0.000 C 
ATOM      8  C   UNL     1      -0.225  13.156  19.007  0.00  0.00    +0.000 C 
ATOM      9  C   UNL     1       2.130  14.468  20.316  0.00  0.00    +0.000 C 
ATOM     10  C   UNL     1       1.656  15.876  20.465  0.00  0.00    +0.000 A 
ATOM     11  C   UNL     1       0.528  16.448  21.008  0.00  0.00    +0.000 A 
ATOM     12  N   UNL     1       0.477  17.718  20.487  0.00  0.00    +0.000 N 
ATOM     13  N   UNL     1       1.552  18.033  19.733  0.00  0.00    +0.000 NA
ATOM     14  C   UNL     1       2.189  16.865  19.596  0.00  0.00    +0.000 A 
ATOM     15  C   UNL     1       3.080  16.508  18.488  0.00  0.00    +0.000 C 
ATOM     16  O   UNL     1       3.864  17.264  17.926  0.00  0.00    +0.000 OA
ATOM     17  N   UNL     1       2.938  15.180  18.085  0.00  0.00    +0.000 N 
ATOM     18  H   UNL     1       3.455  14.945  17.246  0.00  0.00    +0.000 HD
ENDROOT
BRANCH   1  27
ATOM     19  C   UNL     1      -5.739  12.257  20.215  0.00  0.00    +0.000 C 
ATOM     20  C   UNL     1      -5.414  11.880  18.816  0.00  0.00    +0.000 A 
ATOM     21  N   UNL     1      -6.370  11.866  17.882  0.00  0.00    +0.000 NA
ATOM     22  N   UNL     1      -5.739  11.430  16.784  0.00  0.00    +0.000 N 
ATOM     23  C   UNL     1      -4.421  11.131  16.971  0.00  0.00    +0.000 A 
ATOM     24  C   UNL     1      -3.456  10.580  16.111  0.00  0.00    +0.000 A 
ATOM     25  C   UNL     1      -3.660  10.289  14.653  0.00  0.00    +0.000 C 
ATOM     26  C   UNL     1      -2.198  10.344  16.676  0.00  0.00    +0.000 A 
ATOM     27  C   UNL     1      -1.853  10.799  17.955  0.00  0.00    +0.000 A 
ATOM     28  C   UNL     1      -2.847  11.338  18.793  0.00  0.00    +0.000 A 
ATOM     29  C   UNL     1      -4.157  11.469  18.295  0.00  0.00    +0.000 A 
ATOM     30  H   UNL     1      -6.282  11.319  15.932  0.00  0.00    +0.000 HD
ENDBRANCH   1  27
BRANCH  12  31
ATOM     31  C   UNL     1      -0.681  18.612  20.475  0.00  0.00    +0.000 C 
ATOM     32  C   UNL     1      -1.583  18.317  19.286  0.00  0.00    +0.000 C 
ATOM     33  C   UNL     1      -1.464  18.546  21.797  0.00  0.00    +0.000 C 
ENDBRANCH  12  31
TORSDOF 2
ENDMDL
