MODEL 1
REMARK VINA RESULT:      -8.1      0.000      0.000
REMARK  Name = 
REMARK  8 active torsions:
REMARK  status: ('A' for Active; 'I' for Inactive)
REMARK    1  A    between atoms: C_1  and  C_2
REMARK    2  A    between atoms: C_5  and  C_6
REMARK    3  A    between atoms: C_6  and  C_8
REMARK    4  A    between atoms: C_12  and  O_13
REMARK    5  A    between atoms: O_13  and  C_14
REMARK    6  A    between atoms: C_17  and  O_18
REMARK    7  A    between atoms: C_19  and  O_20
REMARK    8  A    between atoms: C_21  and  O_22
REMARK                            x       y       z     vdW  Elec       q    Type
REMARK                         _______ _______ _______ _____ _____    ______ ____
ROOT
ATOM      1  C   UNL     1       1.206   9.562  18.922  0.00  0.00    +0.000 A 
ATOM      2  C   UNL     1       1.012   8.940  20.159  0.00  0.00    +0.000 A 
ATOM      3  C   UNL     1       1.654   7.734  20.434  0.00  0.00    +0.000 A 
ATOM      4  C   UNL     1       2.505   7.154  19.486  0.00  0.00    +0.000 A 
ATOM      5  C   UNL     1       2.745   7.796  18.270  0.00  0.00    +0.000 A 
ATOM      6  C   UNL     1       2.089   8.996  17.992  0.00  0.00    +0.000 A 
ENDROOT
BRANCH   1   7
ATOM      7  C   UNL     1       0.477  10.833  18.656  0.00  0.00    +0.000 C 
ATOM      8  O   UNL     1       1.102  11.889  18.648  0.00  0.00    +0.000 OA
BRANCH   7  13
ATOM      9  C   UNL     1      -5.192  11.135  17.562  0.00  0.00    +0.000 C 
ATOM     10  C   UNL     1      -3.731  11.022  17.886  0.00  0.00    +0.000 A 
ATOM     11  C   UNL     1      -3.138  11.864  18.832  0.00  0.00    +0.000 A 
ATOM     12  C   UNL     1      -1.767  11.776  19.092  0.00  0.00    +0.000 A 
ATOM     13  C   UNL     1      -0.984  10.849  18.401  0.00  0.00    +0.000 A 
ATOM     14  C   UNL     1      -1.586   9.965  17.496  0.00  0.00    +0.000 A 
ATOM     15  C   UNL     1      -2.950  10.066  17.231  0.00  0.00    +0.000 A 
ENDBRANCH   7  13
ENDBRANCH   1   7
BRANCH   5  16
ATOM     16  O   UNL     1       3.554   7.325  17.270  0.00  0.00    +0.000 OA
BRANCH  16  17
ATOM     17  C   UNL     1       4.621   6.445  17.658  0.00  0.00    +0.000 C 
ATOM     18  O   UNL     1       5.885   7.046  17.364  0.00  0.00    +0.000 OA
ATOM     19  C   UNL     1       6.992   6.222  17.700  0.00  0.00    +0.000 C 
ATOM     20  C   UNL     1       6.987   4.948  16.865  0.00  0.00    +0.000 C 
ATOM     21  C   UNL     1       5.676   4.189  17.117  0.00  0.00    +0.000 C 
ATOM     22  C   UNL     1       4.451   5.101  16.897  0.00  0.00    +0.000 C 
BRANCH  20  23
ATOM     23  O   UNL     1       8.137   4.161  17.174  0.00  0.00    +0.000 OA
ATOM     24  H   UNL     1       7.851   3.270  17.438  0.00  0.00    +0.000 HD
ENDBRANCH  20  23
BRANCH  21  25
ATOM     25  O   UNL     1       5.608   3.019  16.291  0.00  0.00    +0.000 OA
ATOM     26  H   UNL     1       4.764   2.569  16.464  0.00  0.00    +0.000 HD
ENDBRANCH  21  25
BRANCH  22  27
ATOM     27  O   UNL     1       3.252   4.419  17.310  0.00  0.00    +0.000 OA
ATOM     28  H   UNL     1       2.688   5.040  17.802  0.00  0.00    +0.000 HD
ENDBRANCH  22  27
ENDBRANCH  16  17
ENDBRANCH   5  16
TORSDOF 7
ENDMDL
MODEL 2
REMARK VINA RESULT:      -8.0      1.367      2.203
REMARK  Name = 
REMARK  8 active torsions:
REMARK  status: ('A' for Active; 'I' for Inactive)
REMARK    1  A    between atoms: C_1  and  C_2
REMARK    2  A    between atoms: C_5  and  C_6
REMARK    3  A    between atoms: C_6  and  C_8
REMARK    4  A    between atoms: C_12  and  O_13
REMARK    5  A    between atoms: O_13  and  C_14
REMARK    6  A    between atoms: C_17  and  O_18
REMARK    7  A    between atoms: C_19  and  O_20
REMARK    8  A    between atoms: C_21  and  O_22
REMARK                            x       y       z     vdW  Elec       q    Type
REMARK                         _______ _______ _______ _____ _____    ______ ____
ROOT
ATOM      1  C   UNL     1       1.828   8.206  18.928  0.00  0.00    +0.000 A 
ATOM      2  C   UNL     1       1.368   8.085  20.243  0.00  0.00    +0.000 A 
ATOM      3  C   UNL     1       1.612   6.913  20.955  0.00  0.00    +0.000 A 
ATOM      4  C   UNL     1       2.330   5.865  20.368  0.00  0.00    +0.000 A 
ATOM      5  C   UNL     1       2.839   6.000  19.074  0.00  0.00    +0.000 A 
ATOM      6  C   UNL     1       2.580   7.169  18.359  0.00  0.00    +0.000 A 
ENDROOT
BRANCH   1   7
ATOM      7  C   UNL     1       1.519   9.463  18.192  0.00  0.00    +0.000 C 
ATOM      8  O   UNL     1       2.377   9.956  17.466  0.00  0.00    +0.000 OA
BRANCH   7  13
ATOM      9  C   UNL     1      -3.721  11.833  18.780  0.00  0.00    +0.000 C 
ATOM     10  C   UNL     1      -2.351  11.253  18.587  0.00  0.00    +0.000 A 
ATOM     11  C   UNL     1      -2.139  10.195  17.695  0.00  0.00    +0.000 A 
ATOM     12  C   UNL     1      -0.864   9.636  17.558  0.00  0.00    +0.000 A 
ATOM     13  C   UNL     1       0.199  10.128  18.316  0.00  0.00    +0.000 A 
ATOM     14  C   UNL     1       0.001  11.224  19.166  0.00  0.00    +0.000 A 
ATOM     15  C   UNL     1      -1.273  11.770  19.310  0.00  0.00    +0.000 A 
ENDBRANCH   7  13
ENDBRANCH   1   7
BRANCH   5  16
ATOM     16  O   UNL     1       3.553   5.045  18.399  0.00  0.00    +0.000 OA
BRANCH  16  17
ATOM     17  C   UNL     1       4.694   5.496  17.652  0.00  0.00    +0.000 C 
ATOM     18  O   UNL     1       4.450   5.357  16.250  0.00  0.00    +0.000 OA
ATOM     19  C   UNL     1       5.546   5.762  15.443  0.00  0.00    +0.000 C 
ATOM     20  C   UNL     1       6.758   4.873  15.697  0.00  0.00    +0.000 C 
ATOM     21  C   UNL     1       7.141   4.960  17.181  0.00  0.00    +0.000 C 
ATOM     22  C   UNL     1       5.930   4.662  18.090  0.00  0.00    +0.000 C 
BRANCH  20  23
ATOM     23  O   UNL     1       7.829   5.259  14.836  0.00  0.00    +0.000 OA
ATOM     24  H   UNL     1       8.170   4.470  14.380  0.00  0.00    +0.000 HD
ENDBRANCH  20  23
BRANCH  21  25
ATOM     25  O   UNL     1       8.235   4.079  17.468  0.00  0.00    +0.000 OA
ATOM     26  H   UNL     1       7.877   3.194  17.649  0.00  0.00    +0.000 HD
ENDBRANCH  21  25
BRANCH  22  27
ATOM     27  O   UNL     1       6.272   4.923  19.463  0.00  0.00    +0.000 OA
ATOM     28  H   UNL     1       5.734   5.665  19.788  0.00  0.00    +0.000 HD
ENDBRANCH  22  27
ENDBRANCH  16  17
ENDBRANCH   5  16
TORSDOF 7
ENDMDL
MODEL 3
REMARK VINA RESULT:      -7.8      1.628      2.415
REMARK  Name = 
REMARK  8 active torsions:
REMARK  status: ('A' for Active; 'I' for Inactive)
REMARK    1  A    between atoms: C_1  and  C_2
REMARK    2  A    between atoms: C_5  and  C_6
REMARK    3  A    between atoms: C_6  and  C_8
REMARK    4  A    between atoms: C_12  and  O_13
REMARK    5  A    between atoms: O_13  and  C_14
REMARK    6  A    between atoms: C_17  and  O_18
REMARK    7  A    between atoms: C_19  and  O_20
REMARK    8  A    between atoms: C_21  and  O_22
REMARK                            x       y       z     vdW  Elec       q    Type
REMARK                         _______ _______ _______ _____ _____    ______ ____
ROOT
ATOM      1  C   UNL     1       1.883   7.967  19.039  0.00  0.00    +0.000 A 
ATOM      2  C   UNL     1       1.411   7.744  20.336  0.00  0.00    +0.000 A 
ATOM      3  C   UNL     1       1.636   6.515  20.951  0.00  0.00    +0.000 A 
ATOM      4  C   UNL     1       2.346   5.509  20.285  0.00  0.00    +0.000 A 
ATOM      5  C   UNL     1       2.866   5.744  19.010  0.00  0.00    +0.000 A 
ATOM      6  C   UNL     1       2.627   6.971  18.392  0.00  0.00    +0.000 A 
ENDROOT
BRANCH   1   7
ATOM      7  C   UNL     1       1.595   9.284  18.406  0.00  0.00    +0.000 C 
ATOM      8  O   UNL     1       2.287   9.658  17.464  0.00  0.00    +0.000 OA
BRANCH   7  13
ATOM      9  C   UNL     1      -2.554  12.868  20.238  0.00  0.00    +0.000 C 
ATOM     10  C   UNL     1      -1.498  11.900  19.795  0.00  0.00    +0.000 A 
ATOM     11  C   UNL     1      -0.287  11.790  20.488  0.00  0.00    +0.000 A 
ATOM     12  C   UNL     1       0.705  10.914  20.038  0.00  0.00    +0.000 A 
ATOM     13  C   UNL     1       0.492  10.150  18.889  0.00  0.00    +0.000 A 
ATOM     14  C   UNL     1      -0.740  10.215  18.227  0.00  0.00    +0.000 A 
ATOM     15  C   UNL     1      -1.721  11.099  18.671  0.00  0.00    +0.000 A 
ENDBRANCH   7  13
ENDBRANCH   1   7
BRANCH   5  16
ATOM     16  O   UNL     1       3.574   4.839  18.263  0.00  0.00    +0.000 OA
BRANCH  16  17
ATOM     17  C   UNL     1       4.707   5.342  17.537  0.00  0.00    +0.000 C 
ATOM     18  O   UNL     1       4.477   5.231  16.130  0.00  0.00    +0.000 OA
ATOM     19  C   UNL     1       5.567   5.689  15.343  0.00  0.00    +0.000 C 
ATOM     20  C   UNL     1       6.802   4.829  15.583  0.00  0.00    +0.000 C 
ATOM     21  C   UNL     1       7.172   4.889  17.073  0.00  0.00    +0.000 C 
ATOM     22  C   UNL     1       5.964   4.533  17.964  0.00  0.00    +0.000 C 
BRANCH  20  23
ATOM     23  O   UNL     1       7.868   5.268  14.742  0.00  0.00    +0.000 OA
ATOM     24  H   UNL     1       8.069   6.198  14.942  0.00  0.00    +0.000 HD
ENDBRANCH  20  23
BRANCH  21  25
ATOM     25  O   UNL     1       8.289   4.033  17.345  0.00  0.00    +0.000 OA
ATOM     26  H   UNL     1       9.105   4.517  17.135  0.00  0.00    +0.000 HD
ENDBRANCH  21  25
BRANCH  22  27
ATOM     27  O   UNL     1       6.288   4.768  19.346  0.00  0.00    +0.000 OA
ATOM     28  H   UNL     1       5.464   4.819  19.860  0.00  0.00    +0.000 HD
ENDBRANCH  22  27
ENDBRANCH  16  17
ENDBRANCH   5  16
TORSDOF 7
ENDMDL
MODEL 4
REMARK VINA RESULT:      -7.8      2.416      3.598
REMARK  Name = 
REMARK  8 active torsions:
REMARK  status: ('A' for Active; 'I' for Inactive)
REMARK    1  A    between atoms: C_1  and  C_2
REMARK    2  A    between atoms: C_5  and  C_6
REMARK    3  A    between atoms: C_6  and  C_8
REMARK    4  A    between atoms: C_12  and  O_13
REMARK    5  A    between atoms: O_13  and  C_14
REMARK    6  A    between atoms: C_17  and  O_18
REMARK    7  A    between atoms: C_19  and  O_20
REMARK    8  A    between atoms: C_21  and  O_22
REMARK                            x       y       z     vdW  Elec       q    Type
REMARK                         _______ _______ _______ _____ _____    ______ ____
ROOT
ATOM      1  C   UNL     1       2.010   6.773  19.560  0.00  0.00    +0.000 A 
ATOM      2  C   UNL     1       1.489   6.151  20.699  0.00  0.00    +0.000 A 
ATOM      3  C   UNL     1       1.617   4.772  20.852  0.00  0.00    +0.000 A 
ATOM      4  C   UNL     1       2.278   4.010  19.882  0.00  0.00    +0.000 A 
ATOM      5  C   UNL     1       2.846   4.632  18.768  0.00  0.00    +0.000 A 
ATOM      6  C   UNL     1       2.704   6.011  18.611  0.00  0.00    +0.000 A 
ENDROOT
BRANCH   1   7
ATOM      7  C   UNL     1       1.825   8.244  19.419  0.00  0.00    +0.000 C 
ATOM      8  O   UNL     1       2.328   8.820  18.460  0.00  0.00    +0.000 OA
BRANCH   7  13
ATOM      9  C   UNL     1      -1.426  11.170  23.200  0.00  0.00    +0.000 C 
ATOM     10  C   UNL     1      -0.546  10.451  22.221  0.00  0.00    +0.000 A 
ATOM     11  C   UNL     1      -0.666  10.678  20.845  0.00  0.00    +0.000 A 
ATOM     12  C   UNL     1       0.132   9.969  19.942  0.00  0.00    +0.000 A 
ATOM     13  C   UNL     1       1.047   9.024  20.412  0.00  0.00    +0.000 A 
ATOM     14  C   UNL     1       1.209   8.836  21.791  0.00  0.00    +0.000 A 
ATOM     15  C   UNL     1       0.402   9.536  22.686  0.00  0.00    +0.000 A 
ENDBRANCH   7  13
ENDBRANCH   1   7
BRANCH   5  16
ATOM     16  O   UNL     1       3.514   3.992  17.757  0.00  0.00    +0.000 OA
BRANCH  16  17
ATOM     17  C   UNL     1       4.588   4.712  17.131  0.00  0.00    +0.000 C 
ATOM     18  O   UNL     1       4.509   4.574  15.710  0.00  0.00    +0.000 OA
ATOM     19  C   UNL     1       5.555   5.242  15.020  0.00  0.00    +0.000 C 
ATOM     20  C   UNL     1       6.907   4.634  15.374  0.00  0.00    +0.000 C 
ATOM     21  C   UNL     1       7.125   4.748  16.890  0.00  0.00    +0.000 C 
ATOM     22  C   UNL     1       5.934   4.156  17.673  0.00  0.00    +0.000 C 
BRANCH  20  23
ATOM     23  O   UNL     1       7.938   5.279  14.628  0.00  0.00    +0.000 OA
ATOM     24  H   UNL     1       7.775   5.145  13.679  0.00  0.00    +0.000 HD
ENDBRANCH  20  23
BRANCH  21  25
ATOM     25  O   UNL     1       8.358   4.120  17.266  0.00  0.00    +0.000 OA
ATOM     26  H   UNL     1       8.760   3.732  16.471  0.00  0.00    +0.000 HD
ENDBRANCH  21  25
BRANCH  22  27
ATOM     27  O   UNL     1       6.083   4.434  19.077  0.00  0.00    +0.000 OA
ATOM     28  H   UNL     1       6.452   5.327  19.185  0.00  0.00    +0.000 HD
ENDBRANCH  22  27
ENDBRANCH  16  17
ENDBRANCH   5  16
TORSDOF 7
ENDMDL
MODEL 5
REMARK VINA RESULT:      -7.6      1.653      2.710
REMARK  Name = 
REMARK  8 active torsions:
REMARK  status: ('A' for Active; 'I' for Inactive)
REMARK    1  A    between atoms: C_1  and  C_2
REMARK    2  A    between atoms: C_5  and  C_6
REMARK    3  A    between atoms: C_6  and  C_8
REMARK    4  A    between atoms: C_12  and  O_13
REMARK    5  A    between atoms: O_13  and  C_14
REMARK    6  A    between atoms: C_17  and  O_18
REMARK    7  A    between atoms: C_19  and  O_20
REMARK    8  A    between atoms: C_21  and  O_22
REMARK                            x       y       z     vdW  Elec       q    Type
REMARK                         _______ _______ _______ _____ _____    ______ ____
ROOT
ATOM      1  C   UNL     1       1.241   9.367  19.110  0.00  0.00    +0.000 A 
ATOM      2  C   UNL     1       0.918   8.892  20.385  0.00  0.00    +0.000 A 
ATOM      3  C   UNL     1       1.435   7.674  20.819  0.00  0.00    +0.000 A 
ATOM      4  C   UNL     1       2.289   6.932  19.994  0.00  0.00    +0.000 A 
ATOM      5  C   UNL     1       2.657   7.425  18.740  0.00  0.00    +0.000 A 
ATOM      6  C   UNL     1       2.126   8.639  18.303  0.00  0.00    +0.000 A 
ENDROOT
BRANCH   1   7
ATOM      7  C   UNL     1       0.642  10.658  18.672  0.00  0.00    +0.000 C 
ATOM      8  O   UNL     1       1.371  11.634  18.524  0.00  0.00    +0.000 OA
BRANCH   7  13
ATOM      9  C   UNL     1      -5.060  10.924  17.754  0.00  0.00    +0.000 C 
ATOM     10  C   UNL     1      -3.573  10.890  17.952  0.00  0.00    +0.000 A 
ATOM     11  C   UNL     1      -2.776   9.975  17.255  0.00  0.00    +0.000 A 
ATOM     12  C   UNL     1      -1.397   9.926  17.481  0.00  0.00    +0.000 A 
ATOM     13  C   UNL     1      -0.812  10.788  18.411  0.00  0.00    +0.000 A 
ATOM     14  C   UNL     1      -1.598  11.744  19.067  0.00  0.00    +0.000 A 
ATOM     15  C   UNL     1      -2.974  11.780  18.848  0.00  0.00    +0.000 A 
ENDBRANCH   7  13
ENDBRANCH   1   7
BRANCH   5  16
ATOM     16  O   UNL     1       3.481   6.790  17.848  0.00  0.00    +0.000 OA
BRANCH  16  17
ATOM     17  C   UNL     1       3.290   5.376  17.681  0.00  0.00    +0.000 C 
ATOM     18  O   UNL     1       1.953   5.016  18.037  0.00  0.00    +0.000 OA
ATOM     19  C   UNL     1       1.694   3.624  17.919  0.00  0.00    +0.000 C 
ATOM     20  C   UNL     1       2.561   2.832  18.890  0.00  0.00    +0.000 C 
ATOM     21  C   UNL     1       4.039   3.116  18.587  0.00  0.00    +0.000 C 
ATOM     22  C   UNL     1       4.326   4.632  18.568  0.00  0.00    +0.000 C 
BRANCH  20  23
ATOM     23  O   UNL     1       2.245   1.443  18.797  0.00  0.00    +0.000 OA
ATOM     24  H   UNL     1       2.336   1.037  19.676  0.00  0.00    +0.000 HD
ENDBRANCH  20  23
BRANCH  21  25
ATOM     25  O   UNL     1       4.881   2.439  19.530  0.00  0.00    +0.000 OA
ATOM     26  H   UNL     1       5.794   2.461  19.197  0.00  0.00    +0.000 HD
ENDBRANCH  21  25
BRANCH  22  27
ATOM     27  O   UNL     1       5.669   4.871  18.110  0.00  0.00    +0.000 OA
ATOM     28  H   UNL     1       6.046   4.036  17.786  0.00  0.00    +0.000 HD
ENDBRANCH  22  27
ENDBRANCH  16  17
ENDBRANCH   5  16
TORSDOF 7
ENDMDL
MODEL 6
REMARK VINA RESULT:      -7.6      2.598      8.836
REMARK  Name = 
REMARK  8 active torsions:
REMARK  status: ('A' for Active; 'I' for Inactive)
REMARK    1  A    between atoms: C_1  and  C_2
REMARK    2  A    between atoms: C_5  and  C_6
REMARK    3  A    between atoms: C_6  and  C_8
REMARK    4  A    between atoms: C_12  and  O_13
REMARK    5  A    between atoms: O_13  and  C_14
REMARK    6  A    between atoms: C_17  and  O_18
REMARK    7  A    between atoms: C_19  and  O_20
REMARK    8  A    between atoms: C_21  and  O_22
REMARK                            x       y       z     vdW  Elec       q    Type
REMARK                         _______ _______ _______ _____ _____    ______ ____
ROOT
ATOM      1  C   UNL     1       2.067   7.928  19.062  0.00  0.00    +0.000 A 
ATOM      2  C   UNL     1       1.959   7.560  20.407  0.00  0.00    +0.000 A 
ATOM      3  C   UNL     1       1.131   8.289  21.257  0.00  0.00    +0.000 A 
ATOM      4  C   UNL     1       0.393   9.374  20.769  0.00  0.00    +0.000 A 
ATOM      5  C   UNL     1       0.456   9.713  19.416  0.00  0.00    +0.000 A 
ATOM      6  C   UNL     1       1.297   8.991  18.570  0.00  0.00    +0.000 A 
ENDROOT
BRANCH   1   7
ATOM      7  C   UNL     1       2.987   7.143  18.193  0.00  0.00    +0.000 C 
ATOM      8  O   UNL     1       3.657   7.729  17.348  0.00  0.00    +0.000 OA
BRANCH   7  13
ATOM      9  C   UNL     1       3.488   1.389  18.460  0.00  0.00    +0.000 C 
ATOM     10  C   UNL     1       3.331   2.881  18.438  0.00  0.00    +0.000 A 
ATOM     11  C   UNL     1       2.211   3.477  17.848  0.00  0.00    +0.000 A 
ATOM     12  C   UNL     1       2.099   4.870  17.797  0.00  0.00    +0.000 A 
ATOM     13  C   UNL     1       3.111   5.671  18.329  0.00  0.00    +0.000 A 
ATOM     14  C   UNL     1       4.205   5.077  18.971  0.00  0.00    +0.000 A 
ATOM     15  C   UNL     1       4.319   3.689  19.008  0.00  0.00    +0.000 A 
ENDBRANCH   7  13
ENDBRANCH   1   7
BRANCH   5  16
ATOM     16  O   UNL     1      -0.218  10.751  18.826  0.00  0.00    +0.000 OA
BRANCH  16  17
ATOM     17  C   UNL     1      -1.618  10.556  18.572  0.00  0.00    +0.000 C 
ATOM     18  O   UNL     1      -1.837  10.327  17.178  0.00  0.00    +0.000 OA
ATOM     19  C   UNL     1      -3.206  10.147  16.845  0.00  0.00    +0.000 C 
ATOM     20  C   UNL     1      -4.002  11.413  17.140  0.00  0.00    +0.000 C 
ATOM     21  C   UNL     1      -3.868  11.752  18.632  0.00  0.00    +0.000 C 
ATOM     22  C   UNL     1      -2.387  11.815  19.060  0.00  0.00    +0.000 C 
BRANCH  20  23
ATOM     23  O   UNL     1      -5.361  11.233  16.745  0.00  0.00    +0.000 OA
ATOM     24  H   UNL     1      -5.650  10.339  16.997  0.00  0.00    +0.000 HD
ENDBRANCH  20  23
BRANCH  21  25
ATOM     25  O   UNL     1      -4.548  12.978  18.929  0.00  0.00    +0.000 OA
ATOM     26  H   UNL     1      -4.125  13.694  18.427  0.00  0.00    +0.000 HD
ENDBRANCH  21  25
BRANCH  22  27
ATOM     27  O   UNL     1      -2.296  11.958  20.490  0.00  0.00    +0.000 OA
ATOM     28  H   UNL     1      -1.668  12.671  20.697  0.00  0.00    +0.000 HD
ENDBRANCH  22  27
ENDBRANCH  16  17
ENDBRANCH   5  16
TORSDOF 7
ENDMDL
MODEL 7
REMARK VINA RESULT:      -7.5      5.406      8.448
REMARK  Name = 
REMARK  8 active torsions:
REMARK  status: ('A' for Active; 'I' for Inactive)
REMARK    1  A    between atoms: C_1  and  C_2
REMARK    2  A    between atoms: C_5  and  C_6
REMARK    3  A    between atoms: C_6  and  C_8
REMARK    4  A    between atoms: C_12  and  O_13
REMARK    5  A    between atoms: O_13  and  C_14
REMARK    6  A    between atoms: C_17  and  O_18
REMARK    7  A    between atoms: C_19  and  O_20
REMARK    8  A    between atoms: C_21  and  O_22
REMARK                            x       y       z     vdW  Elec       q    Type
REMARK                         _______ _______ _______ _____ _____    ______ ____
ROOT
ATOM      1  C   UNL     1       6.270   5.945  16.729  0.00  0.00    +0.000 A 
ATOM      2  C   UNL     1       7.417   6.624  17.151  0.00  0.00    +0.000 A 
ATOM      3  C   UNL     1       7.848   6.498  18.470  0.00  0.00    +0.000 A 
ATOM      4  C   UNL     1       7.151   5.682  19.368  0.00  0.00    +0.000 A 
ATOM      5  C   UNL     1       6.036   4.959  18.939  0.00  0.00    +0.000 A 
ATOM      6  C   UNL     1       5.598   5.099  17.622  0.00  0.00    +0.000 A 
ENDROOT
BRANCH   1   7
ATOM      7  C   UNL     1       5.825   6.131  15.320  0.00  0.00    +0.000 C 
ATOM      8  O   UNL     1       5.147   7.112  15.033  0.00  0.00    +0.000 OA
BRANCH   7  13
ATOM      9  C   UNL     1       7.020   2.423  11.048  0.00  0.00    +0.000 C 
ATOM     10  C   UNL     1       6.733   3.351  12.192  0.00  0.00    +0.000 A 
ATOM     11  C   UNL     1       5.556   3.230  12.938  0.00  0.00    +0.000 A 
ATOM     12  C   UNL     1       5.283   4.129  13.974  0.00  0.00    +0.000 A 
ATOM     13  C   UNL     1       6.184   5.157  14.261  0.00  0.00    +0.000 A 
ATOM     14  C   UNL     1       7.389   5.245  13.553  0.00  0.00    +0.000 A 
ATOM     15  C   UNL     1       7.651   4.355  12.514  0.00  0.00    +0.000 A 
ENDBRANCH   7  13
ENDBRANCH   1   7
BRANCH   5  16
ATOM     16  O   UNL     1       5.276   4.133  19.725  0.00  0.00    +0.000 OA
BRANCH  16  17
ATOM     17  C   UNL     1       3.878   4.036  19.405  0.00  0.00    +0.000 C 
ATOM     18  O   UNL     1       3.094   4.610  20.454  0.00  0.00    +0.000 OA
ATOM     19  C   UNL     1       1.695   4.531  20.219  0.00  0.00    +0.000 C 
ATOM     20  C   UNL     1       1.239   3.078  20.170  0.00  0.00    +0.000 C 
ATOM     21  C   UNL     1       1.999   2.353  19.050  0.00  0.00    +0.000 C 
ATOM     22  C   UNL     1       3.523   2.538  19.196  0.00  0.00    +0.000 C 
BRANCH  20  23
ATOM     23  O   UNL     1      -0.175   3.021  19.992  0.00  0.00    +0.000 OA
ATOM     24  H   UNL     1      -0.517   3.923  19.864  0.00  0.00    +0.000 HD
ENDBRANCH  20  23
BRANCH  21  25
ATOM     25  O   UNL     1       1.644   0.964  19.023  0.00  0.00    +0.000 OA
ATOM     26  H   UNL     1       0.681   0.891  19.137  0.00  0.00    +0.000 HD
ENDBRANCH  21  25
BRANCH  22  27
ATOM     27  O   UNL     1       4.196   2.002  18.042  0.00  0.00    +0.000 OA
ATOM     28  H   UNL     1       3.538   1.818  17.349  0.00  0.00    +0.000 HD
ENDBRANCH  22  27
ENDBRANCH  16  17
ENDBRANCH   5  16
TORSDOF 7
ENDMDL
MODEL 8
REMARK VINA RESULT:      -7.5      2.195      3.165
REMARK  Name = 
REMARK  8 active torsions:
REMARK  status: ('A' for Active; 'I' for Inactive)
REMARK    1  A    between atoms: C_1  and  C_2
REMARK    2  A    between atoms: C_5  and  C_6
REMARK    3  A    between atoms: C_6  and  C_8
REMARK    4  A    between atoms: C_12  and  O_13
REMARK    5  A    between atoms: O_13  and  C_14
REMARK    6  A    between atoms: C_17  and  O_18
REMARK    7  A    between atoms: C_19  and  O_20
REMARK    8  A    between atoms: C_21  and  O_22
REMARK                            x       y       z     vdW  Elec       q    Type
REMARK                         _______ _______ _______ _____ _____    ______ ____
ROOT
ATOM      1  C   UNL     1       0.923   9.693  19.363  0.00  0.00    +0.000 A 
ATOM      2  C   UNL     1       1.514  10.056  18.149  0.00  0.00    +0.000 A 
ATOM      3  C   UNL     1       2.442   9.206  17.551  0.00  0.00    +0.000 A 
ATOM      4  C   UNL     1       2.771   7.984  18.150  0.00  0.00    +0.000 A 
ATOM      5  C   UNL     1       2.146   7.592  19.335  0.00  0.00    +0.000 A 
ATOM      6  C   UNL     1       1.228   8.452  19.939  0.00  0.00    +0.000 A 
ENDROOT
BRANCH   1   7
ATOM      7  C   UNL     1      -0.040  10.644  19.985  0.00  0.00    +0.000 C 
ATOM      8  O   UNL     1       0.256  11.187  21.045  0.00  0.00    +0.000 OA
BRANCH   7  13
ATOM      9  C   UNL     1      -5.219  11.600  17.601  0.00  0.00    +0.000 C 
ATOM     10  C   UNL     1      -3.853  11.384  18.182  0.00  0.00    +0.000 A 
ATOM     11  C   UNL     1      -3.038  10.340  17.731  0.00  0.00    +0.000 A 
ATOM     12  C   UNL     1      -1.784  10.124  18.312  0.00  0.00    +0.000 A 
ATOM     13  C   UNL     1      -1.345  10.948  19.350  0.00  0.00    +0.000 A 
ATOM     14  C   UNL     1      -2.134  12.029  19.763  0.00  0.00    +0.000 A 
ATOM     15  C   UNL     1      -3.389  12.232  19.191  0.00  0.00    +0.000 A 
ENDBRANCH   7  13
ENDBRANCH   1   7
BRANCH   5  16
ATOM     16  O   UNL     1       2.387   6.425  20.011  0.00  0.00    +0.000 OA
BRANCH  16  17
ATOM     17  C   UNL     1       2.618   5.250  19.217  0.00  0.00    +0.000 C 
ATOM     18  O   UNL     1       1.503   4.361  19.320  0.00  0.00    +0.000 OA
ATOM     19  C   UNL     1       1.668   3.161  18.578  0.00  0.00    +0.000 C 
ATOM     20  C   UNL     1       2.839   2.350  19.119  0.00  0.00    +0.000 C 
ATOM     21  C   UNL     1       4.117   3.198  19.033  0.00  0.00    +0.000 C 
ATOM     22  C   UNL     1       3.924   4.570  19.711  0.00  0.00    +0.000 C 
BRANCH  20  23
ATOM     23  O   UNL     1       2.952   1.124  18.398  0.00  0.00    +0.000 OA
ATOM     24  H   UNL     1       3.434   0.478  18.942  0.00  0.00    +0.000 HD
ENDBRANCH  20  23
BRANCH  21  25
ATOM     25  O   UNL     1       5.226   2.488  19.601  0.00  0.00    +0.000 OA
ATOM     26  H   UNL     1       5.320   1.641  19.134  0.00  0.00    +0.000 HD
ENDBRANCH  21  25
BRANCH  22  27
ATOM     27  O   UNL     1       5.070   5.405  19.462  0.00  0.00    +0.000 OA
ATOM     28  H   UNL     1       5.177   5.517  18.502  0.00  0.00    +0.000 HD
ENDBRANCH  22  27
ENDBRANCH  16  17
ENDBRANCH   5  16
TORSDOF 7
ENDMDL
MODEL 9
REMARK VINA RESULT:      -7.4      2.222      2.930
REMARK  Name = 
REMARK  8 active torsions:
REMARK  status: ('A' for Active; 'I' for Inactive)
REMARK    1  A    between atoms: C_1  and  C_2
REMARK    2  A    between atoms: C_5  and  C_6
REMARK    3  A    between atoms: C_6  and  C_8
REMARK    4  A    between atoms: C_12  and  O_13
REMARK    5  A    between atoms: O_13  and  C_14
REMARK    6  A    between atoms: C_17  and  O_18
REMARK    7  A    between atoms: C_19  and  O_20
REMARK    8  A    between atoms: C_21  and  O_22
REMARK                            x       y       z     vdW  Elec       q    Type
REMARK                         _______ _______ _______ _____ _____    ______ ____
ROOT
ATOM      1  C   UNL     1       1.475   9.078  19.047  0.00  0.00    +0.000 A 
ATOM      2  C   UNL     1       2.186   8.945  17.850  0.00  0.00    +0.000 A 
ATOM      3  C   UNL     1       2.940   7.796  17.620  0.00  0.00    +0.000 A 
ATOM      4  C   UNL     1       2.975   6.769  18.570  0.00  0.00    +0.000 A 
ATOM      5  C   UNL     1       2.225   6.873  19.744  0.00  0.00    +0.000 A 
ATOM      6  C   UNL     1       1.482   8.031  19.978  0.00  0.00    +0.000 A 
ENDROOT
BRANCH   1   7
ATOM      7  C   UNL     1       0.706  10.334  19.268  0.00  0.00    +0.000 C 
ATOM      8  O   UNL     1       1.208  11.232  19.937  0.00  0.00    +0.000 OA
BRANCH   7  13
ATOM      9  C   UNL     1      -4.511  11.311  16.975  0.00  0.00    +0.000 C 
ATOM     10  C   UNL     1      -3.179  11.021  17.603  0.00  0.00    +0.000 A 
ATOM     11  C   UNL     1      -2.753  11.719  18.738  0.00  0.00    +0.000 A 
ATOM     12  C   UNL     1      -1.491  11.468  19.286  0.00  0.00    +0.000 A 
ATOM     13  C   UNL     1      -0.650  10.522  18.697  0.00  0.00    +0.000 A 
ATOM     14  C   UNL     1      -1.097   9.781  17.596  0.00  0.00    +0.000 A 
ATOM     15  C   UNL     1      -2.350  10.044  17.044  0.00  0.00    +0.000 A 
ENDBRANCH   7  13
ENDBRANCH   1   7
BRANCH   5  16
ATOM     16  O   UNL     1       2.181   5.936  20.743  0.00  0.00    +0.000 OA
BRANCH  16  17
ATOM     17  C   UNL     1       2.669   4.623  20.424  0.00  0.00    +0.000 C 
ATOM     18  O   UNL     1       3.907   4.718  19.715  0.00  0.00    +0.000 OA
ATOM     19  C   UNL     1       4.442   3.456  19.343  0.00  0.00    +0.000 C 
ATOM     20  C   UNL     1       3.512   2.744  18.368  0.00  0.00    +0.000 C 
ATOM     21  C   UNL     1       2.141   2.555  19.033  0.00  0.00    +0.000 C 
ATOM     22  C   UNL     1       1.593   3.891  19.576  0.00  0.00    +0.000 C 
BRANCH  20  23
ATOM     23  O   UNL     1       4.094   1.506  17.962  0.00  0.00    +0.000 OA
ATOM     24  H   UNL     1       3.880   1.345  17.027  0.00  0.00    +0.000 HD
ENDBRANCH  20  23
BRANCH  21  25
ATOM     25  O   UNL     1       1.220   1.950  18.115  0.00  0.00    +0.000 OA
ATOM     26  H   UNL     1       1.477   2.200  17.212  0.00  0.00    +0.000 HD
ENDBRANCH  21  25
BRANCH  22  27
ATOM     27  O   UNL     1       0.399   3.656  20.343  0.00  0.00    +0.000 OA
ATOM     28  H   UNL     1      -0.358   4.055  19.882  0.00  0.00    +0.000 HD
ENDBRANCH  22  27
ENDBRANCH  16  17
ENDBRANCH   5  16
TORSDOF 7
ENDMDL
