MODEL 1
REMARK VINA RESULT:      -7.6      0.000      0.000
REMARK  Name = 
REMARK  9 active torsions:
REMARK  status: ('A' for Active; 'I' for Inactive)
REMARK    1  A    between atoms: C_2  and  C_3
REMARK    2  A    between atoms: C_2  and  C_21
REMARK    3  A    between atoms: C_3  and  C_4
REMARK    4  A    between atoms: C_4  and  C_5
REMARK    5  A    between atoms: C_5  and  O_6
REMARK    6  A    between atoms: O_6  and  C_7
REMARK    7  A    between atoms: C_10  and  O_11
REMARK    8  A    between atoms: O_11  and  C_12
REMARK    9  A    between atoms: C_12  and  C_13
REMARK                            x       y       z     vdW  Elec       q    Type
REMARK                         _______ _______ _______ _____ _____    ______ ____
ROOT
ATOM      1  C   UNL     1       6.103   5.296  17.687  0.00  0.00    +0.000 A 
ATOM      2  C   UNL     1       6.124   6.474  16.943  0.00  0.00    +0.000 A 
ATOM      3  C   UNL     1       7.016   7.490  17.253  0.00  0.00    +0.000 A 
ATOM      4  C   UNL     1       7.870   7.367  18.345  0.00  0.00    +0.000 A 
ATOM      5  C   UNL     1       7.894   6.173  19.066  0.00  0.00    +0.000 A 
ATOM      6  C   UNL     1       7.008   5.138  18.739  0.00  0.00    +0.000 A 
ENDROOT
BRANCH   1   7
ATOM      7  O   UNL     1       5.232   4.257  17.455  0.00  0.00    +0.000 OA
BRANCH   7   8
ATOM      8  C   UNL     1       3.913   4.674  17.086  0.00  0.00    +0.000 C 
BRANCH   8   9
ATOM      9  C   UNL     1       3.047   4.894  18.310  0.00  0.00    +0.000 C 
BRANCH   9  10
ATOM     10  C   UNL     1       1.796   4.024  18.286  0.00  0.00    +0.000 C 
BRANCH  10  12
ATOM     11  O   UNL     1       2.084   1.843  19.258  0.00  0.00    +0.000 OA
ATOM     12  C   UNL     1       1.783   3.029  19.431  0.00  0.00    +0.000 C 
BRANCH  12  13
ATOM     13  C   UNL     1       1.365   3.588  20.780  0.00  0.00    +0.000 C 
ATOM     14  F   UNL     1       2.410   4.119  21.473  0.00  0.00    +0.000 F 
ATOM     15  F   UNL     1       0.446   4.584  20.662  0.00  0.00    +0.000 F 
ATOM     16  F   UNL     1       0.817   2.639  21.585  0.00  0.00    +0.000 F 
ENDBRANCH  12  13
ENDBRANCH  10  12
ENDBRANCH   9  10
ENDBRANCH   8   9
ENDBRANCH   7   8
ENDBRANCH   1   7
BRANCH   4  17
ATOM     17  O   UNL     1       8.692   8.374  18.778  0.00  0.00    +0.000 OA
BRANCH  17  18
ATOM     18  C   UNL     1       8.557   9.585  18.024  0.00  0.00    +0.000 C 
BRANCH  18  19
ATOM     19  C   UNL     1       9.375  10.670  18.658  0.00  0.00    +0.000 A 
ATOM     20  C   UNL     1       9.558  10.700  20.045  0.00  0.00    +0.000 A 
ATOM     21  C   UNL     1      10.324  11.708  20.631  0.00  0.00    +0.000 A 
ATOM     22  C   UNL     1      10.910  12.688  19.832  0.00  0.00    +0.000 A 
ATOM     23  C   UNL     1      10.739  12.663  18.448  0.00  0.00    +0.000 A 
ATOM     24  C   UNL     1       9.977  11.655  17.867  0.00  0.00    +0.000 A 
ENDBRANCH  18  19
ENDBRANCH  17  18
ENDBRANCH   4  17
TORSDOF 9
ENDMDL
MODEL 2
REMARK VINA RESULT:      -7.6      4.525      6.057
REMARK  Name = 
REMARK  9 active torsions:
REMARK  status: ('A' for Active; 'I' for Inactive)
REMARK    1  A    between atoms: C_2  and  C_3
REMARK    2  A    between atoms: C_2  and  C_21
REMARK    3  A    between atoms: C_3  and  C_4
REMARK    4  A    between atoms: C_4  and  C_5
REMARK    5  A    between atoms: C_5  and  O_6
REMARK    6  A    between atoms: O_6  and  C_7
REMARK    7  A    between atoms: C_10  and  O_11
REMARK    8  A    between atoms: O_11  and  C_12
REMARK    9  A    between atoms: C_12  and  C_13
REMARK                            x       y       z     vdW  Elec       q    Type
REMARK                         _______ _______ _______ _____ _____    ______ ____
ROOT
ATOM      1  C   UNL     1       3.536   5.964  19.388  0.00  0.00    +0.000 A 
ATOM      2  C   UNL     1       3.107   6.680  18.271  0.00  0.00    +0.000 A 
ATOM      3  C   UNL     1       3.941   6.846  17.175  0.00  0.00    +0.000 A 
ATOM      4  C   UNL     1       5.238   6.340  17.195  0.00  0.00    +0.000 A 
ATOM      5  C   UNL     1       5.660   5.578  18.284  0.00  0.00    +0.000 A 
ATOM      6  C   UNL     1       4.810   5.393  19.383  0.00  0.00    +0.000 A 
ENDROOT
BRANCH   1   7
ATOM      7  O   UNL     1       2.775   5.779  20.519  0.00  0.00    +0.000 OA
BRANCH   7   8
ATOM      8  C   UNL     1       1.582   5.018  20.300  0.00  0.00    +0.000 C 
BRANCH   8   9
ATOM      9  C   UNL     1       1.625   3.707  21.060  0.00  0.00    +0.000 C 
BRANCH   9  10
ATOM     10  C   UNL     1       1.633   2.506  20.122  0.00  0.00    +0.000 C 
BRANCH  10  12
ATOM     11  O   UNL     1       4.011   2.163  20.247  0.00  0.00    +0.000 OA
ATOM     12  C   UNL     1       3.009   2.267  19.531  0.00  0.00    +0.000 C 
BRANCH  12  13
ATOM     13  C   UNL     1       3.064   2.181  18.015  0.00  0.00    +0.000 C 
ATOM     14  F   UNL     1       1.906   1.707  17.476  0.00  0.00    +0.000 F 
ATOM     15  F   UNL     1       3.279   3.393  17.438  0.00  0.00    +0.000 F 
ATOM     16  F   UNL     1       4.052   1.355  17.580  0.00  0.00    +0.000 F 
ENDBRANCH  12  13
ENDBRANCH  10  12
ENDBRANCH   9  10
ENDBRANCH   8   9
ENDBRANCH   7   8
ENDBRANCH   1   7
BRANCH   4  17
ATOM     17  O   UNL     1       6.151   6.565  16.199  0.00  0.00    +0.000 OA
BRANCH  17  18
ATOM     18  C   UNL     1       7.051   5.469  15.992  0.00  0.00    +0.000 C 
BRANCH  18  19
ATOM     19  C   UNL     1       6.812   4.867  14.640  0.00  0.00    +0.000 A 
ATOM     20  C   UNL     1       7.659   5.172  13.569  0.00  0.00    +0.000 A 
ATOM     21  C   UNL     1       7.436   4.605  12.314  0.00  0.00    +0.000 A 
ATOM     22  C   UNL     1       6.367   3.731  12.127  0.00  0.00    +0.000 A 
ATOM     23  C   UNL     1       5.521   3.416  13.189  0.00  0.00    +0.000 A 
ATOM     24  C   UNL     1       5.747   3.980  14.440  0.00  0.00    +0.000 A 
ENDBRANCH  18  19
ENDBRANCH  17  18
ENDBRANCH   4  17
TORSDOF 9
ENDMDL
MODEL 3
REMARK VINA RESULT:      -7.4      4.326      5.928
REMARK  Name = 
REMARK  9 active torsions:
REMARK  status: ('A' for Active; 'I' for Inactive)
REMARK    1  A    between atoms: C_2  and  C_3
REMARK    2  A    between atoms: C_2  and  C_21
REMARK    3  A    between atoms: C_3  and  C_4
REMARK    4  A    between atoms: C_4  and  C_5
REMARK    5  A    between atoms: C_5  and  O_6
REMARK    6  A    between atoms: O_6  and  C_7
REMARK    7  A    between atoms: C_10  and  O_11
REMARK    8  A    between atoms: O_11  and  C_12
REMARK    9  A    between atoms: C_12  and  C_13
REMARK                            x       y       z     vdW  Elec       q    Type
REMARK                         _______ _______ _______ _____ _____    ______ ____
ROOT
ATOM      1  C   UNL     1       3.528   6.301  19.025  0.00  0.00    +0.000 A 
ATOM      2  C   UNL     1       3.361   6.869  17.763  0.00  0.00    +0.000 A 
ATOM      3  C   UNL     1       4.397   6.860  16.841  0.00  0.00    +0.000 A 
ATOM      4  C   UNL     1       5.636   6.325  17.181  0.00  0.00    +0.000 A 
ATOM      5  C   UNL     1       5.800   5.707  18.421  0.00  0.00    +0.000 A 
ATOM      6  C   UNL     1       4.747   5.698  19.345  0.00  0.00    +0.000 A 
ENDROOT
BRANCH   1   7
ATOM      7  O   UNL     1       2.557   6.294  19.999  0.00  0.00    +0.000 OA
BRANCH   7   8
ATOM      8  C   UNL     1       2.424   5.041  20.680  0.00  0.00    +0.000 C 
BRANCH   8   9
ATOM      9  C   UNL     1       1.175   4.306  20.234  0.00  0.00    +0.000 C 
BRANCH   9  10
ATOM     10  C   UNL     1       1.291   3.808  18.798  0.00  0.00    +0.000 C 
BRANCH  10  12
ATOM     11  O   UNL     1       1.397   1.424  19.096  0.00  0.00    +0.000 OA
ATOM     12  C   UNL     1       1.970   2.454  18.728  0.00  0.00    +0.000 C 
BRANCH  12  13
ATOM     13  C   UNL     1       3.392   2.463  18.193  0.00  0.00    +0.000 C 
ATOM     14  F   UNL     1       3.737   1.283  17.606  0.00  0.00    +0.000 F 
ATOM     15  F   UNL     1       3.582   3.423  17.250  0.00  0.00    +0.000 F 
ATOM     16  F   UNL     1       4.310   2.683  19.171  0.00  0.00    +0.000 F 
ENDBRANCH  12  13
ENDBRANCH  10  12
ENDBRANCH   9  10
ENDBRANCH   8   9
ENDBRANCH   7   8
ENDBRANCH   1   7
BRANCH   4  17
ATOM     17  O   UNL     1       6.735   6.386  16.364  0.00  0.00    +0.000 OA
BRANCH  17  18
ATOM     18  C   UNL     1       7.308   5.103  16.083  0.00  0.00    +0.000 C 
BRANCH  18  19
ATOM     19  C   UNL     1       7.014   4.717  14.664  0.00  0.00    +0.000 A 
ATOM     20  C   UNL     1       7.799   5.215  13.618  0.00  0.00    +0.000 A 
ATOM     21  C   UNL     1       7.525   4.849  12.300  0.00  0.00    +0.000 A 
ATOM     22  C   UNL     1       6.468   3.986  12.024  0.00  0.00    +0.000 A 
ATOM     23  C   UNL     1       5.683   3.480  13.060  0.00  0.00    +0.000 A 
ATOM     24  C   UNL     1       5.960   3.844  14.373  0.00  0.00    +0.000 A 
ENDBRANCH  18  19
ENDBRANCH  17  18
ENDBRANCH   4  17
TORSDOF 9
ENDMDL
MODEL 4
REMARK VINA RESULT:      -7.4      1.025      1.685
REMARK  Name = 
REMARK  9 active torsions:
REMARK  status: ('A' for Active; 'I' for Inactive)
REMARK    1  A    between atoms: C_2  and  C_3
REMARK    2  A    between atoms: C_2  and  C_21
REMARK    3  A    between atoms: C_3  and  C_4
REMARK    4  A    between atoms: C_4  and  C_5
REMARK    5  A    between atoms: C_5  and  O_6
REMARK    6  A    between atoms: O_6  and  C_7
REMARK    7  A    between atoms: C_10  and  O_11
REMARK    8  A    between atoms: O_11  and  C_12
REMARK    9  A    between atoms: C_12  and  C_13
REMARK                            x       y       z     vdW  Elec       q    Type
REMARK                         _______ _______ _______ _____ _____    ______ ____
ROOT
ATOM      1  C   UNL     1       6.446   5.154  17.397  0.00  0.00    +0.000 A 
ATOM      2  C   UNL     1       6.401   6.393  16.758  0.00  0.00    +0.000 A 
ATOM      3  C   UNL     1       7.188   7.445  17.201  0.00  0.00    +0.000 A 
ATOM      4  C   UNL     1       7.999   7.294  18.321  0.00  0.00    +0.000 A 
ATOM      5  C   UNL     1       8.092   6.046  18.938  0.00  0.00    +0.000 A 
ATOM      6  C   UNL     1       7.313   4.976  18.477  0.00  0.00    +0.000 A 
ENDROOT
BRANCH   1   7
ATOM      7  O   UNL     1       5.679   4.074  17.030  0.00  0.00    +0.000 OA
BRANCH   7   8
ATOM      8  C   UNL     1       4.289   4.376  16.862  0.00  0.00    +0.000 C 
BRANCH   8   9
ATOM      9  C   UNL     1       3.418   3.265  17.414  0.00  0.00    +0.000 C 
BRANCH   9  10
ATOM     10  C   UNL     1       3.768   2.933  18.859  0.00  0.00    +0.000 C 
BRANCH  10  12
ATOM     11  O   UNL     1       1.764   2.487  20.112  0.00  0.00    +0.000 OA
ATOM     12  C   UNL     1       2.642   3.300  19.808  0.00  0.00    +0.000 C 
BRANCH  12  13
ATOM     13  C   UNL     1       2.669   4.725  20.334  0.00  0.00    +0.000 C 
ATOM     14  F   UNL     1       1.777   5.534  19.697  0.00  0.00    +0.000 F 
ATOM     15  F   UNL     1       2.362   4.792  21.657  0.00  0.00    +0.000 F 
ATOM     16  F   UNL     1       3.887   5.309  20.181  0.00  0.00    +0.000 F 
ENDBRANCH  12  13
ENDBRANCH  10  12
ENDBRANCH   9  10
ENDBRANCH   8   9
ENDBRANCH   7   8
ENDBRANCH   1   7
BRANCH   4  17
ATOM     17  O   UNL     1       8.712   8.321  18.881  0.00  0.00    +0.000 OA
BRANCH  17  18
ATOM     18  C   UNL     1       8.479   9.588  18.253  0.00  0.00    +0.000 C 
BRANCH  18  19
ATOM     19  C   UNL     1       9.449  10.602  18.782  0.00  0.00    +0.000 A 
ATOM     20  C   UNL     1      10.229  11.361  17.903  0.00  0.00    +0.000 A 
ATOM     21  C   UNL     1      11.127  12.307  18.399  0.00  0.00    +0.000 A 
ATOM     22  C   UNL     1      11.245  12.497  19.774  0.00  0.00    +0.000 A 
ATOM     23  C   UNL     1      10.467  11.750  20.658  0.00  0.00    +0.000 A 
ATOM     24  C   UNL     1       9.572  10.810  20.160  0.00  0.00    +0.000 A 
ENDBRANCH  18  19
ENDBRANCH  17  18
ENDBRANCH   4  17
TORSDOF 9
ENDMDL
MODEL 5
REMARK VINA RESULT:      -7.4      4.534      9.711
REMARK  Name = 
REMARK  9 active torsions:
REMARK  status: ('A' for Active; 'I' for Inactive)
REMARK    1  A    between atoms: C_2  and  C_3
REMARK    2  A    between atoms: C_2  and  C_21
REMARK    3  A    between atoms: C_3  and  C_4
REMARK    4  A    between atoms: C_4  and  C_5
REMARK    5  A    between atoms: C_5  and  O_6
REMARK    6  A    between atoms: O_6  and  C_7
REMARK    7  A    between atoms: C_10  and  O_11
REMARK    8  A    between atoms: O_11  and  C_12
REMARK    9  A    between atoms: C_12  and  C_13
REMARK                            x       y       z     vdW  Elec       q    Type
REMARK                         _______ _______ _______ _____ _____    ______ ____
ROOT
ATOM      1  C   UNL     1       7.535   6.889  18.217  0.00  0.00    +0.000 A 
ATOM      2  C   UNL     1       7.306   5.646  18.806  0.00  0.00    +0.000 A 
ATOM      3  C   UNL     1       6.209   4.881  18.438  0.00  0.00    +0.000 A 
ATOM      4  C   UNL     1       5.293   5.366  17.509  0.00  0.00    +0.000 A 
ATOM      5  C   UNL     1       5.538   6.585  16.875  0.00  0.00    +0.000 A 
ATOM      6  C   UNL     1       6.659   7.348  17.231  0.00  0.00    +0.000 A 
ENDROOT
BRANCH   1   7
ATOM      7  O   UNL     1       8.585   7.712  18.547  0.00  0.00    +0.000 OA
BRANCH   7   8
ATOM      8  C   UNL     1       8.407   9.074  18.142  0.00  0.00    +0.000 C 
BRANCH   8   9
ATOM      9  C   UNL     1       9.146  10.020  19.069  0.00  0.00    +0.000 C 
BRANCH   9  10
ATOM     10  C   UNL     1       9.823  11.151  18.305  0.00  0.00    +0.000 C 
BRANCH  10  12
ATOM     11  O   UNL     1      12.139  11.500  18.851  0.00  0.00    +0.000 OA
ATOM     12  C   UNL     1      10.959  11.765  19.101  0.00  0.00    +0.000 C 
BRANCH  12  13
ATOM     13  C   UNL     1      10.541  12.702  20.221  0.00  0.00    +0.000 C 
ATOM     14  F   UNL     1       9.350  13.315  19.973  0.00  0.00    +0.000 F 
ATOM     15  F   UNL     1      10.391  12.054  21.407  0.00  0.00    +0.000 F 
ATOM     16  F   UNL     1      11.445  13.696  20.427  0.00  0.00    +0.000 F 
ENDBRANCH  12  13
ENDBRANCH  10  12
ENDBRANCH   9  10
ENDBRANCH   8   9
ENDBRANCH   7   8
ENDBRANCH   1   7
BRANCH   4  17
ATOM     17  O   UNL     1       4.130   4.718  17.186  0.00  0.00    +0.000 OA
BRANCH  17  18
ATOM     18  C   UNL     1       2.956   5.362  17.697  0.00  0.00    +0.000 C 
BRANCH  18  19
ATOM     19  C   UNL     1       2.319   4.498  18.743  0.00  0.00    +0.000 A 
ATOM     20  C   UNL     1       2.171   4.965  20.054  0.00  0.00    +0.000 A 
ATOM     21  C   UNL     1       1.574   4.159  21.023  0.00  0.00    +0.000 A 
ATOM     22  C   UNL     1       1.121   2.886  20.685  0.00  0.00    +0.000 A 
ATOM     23  C   UNL     1       1.259   2.413  19.381  0.00  0.00    +0.000 A 
ATOM     24  C   UNL     1       1.853   3.219  18.416  0.00  0.00    +0.000 A 
ENDBRANCH  18  19
ENDBRANCH  17  18
ENDBRANCH   4  17
TORSDOF 9
ENDMDL
MODEL 6
REMARK VINA RESULT:      -7.4      4.659      9.745
REMARK  Name = 
REMARK  9 active torsions:
REMARK  status: ('A' for Active; 'I' for Inactive)
REMARK    1  A    between atoms: C_2  and  C_3
REMARK    2  A    between atoms: C_2  and  C_21
REMARK    3  A    between atoms: C_3  and  C_4
REMARK    4  A    between atoms: C_4  and  C_5
REMARK    5  A    between atoms: C_5  and  O_6
REMARK    6  A    between atoms: O_6  and  C_7
REMARK    7  A    between atoms: C_10  and  O_11
REMARK    8  A    between atoms: O_11  and  C_12
REMARK    9  A    between atoms: C_12  and  C_13
REMARK                            x       y       z     vdW  Elec       q    Type
REMARK                         _______ _______ _______ _____ _____    ______ ____
ROOT
ATOM      1  C   UNL     1       7.674   7.022  18.287  0.00  0.00    +0.000 A 
ATOM      2  C   UNL     1       6.717   7.257  17.300  0.00  0.00    +0.000 A 
ATOM      3  C   UNL     1       5.726   6.323  17.041  0.00  0.00    +0.000 A 
ATOM      4  C   UNL     1       5.700   5.114  17.730  0.00  0.00    +0.000 A 
ATOM      5  C   UNL     1       6.620   4.889  18.755  0.00  0.00    +0.000 A 
ATOM      6  C   UNL     1       7.610   5.843  19.031  0.00  0.00    +0.000 A 
ENDROOT
BRANCH   1   7
ATOM      7  O   UNL     1       8.700   7.889  18.583  0.00  0.00    +0.000 OA
BRANCH   7   8
ATOM      8  C   UNL     1       8.431   9.251  18.231  0.00  0.00    +0.000 C 
BRANCH   8   9
ATOM      9  C   UNL     1       9.191  10.207  19.130  0.00  0.00    +0.000 C 
BRANCH   9  10
ATOM     10  C   UNL     1       9.268  11.608  18.535  0.00  0.00    +0.000 C 
BRANCH  10  12
ATOM     11  O   UNL     1      11.344  12.172  17.459  0.00  0.00    +0.000 OA
ATOM     12  C   UNL     1      10.692  12.128  18.508  0.00  0.00    +0.000 C 
BRANCH  12  13
ATOM     13  C   UNL     1      11.253  12.569  19.849  0.00  0.00    +0.000 C 
ATOM     14  F   UNL     1      10.279  12.801  20.772  0.00  0.00    +0.000 F 
ATOM     15  F   UNL     1      12.076  11.634  20.396  0.00  0.00    +0.000 F 
ATOM     16  F   UNL     1      11.970  13.720  19.755  0.00  0.00    +0.000 F 
ENDBRANCH  12  13
ENDBRANCH  10  12
ENDBRANCH   9  10
ENDBRANCH   8   9
ENDBRANCH   7   8
ENDBRANCH   1   7
BRANCH   4  17
ATOM     17  O   UNL     1       4.823   4.101  17.447  0.00  0.00    +0.000 OA
BRANCH  17  18
ATOM     18  C   UNL     1       3.498   4.560  17.151  0.00  0.00    +0.000 C 
BRANCH  18  19
ATOM     19  C   UNL     1       2.587   4.251  18.301  0.00  0.00    +0.000 A 
ATOM     20  C   UNL     1       2.494   5.129  19.387  0.00  0.00    +0.000 A 
ATOM     21  C   UNL     1       1.642   4.840  20.453  0.00  0.00    +0.000 A 
ATOM     22  C   UNL     1       0.879   3.675  20.435  0.00  0.00    +0.000 A 
ATOM     23  C   UNL     1       0.959   2.796  19.355  0.00  0.00    +0.000 A 
ATOM     24  C   UNL     1       1.808   3.088  18.293  0.00  0.00    +0.000 A 
ENDBRANCH  18  19
ENDBRANCH  17  18
ENDBRANCH   4  17
TORSDOF 9
ENDMDL
MODEL 7
REMARK VINA RESULT:      -7.3      4.627      6.182
REMARK  Name = 
REMARK  9 active torsions:
REMARK  status: ('A' for Active; 'I' for Inactive)
REMARK    1  A    between atoms: C_2  and  C_3
REMARK    2  A    between atoms: C_2  and  C_21
REMARK    3  A    between atoms: C_3  and  C_4
REMARK    4  A    between atoms: C_4  and  C_5
REMARK    5  A    between atoms: C_5  and  O_6
REMARK    6  A    between atoms: O_6  and  C_7
REMARK    7  A    between atoms: C_10  and  O_11
REMARK    8  A    between atoms: O_11  and  C_12
REMARK    9  A    between atoms: C_12  and  C_13
REMARK                            x       y       z     vdW  Elec       q    Type
REMARK                         _______ _______ _______ _____ _____    ______ ____
ROOT
ATOM      1  C   UNL     1       2.706   5.424  17.971  0.00  0.00    +0.000 A 
ATOM      2  C   UNL     1       3.357   4.412  17.267  0.00  0.00    +0.000 A 
ATOM      3  C   UNL     1       4.566   4.657  16.633  0.00  0.00    +0.000 A 
ATOM      4  C   UNL     1       5.123   5.933  16.650  0.00  0.00    +0.000 A 
ATOM      5  C   UNL     1       4.508   6.940  17.393  0.00  0.00    +0.000 A 
ATOM      6  C   UNL     1       3.297   6.687  18.052  0.00  0.00    +0.000 A 
ENDROOT
BRANCH   1   7
ATOM      7  O   UNL     1       1.495   5.263  18.603  0.00  0.00    +0.000 OA
BRANCH   7   8
ATOM      8  C   UNL     1       1.586   5.212  20.031  0.00  0.00    +0.000 C 
BRANCH   8   9
ATOM      9  C   UNL     1       0.943   3.952  20.575  0.00  0.00    +0.000 C 
BRANCH   9  10
ATOM     10  C   UNL     1       1.672   2.696  20.113  0.00  0.00    +0.000 C 
BRANCH  10  12
ATOM     11  O   UNL     1       2.880   2.410  22.173  0.00  0.00    +0.000 OA
ATOM     12  C   UNL     1       2.917   2.435  20.938  0.00  0.00    +0.000 C 
BRANCH  12  13
ATOM     13  C   UNL     1       4.195   2.224  20.145  0.00  0.00    +0.000 C 
ATOM     14  F   UNL     1       5.098   1.447  20.805  0.00  0.00    +0.000 F 
ATOM     15  F   UNL     1       3.968   1.608  18.954  0.00  0.00    +0.000 F 
ATOM     16  F   UNL     1       4.830   3.394  19.869  0.00  0.00    +0.000 F 
ENDBRANCH  12  13
ENDBRANCH  10  12
ENDBRANCH   9  10
ENDBRANCH   8   9
ENDBRANCH   7   8
ENDBRANCH   1   7
BRANCH   4  17
ATOM     17  O   UNL     1       6.251   6.273  15.951  0.00  0.00    +0.000 OA
BRANCH  17  18
ATOM     18  C   UNL     1       7.123   5.165  15.698  0.00  0.00    +0.000 C 
BRANCH  18  19
ATOM     19  C   UNL     1       7.022   4.758  14.258  0.00  0.00    +0.000 A 
ATOM     20  C   UNL     1       7.804   5.393  13.287  0.00  0.00    +0.000 A 
ATOM     21  C   UNL     1       7.710   5.008  11.949  0.00  0.00    +0.000 A 
ATOM     22  C   UNL     1       6.836   3.989  11.579  0.00  0.00    +0.000 A 
ATOM     23  C   UNL     1       6.056   3.346  12.541  0.00  0.00    +0.000 A 
ATOM     24  C   UNL     1       6.154   3.730  13.874  0.00  0.00    +0.000 A 
ENDBRANCH  18  19
ENDBRANCH  17  18
ENDBRANCH   4  17
TORSDOF 9
ENDMDL
MODEL 8
REMARK VINA RESULT:      -7.3      4.671      7.398
REMARK  Name = 
REMARK  9 active torsions:
REMARK  status: ('A' for Active; 'I' for Inactive)
REMARK    1  A    between atoms: C_2  and  C_3
REMARK    2  A    between atoms: C_2  and  C_21
REMARK    3  A    between atoms: C_3  and  C_4
REMARK    4  A    between atoms: C_4  and  C_5
REMARK    5  A    between atoms: C_5  and  O_6
REMARK    6  A    between atoms: O_6  and  C_7
REMARK    7  A    between atoms: C_10  and  O_11
REMARK    8  A    between atoms: O_11  and  C_12
REMARK    9  A    between atoms: C_12  and  C_13
REMARK                            x       y       z     vdW  Elec       q    Type
REMARK                         _______ _______ _______ _____ _____    ______ ____
ROOT
ATOM      1  C   UNL     1       3.526   5.093  18.069  0.00  0.00    +0.000 A 
ATOM      2  C   UNL     1       3.506   6.325  17.414  0.00  0.00    +0.000 A 
ATOM      3  C   UNL     1       3.013   7.455  18.050  0.00  0.00    +0.000 A 
ATOM      4  C   UNL     1       2.486   7.366  19.335  0.00  0.00    +0.000 A 
ATOM      5  C   UNL     1       2.547   6.151  20.019  0.00  0.00    +0.000 A 
ATOM      6  C   UNL     1       3.065   5.014  19.384  0.00  0.00    +0.000 A 
ENDROOT
BRANCH   1   7
ATOM      7  O   UNL     1       3.975   3.927  17.496  0.00  0.00    +0.000 OA
BRANCH   7   8
ATOM      8  C   UNL     1       4.479   4.089  16.165  0.00  0.00    +0.000 C 
BRANCH   8   9
ATOM      9  C   UNL     1       5.936   3.677  16.079  0.00  0.00    +0.000 C 
BRANCH   9  10
ATOM     10  C   UNL     1       6.872   4.876  16.163  0.00  0.00    +0.000 C 
BRANCH  10  12
ATOM     11  O   UNL     1       8.417   4.059  17.815  0.00  0.00    +0.000 OA
ATOM     12  C   UNL     1       7.599   4.927  17.493  0.00  0.00    +0.000 C 
BRANCH  12  13
ATOM     13  C   UNL     1       7.241   6.099  18.390  0.00  0.00    +0.000 C 
ATOM     14  F   UNL     1       6.552   7.072  17.730  0.00  0.00    +0.000 F 
ATOM     15  F   UNL     1       6.457   5.726  19.437  0.00  0.00    +0.000 F 
ATOM     16  F   UNL     1       8.340   6.702  18.916  0.00  0.00    +0.000 F 
ENDBRANCH  12  13
ENDBRANCH  10  12
ENDBRANCH   9  10
ENDBRANCH   8   9
ENDBRANCH   7   8
ENDBRANCH   1   7
BRANCH   4  17
ATOM     17  O   UNL     1       1.879   8.413  19.976  0.00  0.00    +0.000 OA
BRANCH  17  18
ATOM     18  C   UNL     1       0.913   8.003  20.952  0.00  0.00    +0.000 C 
BRANCH  18  19
ATOM     19  C   UNL     1       0.151   9.197  21.444  0.00  0.00    +0.000 A 
ATOM     20  C   UNL     1      -0.223   9.293  22.789  0.00  0.00    +0.000 A 
ATOM     21  C   UNL     1      -0.928  10.408  23.243  0.00  0.00    +0.000 A 
ATOM     22  C   UNL     1      -1.258  11.430  22.356  0.00  0.00    +0.000 A 
ATOM     23  C   UNL     1      -0.884  11.346  21.015  0.00  0.00    +0.000 A 
ATOM     24  C   UNL     1      -0.180  10.235  20.565  0.00  0.00    +0.000 A 
ENDBRANCH  18  19
ENDBRANCH  17  18
ENDBRANCH   4  17
TORSDOF 9
ENDMDL
MODEL 9
REMARK VINA RESULT:      -7.3      5.069      7.519
REMARK  Name = 
REMARK  9 active torsions:
REMARK  status: ('A' for Active; 'I' for Inactive)
REMARK    1  A    between atoms: C_2  and  C_3
REMARK    2  A    between atoms: C_2  and  C_21
REMARK    3  A    between atoms: C_3  and  C_4
REMARK    4  A    between atoms: C_4  and  C_5
REMARK    5  A    between atoms: C_5  and  O_6
REMARK    6  A    between atoms: O_6  and  C_7
REMARK    7  A    between atoms: C_10  and  O_11
REMARK    8  A    between atoms: O_11  and  C_12
REMARK    9  A    between atoms: C_12  and  C_13
REMARK                            x       y       z     vdW  Elec       q    Type
REMARK                         _______ _______ _______ _____ _____    ______ ____
ROOT
ATOM      1  C   UNL     1       3.051   6.879  18.328  0.00  0.00    +0.000 A 
ATOM      2  C   UNL     1       2.820   8.002  17.535  0.00  0.00    +0.000 A 
ATOM      3  C   UNL     1       2.027   9.042  17.998  0.00  0.00    +0.000 A 
ATOM      4  C   UNL     1       1.411   8.957  19.243  0.00  0.00    +0.000 A 
ATOM      5  C   UNL     1       1.676   7.862  20.066  0.00  0.00    +0.000 A 
ATOM      6  C   UNL     1       2.494   6.821  19.607  0.00  0.00    +0.000 A 
ENDROOT
BRANCH   1   7
ATOM      7  O   UNL     1       3.805   5.800  17.928  0.00  0.00    +0.000 OA
BRANCH   7   8
ATOM      8  C   UNL     1       3.087   4.561  17.915  0.00  0.00    +0.000 C 
BRANCH   8   9
ATOM      9  C   UNL     1       3.772   3.524  18.783  0.00  0.00    +0.000 C 
BRANCH   9  10
ATOM     10  C   UNL     1       2.871   2.326  19.057  0.00  0.00    +0.000 C 
BRANCH  10  12
ATOM     11  O   UNL     1       0.552   2.816  19.466  0.00  0.00    +0.000 OA
ATOM     12  C   UNL     1       1.690   2.701  19.932  0.00  0.00    +0.000 C 
BRANCH  12  13
ATOM     13  C   UNL     1       2.011   2.934  21.399  0.00  0.00    +0.000 C 
ATOM     14  F   UNL     1       1.023   2.496  22.227  0.00  0.00    +0.000 F 
ATOM     15  F   UNL     1       3.143   2.288  21.788  0.00  0.00    +0.000 F 
ATOM     16  F   UNL     1       2.191   4.251  21.685  0.00  0.00    +0.000 F 
ENDBRANCH  12  13
ENDBRANCH  10  12
ENDBRANCH   9  10
ENDBRANCH   8   9
ENDBRANCH   7   8
ENDBRANCH   1   7
BRANCH   4  17
ATOM     17  O   UNL     1       0.525   9.891  19.713  0.00  0.00    +0.000 OA
BRANCH  17  18
ATOM     18  C   UNL     1       0.237  10.930  18.769  0.00  0.00    +0.000 C 
BRANCH  18  19
ATOM     19  C   UNL     1      -1.200  10.849  18.350  0.00  0.00    +0.000 A 
ATOM     20  C   UNL     1      -2.156  11.690  18.931  0.00  0.00    +0.000 A 
ATOM     21  C   UNL     1      -3.491  11.614  18.534  0.00  0.00    +0.000 A 
ATOM     22  C   UNL     1      -3.874  10.701  17.555  0.00  0.00    +0.000 A 
ATOM     23  C   UNL     1      -2.928   9.862  16.966  0.00  0.00    +0.000 A 
ATOM     24  C   UNL     1      -1.598   9.941  17.361  0.00  0.00    +0.000 A 
ENDBRANCH  18  19
ENDBRANCH  17  18
ENDBRANCH   4  17
TORSDOF 9
ENDMDL
