MODEL 1
REMARK VINA RESULT:      -8.1      0.000      0.000
REMARK  Name = 
REMARK  4 active torsions:
REMARK  status: ('A' for Active; 'I' for Inactive)
REMARK    1  A    between atoms: C_1  and  C_2
REMARK    2  A    between atoms: C_5  and  C_6
REMARK    3  A    between atoms: C_7  and  C_8
REMARK    4  A    between atoms: C_14  and  C_15
REMARK                            x       y       z     vdW  Elec       q    Type
REMARK                         _______ _______ _______ _____ _____    ______ ____
ROOT
ATOM      1  C   UNL     1       1.453   8.795  19.292  0.00  0.00    +0.000 A 
ATOM      2  C   UNL     1       1.786   8.932  17.924  0.00  0.00    +0.000 A 
ATOM      3  C   UNL     1       2.717   8.066  17.293  0.00  0.00    +0.000 A 
ATOM      4  C   UNL     1       3.298   7.061  18.046  0.00  0.00    +0.000 A 
ATOM      5  C   UNL     1       2.984   6.966  19.405  0.00  0.00    +0.000 A 
ATOM      6  C   UNL     1       2.120   7.833  20.045  0.00  0.00    +0.000 A 
ATOM      7  C   UNL     1       3.557   5.692  19.962  0.00  0.00    +0.000 C 
ATOM      8  N   UNL     1       4.670   5.471  19.023  0.00  0.00    +0.000 NA
ATOM      9  C   UNL     1       5.419   4.248  19.070  0.00  0.00    +0.000 C 
ATOM     10  C   UNL     1       4.751   3.109  18.333  0.00  0.00    +0.000 C 
ATOM     11  C   UNL     1       4.081   3.565  17.039  0.00  0.00    +0.000 C 
ATOM     12  O   UNL     1       3.455   4.843  17.062  0.00  0.00    +0.000 OA
ATOM     13  C   UNL     1       4.206   5.885  17.696  0.00  0.00    +0.000 C 
ENDROOT
BRANCH   1  20
ATOM     14  C   UNL     1       0.941   9.335  22.526  0.00  0.00    +0.000 C 
ATOM     15  C   UNL     1       0.165   9.792  21.342  0.00  0.00    +0.000 A 
ATOM     16  N   UNL     1      -0.917  10.555  21.535  0.00  0.00    +0.000 NA
ATOM     17  O   UNL     1      -1.448  10.775  20.286  0.00  0.00    +0.000 OA
ATOM     18  C   UNL     1      -0.693  10.153  19.340  0.00  0.00    +0.000 A 
ATOM     19  C   UNL     1      -1.175  10.322  17.957  0.00  0.00    +0.000 C 
ATOM     20  C   UNL     1       0.371   9.522  19.947  0.00  0.00    +0.000 A 
ENDBRANCH   1  20
BRANCH   7  21
ATOM     21  C   UNL     1       2.456   4.616  20.057  0.00  0.00    +0.000 A 
ATOM     22  C   UNL     1       1.483   4.423  19.047  0.00  0.00    +0.000 A 
ATOM     23  C   UNL     1       0.509   3.433  19.148  0.00  0.00    +0.000 A 
ATOM     24  C   UNL     1       0.472   2.611  20.266  0.00  0.00    +0.000 A 
ATOM     25  C   UNL     1       1.410   2.795  21.283  0.00  0.00    +0.000 A 
ATOM     26  C   UNL     1       2.394   3.787  21.182  0.00  0.00    +0.000 A 
ENDBRANCH   7  21
TORSDOF 2
ENDMDL
MODEL 2
REMARK VINA RESULT:      -7.8      0.400      1.599
REMARK  Name = 
REMARK  4 active torsions:
REMARK  status: ('A' for Active; 'I' for Inactive)
REMARK    1  A    between atoms: C_1  and  C_2
REMARK    2  A    between atoms: C_5  and  C_6
REMARK    3  A    between atoms: C_7  and  C_8
REMARK    4  A    between atoms: C_14  and  C_15
REMARK                            x       y       z     vdW  Elec       q    Type
REMARK                         _______ _______ _______ _____ _____    ______ ____
ROOT
ATOM      1  C   UNL     1       1.487   8.792  19.289  0.00  0.00    +0.000 A 
ATOM      2  C   UNL     1       1.753   8.887  17.902  0.00  0.00    +0.000 A 
ATOM      3  C   UNL     1       2.653   8.001  17.254  0.00  0.00    +0.000 A 
ATOM      4  C   UNL     1       3.270   7.019  18.008  0.00  0.00    +0.000 A 
ATOM      5  C   UNL     1       3.022   6.966  19.383  0.00  0.00    +0.000 A 
ATOM      6  C   UNL     1       2.190   7.853  20.038  0.00  0.00    +0.000 A 
ATOM      7  C   UNL     1       3.622   5.709  19.950  0.00  0.00    +0.000 C 
ATOM      8  N   UNL     1       4.688   5.458  18.965  0.00  0.00    +0.000 NA
ATOM      9  C   UNL     1       5.440   4.236  19.013  0.00  0.00    +0.000 C 
ATOM     10  C   UNL     1       4.737   3.077  18.344  0.00  0.00    +0.000 C 
ATOM     11  C   UNL     1       4.006   3.494  17.071  0.00  0.00    +0.000 C 
ATOM     12  O   UNL     1       3.380   4.773  17.086  0.00  0.00    +0.000 OA
ATOM     13  C   UNL     1       4.161   5.833  17.651  0.00  0.00    +0.000 C 
ENDROOT
BRANCH   1  20
ATOM     14  C   UNL     1      -1.091  10.444  18.008  0.00  0.00    +0.000 C 
ATOM     15  C   UNL     1      -0.701  10.223  19.427  0.00  0.00    +0.000 A 
ATOM     16  N   UNL     1      -1.473  10.733  20.394  0.00  0.00    +0.000 NA
ATOM     17  O   UNL     1      -0.847  10.419  21.577  0.00  0.00    +0.000 OA
ATOM     18  C   UNL     1       0.295   9.719  21.332  0.00  0.00    +0.000 A 
ATOM     19  C   UNL     1       1.051   9.330  22.536  0.00  0.00    +0.000 C 
ATOM     20  C   UNL     1       0.437   9.539  19.973  0.00  0.00    +0.000 A 
ENDBRANCH   1  20
BRANCH   7  21
ATOM     21  C   UNL     1       2.528   4.637  20.130  0.00  0.00    +0.000 A 
ATOM     22  C   UNL     1       1.484   4.442  19.194  0.00  0.00    +0.000 A 
ATOM     23  C   UNL     1       0.516   3.455  19.372  0.00  0.00    +0.000 A 
ATOM     24  C   UNL     1       0.558   2.640  20.494  0.00  0.00    +0.000 A 
ATOM     25  C   UNL     1       1.567   2.827  21.440  0.00  0.00    +0.000 A 
ATOM     26  C   UNL     1       2.544   3.816  21.262  0.00  0.00    +0.000 A 
ENDBRANCH   7  21
TORSDOF 2
ENDMDL
MODEL 3
REMARK VINA RESULT:      -7.4      6.339     10.549
REMARK  Name = 
REMARK  4 active torsions:
REMARK  status: ('A' for Active; 'I' for Inactive)
REMARK    1  A    between atoms: C_1  and  C_2
REMARK    2  A    between atoms: C_5  and  C_6
REMARK    3  A    between atoms: C_7  and  C_8
REMARK    4  A    between atoms: C_14  and  C_15
REMARK                            x       y       z     vdW  Elec       q    Type
REMARK                         _______ _______ _______ _____ _____    ______ ____
ROOT
ATOM      1  C   UNL     1      -1.505  12.258  21.221  0.00  0.00    +0.000 A 
ATOM      2  C   UNL     1      -1.535  11.587  22.467  0.00  0.00    +0.000 A 
ATOM      3  C   UNL     1      -2.533  11.862  23.438  0.00  0.00    +0.000 A 
ATOM      4  C   UNL     1      -3.499  12.806  23.141  0.00  0.00    +0.000 A 
ATOM      5  C   UNL     1      -3.430  13.486  21.921  0.00  0.00    +0.000 A 
ATOM      6  C   UNL     1      -2.435  13.266  20.988  0.00  0.00    +0.000 A 
ATOM      7  C   UNL     1      -4.683  14.294  21.728  0.00  0.00    +0.000 C 
ATOM      8  N   UNL     1      -5.087  14.492  23.131  0.00  0.00    +0.000 NA
ATOM      9  C   UNL     1      -6.355  15.090  23.437  0.00  0.00    +0.000 C 
ATOM     10  C   UNL     1      -7.506  14.110  23.386  0.00  0.00    +0.000 C 
ATOM     11  C   UNL     1      -7.131  12.742  23.950  0.00  0.00    +0.000 C 
ATOM     12  O   UNL     1      -5.811  12.281  23.682  0.00  0.00    +0.000 OA
ATOM     13  C   UNL     1      -4.774  13.255  23.850  0.00  0.00    +0.000 C 
ENDROOT
BRANCH   1  20
ATOM     14  C   UNL     1       1.695  12.991  20.737  0.00  0.00    +0.000 C 
ATOM     15  C   UNL     1       0.764  12.169  19.918  0.00  0.00    +0.000 A 
ATOM     16  N   UNL     1       1.224  11.594  18.801  0.00  0.00    +0.000 NA
ATOM     17  O   UNL     1       0.145  10.954  18.237  0.00  0.00    +0.000 OA
ATOM     18  C   UNL     1      -0.962  11.136  19.007  0.00  0.00    +0.000 A 
ATOM     19  C   UNL     1      -2.184  10.491  18.494  0.00  0.00    +0.000 C 
ATOM     20  C   UNL     1      -0.630  11.889  20.114  0.00  0.00    +0.000 A 
ENDBRANCH   1  20
BRANCH   7  21
ATOM     21  C   UNL     1      -5.652  13.551  20.787  0.00  0.00    +0.000 A 
ATOM     22  C   UNL     1      -5.640  12.144  20.631  0.00  0.00    +0.000 A 
ATOM     23  C   UNL     1      -6.538  11.493  19.786  0.00  0.00    +0.000 A 
ATOM     24  C   UNL     1      -7.466  12.231  19.065  0.00  0.00    +0.000 A 
ATOM     25  C   UNL     1      -7.484  13.620  19.189  0.00  0.00    +0.000 A 
ATOM     26  C   UNL     1      -6.586  14.277  20.041  0.00  0.00    +0.000 A 
ENDBRANCH   7  21
TORSDOF 2
ENDMDL
MODEL 4
REMARK VINA RESULT:      -7.2      6.379     10.653
REMARK  Name = 
REMARK  4 active torsions:
REMARK  status: ('A' for Active; 'I' for Inactive)
REMARK    1  A    between atoms: C_1  and  C_2
REMARK    2  A    between atoms: C_5  and  C_6
REMARK    3  A    between atoms: C_7  and  C_8
REMARK    4  A    between atoms: C_14  and  C_15
REMARK                            x       y       z     vdW  Elec       q    Type
REMARK                         _______ _______ _______ _____ _____    ______ ____
ROOT
ATOM      1  C   UNL     1      -1.519  12.333  21.303  0.00  0.00    +0.000 A 
ATOM      2  C   UNL     1      -1.566  11.655  22.545  0.00  0.00    +0.000 A 
ATOM      3  C   UNL     1      -2.591  11.908  23.494  0.00  0.00    +0.000 A 
ATOM      4  C   UNL     1      -3.567  12.836  23.179  0.00  0.00    +0.000 A 
ATOM      5  C   UNL     1      -3.482  13.522  21.964  0.00  0.00    +0.000 A 
ATOM      6  C   UNL     1      -2.462  13.325  21.052  0.00  0.00    +0.000 A 
ATOM      7  C   UNL     1      -4.745  14.309  21.745  0.00  0.00    +0.000 C 
ATOM      8  N   UNL     1      -5.184  14.494  23.139  0.00  0.00    +0.000 NA
ATOM      9  C   UNL     1      -6.470  15.067  23.418  0.00  0.00    +0.000 C 
ATOM     10  C   UNL     1      -7.601  14.067  23.336  0.00  0.00    +0.000 C 
ATOM     11  C   UNL     1      -7.215  12.703  23.904  0.00  0.00    +0.000 C 
ATOM     12  O   UNL     1      -5.881  12.268  23.664  0.00  0.00    +0.000 OA
ATOM     13  C   UNL     1      -4.865  13.259  23.860  0.00  0.00    +0.000 C 
ENDROOT
BRANCH   1  20
ATOM     14  C   UNL     1      -2.079  10.454  18.625  0.00  0.00    +0.000 C 
ATOM     15  C   UNL     1      -0.860  11.204  19.035  0.00  0.00    +0.000 A 
ATOM     16  N   UNL     1       0.215  11.170  18.240  0.00  0.00    +0.000 NA
ATOM     17  O   UNL     1       1.185  11.896  18.890  0.00  0.00    +0.000 OA
ATOM     18  C   UNL     1       0.701  12.373  20.070  0.00  0.00    +0.000 A 
ATOM     19  C   UNL     1       1.662  13.169  20.854  0.00  0.00    +0.000 C 
ATOM     20  C   UNL     1      -0.613  11.983  20.215  0.00  0.00    +0.000 A 
ENDBRANCH   1  20
BRANCH   7  21
ATOM     21  C   UNL     1      -5.678  13.553  20.779  0.00  0.00    +0.000 A 
ATOM     22  C   UNL     1      -5.636  12.147  20.616  0.00  0.00    +0.000 A 
ATOM     23  C   UNL     1      -6.502  11.485  19.748  0.00  0.00    +0.000 A 
ATOM     24  C   UNL     1      -7.428  12.208  19.011  0.00  0.00    +0.000 A 
ATOM     25  C   UNL     1      -7.475  13.596  19.141  0.00  0.00    +0.000 A 
ATOM     26  C   UNL     1      -6.609  14.265  20.016  0.00  0.00    +0.000 A 
ENDBRANCH   7  21
TORSDOF 2
ENDMDL
MODEL 5
REMARK VINA RESULT:      -7.0      5.826      8.943
REMARK  Name = 
REMARK  4 active torsions:
REMARK  status: ('A' for Active; 'I' for Inactive)
REMARK    1  A    between atoms: C_1  and  C_2
REMARK    2  A    between atoms: C_5  and  C_6
REMARK    3  A    between atoms: C_7  and  C_8
REMARK    4  A    between atoms: C_14  and  C_15
REMARK                            x       y       z     vdW  Elec       q    Type
REMARK                         _______ _______ _______ _____ _____    ______ ____
ROOT
ATOM      1  C   UNL     1      -4.867  13.303  21.635  0.00  0.00    +0.000 A 
ATOM      2  C   UNL     1      -4.829  14.650  21.199  0.00  0.00    +0.000 A 
ATOM      3  C   UNL     1      -3.603  15.306  20.915  0.00  0.00    +0.000 A 
ATOM      4  C   UNL     1      -2.425  14.596  21.062  0.00  0.00    +0.000 A 
ATOM      5  C   UNL     1      -2.482  13.279  21.529  0.00  0.00    +0.000 A 
ATOM      6  C   UNL     1      -3.663  12.644  21.860  0.00  0.00    +0.000 A 
ATOM      7  C   UNL     1      -1.123  12.647  21.407  0.00  0.00    +0.000 C 
ATOM      8  N   UNL     1      -0.269  13.846  21.456  0.00  0.00    +0.000 NA
ATOM      9  C   UNL     1       1.139  13.737  21.203  0.00  0.00    +0.000 C 
ATOM     10  C   UNL     1       1.483  13.719  19.731  0.00  0.00    +0.000 C 
ATOM     11  C   UNL     1       0.616  14.677  18.918  0.00  0.00    +0.000 C 
ATOM     12  O   UNL     1      -0.746  14.796  19.315  0.00  0.00    +0.000 OA
ATOM     13  C   UNL     1      -0.969  14.906  20.726  0.00  0.00    +0.000 C 
ENDROOT
BRANCH   1  20
ATOM     14  C   UNL     1      -6.336  11.338  19.400  0.00  0.00    +0.000 C 
ATOM     15  C   UNL     1      -6.710  11.637  20.808  0.00  0.00    +0.000 A 
ATOM     16  N   UNL     1      -7.793  11.046  21.327  0.00  0.00    +0.000 NA
ATOM     17  O   UNL     1      -7.917  11.544  22.602  0.00  0.00    +0.000 OA
ATOM     18  C   UNL     1      -6.915  12.429  22.860  0.00  0.00    +0.000 A 
ATOM     19  C   UNL     1      -6.951  13.029  24.205  0.00  0.00    +0.000 C 
ATOM     20  C   UNL     1      -6.091  12.519  21.757  0.00  0.00    +0.000 A 
ENDBRANCH   1  20
BRANCH   7  21
ATOM     21  C   UNL     1      -1.065  11.759  20.147  0.00  0.00    +0.000 A 
ATOM     22  C   UNL     1      -0.051  10.794  19.936  0.00  0.00    +0.000 A 
ATOM     23  C   UNL     1      -0.030   9.992  18.796  0.00  0.00    +0.000 A 
ATOM     24  C   UNL     1      -1.016  10.137  17.831  0.00  0.00    +0.000 A 
ATOM     25  C   UNL     1      -2.015  11.095  18.009  0.00  0.00    +0.000 A 
ATOM     26  C   UNL     1      -2.041  11.900  19.156  0.00  0.00    +0.000 A 
ENDBRANCH   7  21
TORSDOF 2
ENDMDL
MODEL 6
REMARK VINA RESULT:      -7.0      9.136     10.618
REMARK  Name = 
REMARK  4 active torsions:
REMARK  status: ('A' for Active; 'I' for Inactive)
REMARK    1  A    between atoms: C_1  and  C_2
REMARK    2  A    between atoms: C_5  and  C_6
REMARK    3  A    between atoms: C_7  and  C_8
REMARK    4  A    between atoms: C_14  and  C_15
REMARK                            x       y       z     vdW  Elec       q    Type
REMARK                         _______ _______ _______ _____ _____    ______ ____
ROOT
ATOM      1  C   UNL     1       5.970  15.746  20.428  0.00  0.00    +0.000 A 
ATOM      2  C   UNL     1       5.959  16.749  19.430  0.00  0.00    +0.000 A 
ATOM      3  C   UNL     1       7.150  17.170  18.783  0.00  0.00    +0.000 A 
ATOM      4  C   UNL     1       8.343  16.569  19.141  0.00  0.00    +0.000 A 
ATOM      5  C   UNL     1       8.338  15.608  20.156  0.00  0.00    +0.000 A 
ATOM      6  C   UNL     1       7.196  15.224  20.831  0.00  0.00    +0.000 A 
ATOM      7  C   UNL     1       9.689  14.949  20.225  0.00  0.00    +0.000 C 
ATOM      8  N   UNL     1      10.531  16.016  19.659  0.00  0.00    +0.000 NA
ATOM      9  C   UNL     1      11.915  15.765  19.372  0.00  0.00    +0.000 C 
ATOM     10  C   UNL     1      12.134  15.074  18.046  0.00  0.00    +0.000 C 
ATOM     11  C   UNL     1      11.193  15.587  16.959  0.00  0.00    +0.000 C 
ATOM     12  O   UNL     1       9.867  15.911  17.365  0.00  0.00    +0.000 OA
ATOM     13  C   UNL     1       9.762  16.652  18.587  0.00  0.00    +0.000 C 
ENDROOT
BRANCH   1  20
ATOM     14  C   UNL     1       3.512  14.140  18.883  0.00  0.00    +0.000 C 
ATOM     15  C   UNL     1       3.722  14.408  20.331  0.00  0.00    +0.000 A 
ATOM     16  N   UNL     1       2.824  13.947  21.209  0.00  0.00    +0.000 NA
ATOM     17  O   UNL     1       3.247  14.384  22.442  0.00  0.00    +0.000 OA
ATOM     18  C   UNL     1       4.397  15.101  22.316  0.00  0.00    +0.000 A 
ATOM     19  C   UNL     1       4.942  15.622  23.582  0.00  0.00    +0.000 C 
ATOM     20  C   UNL     1       4.770  15.137  20.989  0.00  0.00    +0.000 A 
ENDBRANCH   1  20
BRANCH   7  21
ATOM     21  C   UNL     1       9.650  13.587  19.503  0.00  0.00    +0.000 A 
ATOM     22  C   UNL     1       8.762  13.311  18.435  0.00  0.00    +0.000 A 
ATOM     23  C   UNL     1       8.758  12.078  17.787  0.00  0.00    +0.000 A 
ATOM     24  C   UNL     1       9.634  11.081  18.192  0.00  0.00    +0.000 A 
ATOM     25  C   UNL     1      10.506  11.325  19.255  0.00  0.00    +0.000 A 
ATOM     26  C   UNL     1      10.515  12.565  19.906  0.00  0.00    +0.000 A 
ENDBRANCH   7  21
TORSDOF 2
ENDMDL
MODEL 7
REMARK VINA RESULT:      -7.0      5.381     10.551
REMARK  Name = 
REMARK  4 active torsions:
REMARK  status: ('A' for Active; 'I' for Inactive)
REMARK    1  A    between atoms: C_1  and  C_2
REMARK    2  A    between atoms: C_5  and  C_6
REMARK    3  A    between atoms: C_7  and  C_8
REMARK    4  A    between atoms: C_14  and  C_15
REMARK                            x       y       z     vdW  Elec       q    Type
REMARK                         _______ _______ _______ _____ _____    ______ ____
ROOT
ATOM      1  C   UNL     1      -1.605  12.034  21.454  0.00  0.00    +0.000 A 
ATOM      2  C   UNL     1      -1.739  11.530  22.770  0.00  0.00    +0.000 A 
ATOM      3  C   UNL     1      -2.780  11.964  23.631  0.00  0.00    +0.000 A 
ATOM      4  C   UNL     1      -3.685  12.896  23.155  0.00  0.00    +0.000 A 
ATOM      5  C   UNL     1      -3.513  13.408  21.865  0.00  0.00    +0.000 A 
ATOM      6  C   UNL     1      -2.475  13.035  21.034  0.00  0.00    +0.000 A 
ATOM      7  C   UNL     1      -4.716  14.229  21.490  0.00  0.00    +0.000 C 
ATOM      8  N   UNL     1      -5.194  14.621  22.827  0.00  0.00    +0.000 NA
ATOM      9  C   UNL     1      -6.452  15.298  22.971  0.00  0.00    +0.000 C 
ATOM     10  C   UNL     1      -7.638  14.361  22.971  0.00  0.00    +0.000 C 
ATOM     11  C   UNL     1      -7.358  13.065  23.727  0.00  0.00    +0.000 C 
ATOM     12  O   UNL     1      -6.045  12.528  23.606  0.00  0.00    +0.000 OA
ATOM     13  C   UNL     1      -4.979  13.478  23.717  0.00  0.00    +0.000 C 
ENDROOT
BRANCH   1  20
ATOM     14  C   UNL     1      -0.202   9.029  21.308  0.00  0.00    +0.000 C 
ATOM     15  C   UNL     1      -0.103  10.182  20.372  0.00  0.00    +0.000 A 
ATOM     16  N   UNL     1       0.644  10.054  19.269  0.00  0.00    +0.000 NA
ATOM     17  O   UNL     1       0.589  11.274  18.637  0.00  0.00    +0.000 OA
ATOM     18  C   UNL     1      -0.188  12.136  19.347  0.00  0.00    +0.000 A 
ATOM     19  C   UNL     1      -0.315  13.481  18.759  0.00  0.00    +0.000 C 
ATOM     20  C   UNL     1      -0.682  11.493  20.462  0.00  0.00    +0.000 A 
ENDBRANCH   1  20
BRANCH   7  21
ATOM     21  C   UNL     1      -5.658  13.404  20.590  0.00  0.00    +0.000 A 
ATOM     22  C   UNL     1      -5.740  11.993  20.656  0.00  0.00    +0.000 A 
ATOM     23  C   UNL     1      -6.612  11.271  19.843  0.00  0.00    +0.000 A 
ATOM     24  C   UNL     1      -7.420  11.938  18.934  0.00  0.00    +0.000 A 
ATOM     25  C   UNL     1      -7.343  13.328  18.838  0.00  0.00    +0.000 A 
ATOM     26  C   UNL     1      -6.470  14.057  19.657  0.00  0.00    +0.000 A 
ENDBRANCH   7  21
TORSDOF 2
ENDMDL
MODEL 8
REMARK VINA RESULT:      -6.9     10.434     12.083
REMARK  Name = 
REMARK  4 active torsions:
REMARK  status: ('A' for Active; 'I' for Inactive)
REMARK    1  A    between atoms: C_1  and  C_2
REMARK    2  A    between atoms: C_5  and  C_6
REMARK    3  A    between atoms: C_7  and  C_8
REMARK    4  A    between atoms: C_14  and  C_15
REMARK                            x       y       z     vdW  Elec       q    Type
REMARK                         _______ _______ _______ _____ _____    ______ ____
ROOT
ATOM      1  C   UNL     1       8.833  14.980  22.935  0.00  0.00    +0.000 A 
ATOM      2  C   UNL     1       8.026  16.043  22.466  0.00  0.00    +0.000 A 
ATOM      3  C   UNL     1       8.380  16.796  21.317  0.00  0.00    +0.000 A 
ATOM      4  C   UNL     1       9.542  16.465  20.643  0.00  0.00    +0.000 A 
ATOM      5  C   UNL     1      10.345  15.436  21.145  0.00  0.00    +0.000 A 
ATOM      6  C   UNL     1      10.040  14.728  22.291  0.00  0.00    +0.000 A 
ATOM      7  C   UNL     1      11.424  15.114  20.148  0.00  0.00    +0.000 C 
ATOM      8  N   UNL     1      11.518  16.401  19.437  0.00  0.00    +0.000 NA
ATOM      9  C   UNL     1      12.331  16.515  18.260  0.00  0.00    +0.000 C 
ATOM     10  C   UNL     1      11.639  16.028  17.007  0.00  0.00    +0.000 C 
ATOM     11  C   UNL     1      10.160  16.405  16.974  0.00  0.00    +0.000 C 
ATOM     12  O   UNL     1       9.464  16.363  18.215  0.00  0.00    +0.000 OA
ATOM     13  C   UNL     1      10.159  16.936  19.329  0.00  0.00    +0.000 C 
ENDROOT
BRANCH   1  20
ATOM     14  C   UNL     1       8.108  11.748  22.718  0.00  0.00    +0.000 C 
ATOM     15  C   UNL     1       8.154  12.644  23.905  0.00  0.00    +0.000 A 
ATOM     16  N   UNL     1       7.884  12.131  25.111  0.00  0.00    +0.000 NA
ATOM     17  O   UNL     1       7.952  13.186  25.991  0.00  0.00    +0.000 OA
ATOM     18  C   UNL     1       8.266  14.331  25.326  0.00  0.00    +0.000 A 
ATOM     19  C   UNL     1       8.365  15.532  26.175  0.00  0.00    +0.000 C 
ATOM     20  C   UNL     1       8.432  14.051  23.986  0.00  0.00    +0.000 A 
ENDBRANCH   1  20
BRANCH   7  21
ATOM     21  C   UNL     1      11.039  13.859  19.339  0.00  0.00    +0.000 A 
ATOM     22  C   UNL     1       9.696  13.466  19.127  0.00  0.00    +0.000 A 
ATOM     23  C   UNL     1       9.373  12.336  18.378  0.00  0.00    +0.000 A 
ATOM     24  C   UNL     1      10.383  11.561  17.827  0.00  0.00    +0.000 A 
ATOM     25  C   UNL     1      11.715  11.919  18.038  0.00  0.00    +0.000 A 
ATOM     26  C   UNL     1      12.043  13.057  18.787  0.00  0.00    +0.000 A 
ENDBRANCH   7  21
TORSDOF 2
ENDMDL
MODEL 9
REMARK VINA RESULT:      -6.9      6.506      9.144
REMARK  Name = 
REMARK  4 active torsions:
REMARK  status: ('A' for Active; 'I' for Inactive)
REMARK    1  A    between atoms: C_1  and  C_2
REMARK    2  A    between atoms: C_5  and  C_6
REMARK    3  A    between atoms: C_7  and  C_8
REMARK    4  A    between atoms: C_14  and  C_15
REMARK                            x       y       z     vdW  Elec       q    Type
REMARK                         _______ _______ _______ _____ _____    ______ ____
ROOT
ATOM      1  C   UNL     1      -1.641  11.658  18.746  0.00  0.00    +0.000 A 
ATOM      2  C   UNL     1      -1.161  10.935  19.864  0.00  0.00    +0.000 A 
ATOM      3  C   UNL     1       0.072  11.260  20.488  0.00  0.00    +0.000 A 
ATOM      4  C   UNL     1       0.807  12.319  19.985  0.00  0.00    +0.000 A 
ATOM      5  C   UNL     1       0.334  12.995  18.856  0.00  0.00    +0.000 A 
ATOM      6  C   UNL     1      -0.838  12.658  18.207  0.00  0.00    +0.000 A 
ATOM      7  C   UNL     1       1.172  14.222  18.622  0.00  0.00    +0.000 C 
ATOM      8  N   UNL     1       2.428  13.810  19.270  0.00  0.00    +0.000 NA
ATOM      9  C   UNL     1       3.495  14.755  19.439  0.00  0.00    +0.000 C 
ATOM     10  C   UNL     1       3.320  15.643  20.650  0.00  0.00    +0.000 C 
ATOM     11  C   UNL     1       2.749  14.888  21.848  0.00  0.00    +0.000 C 
ATOM     12  O   UNL     1       1.771  13.893  21.567  0.00  0.00    +0.000 OA
ATOM     13  C   UNL     1       2.068  13.034  20.459  0.00  0.00    +0.000 C 
ENDROOT
BRANCH   1  20
ATOM     14  C   UNL     1      -4.570  12.582  20.003  0.00  0.00    +0.000 C 
ATOM     15  C   UNL     1      -4.244  11.932  18.704  0.00  0.00    +0.000 A 
ATOM     16  N   UNL     1      -5.240  11.659  17.853  0.00  0.00    +0.000 NA
ATOM     17  O   UNL     1      -4.653  11.025  16.783  0.00  0.00    +0.000 OA
ATOM     18  C   UNL     1      -3.311  10.918  16.979  0.00  0.00    +0.000 A 
ATOM     19  C   UNL     1      -2.578  10.251  15.889  0.00  0.00    +0.000 C 
ATOM     20  C   UNL     1      -2.978  11.500  18.184  0.00  0.00    +0.000 A 
ENDBRANCH   1  20
BRANCH   7  21
ATOM     21  C   UNL     1       0.445  15.469  19.164  0.00  0.00    +0.000 A 
ATOM     22  C   UNL     1      -0.522  15.405  20.196  0.00  0.00    +0.000 A 
ATOM     23  C   UNL     1      -1.153  16.549  20.681  0.00  0.00    +0.000 A 
ATOM     24  C   UNL     1      -0.843  17.790  20.142  0.00  0.00    +0.000 A 
ATOM     25  C   UNL     1       0.094  17.875  19.111  0.00  0.00    +0.000 A 
ATOM     26  C   UNL     1       0.733  16.727  18.625  0.00  0.00    +0.000 A 
ENDBRANCH   7  21
TORSDOF 2
ENDMDL
