MODEL 1
REMARK VINA RESULT:      -6.3      0.000      0.000
REMARK  Name = 
REMARK  21 active torsions:
REMARK  status: ('A' for Active; 'I' for Inactive)
REMARK    1  A    between atoms: C_1  and  C_2
REMARK    2  A    between atoms: C_2  and  C_3
REMARK    3  A    between atoms: C_3  and  C_4
REMARK    4  A    between atoms: C_4  and  C_5
REMARK    5  A    between atoms: C_5  and  C_6
REMARK    6  A    between atoms: C_6  and  C_7
REMARK    7  A    between atoms: C_7  and  C_8
REMARK    8  A    between atoms: C_8  and  C_9
REMARK    9  A    between atoms: C_9  and  C_10
REMARK   10  A    between atoms: C_10  and  C_11
REMARK   11  A    between atoms: C_11  and  C_12
REMARK   12  A    between atoms: C_12  and  C_13
REMARK   13  A    between atoms: C_13  and  C_14
REMARK   14  A    between atoms: C_14  and  C_15
REMARK   15  A    between atoms: C_15  and  C_16
REMARK   16  A    between atoms: C_16  and  C_17
REMARK   17  A    between atoms: C_17  and  C_18
REMARK   18  A    between atoms: C_18  and  N_19
REMARK   19  A    between atoms: N_19  and  C_20
REMARK   20  A    between atoms: C_28  and  O_29
REMARK   21  A    between atoms: O_29  and  C_30
REMARK                            x       y       z     vdW  Elec       q    Type
REMARK                         _______ _______ _______ _____ _____    ______ ____
ROOT
ATOM      1  C   UNL     1       1.965   7.776  18.941  0.00  0.00    +0.000 C 
ENDROOT
BRANCH   1   2
ATOM      2  C   UNL     1       2.339   8.816  17.892  0.00  0.00    +0.000 C 
BRANCH   2   3
ATOM      3  C   UNL     1       1.586  10.102  18.149  0.00  0.00    +0.000 C 
BRANCH   3   4
ATOM      4  N   UNL     1       0.248  10.013  17.575  0.00  0.00    +0.000 NA
ATOM      5  H   UNL     1       0.083   9.083  17.211  0.00  0.00    +0.000 HD
BRANCH   4   6
ATOM      6  C   UNL     1      -0.761  10.403  18.543  0.00  0.00    +0.000 C 
ATOM      7  C   UNL     1      -1.510  11.608  18.012  0.00  0.00    +0.000 C 
ATOM      8  C   UNL     1      -2.612  11.980  18.982  0.00  0.00    +0.000 C 
ATOM      9  C   UNL     1      -2.215  12.073  20.443  0.00  0.00    +0.000 A 
ATOM     10  C   UNL     1      -0.999  11.463  20.846  0.00  0.00    +0.000 A 
ATOM     11  C   UNL     1      -0.573  11.552  22.174  0.00  0.00    +0.000 A 
ATOM     12  C   UNL     1      -1.317  12.242  23.108  0.00  0.00    +0.000 A 
ATOM     13  C   UNL     1      -2.528  12.845  22.723  0.00  0.00    +0.000 A 
ATOM     14  C   UNL     1      -2.991  12.741  21.404  0.00  0.00    +0.000 A 
ATOM     15  C   UNL     1      -0.093  10.789  19.869  0.00  0.00    +0.000 C 
BRANCH  14  16
ATOM     16  O   UNL     1      -4.185  13.406  21.232  0.00  0.00    +0.000 OA
ATOM     17  C   UNL     1      -4.580  14.391  22.178  0.00  0.00    +0.000 C 
ENDBRANCH  14  16
ENDBRANCH   4   6
ENDBRANCH   3   4
ENDBRANCH   2   3
ENDBRANCH   1   2
BRANCH   1  18
ATOM     18  C   UNL     1       2.460   6.411  18.522  0.00  0.00    +0.000 C 
BRANCH  18  19
ATOM     19  C   UNL     1       2.940   5.642  19.739  0.00  0.00    +0.000 C 
BRANCH  19  20
ATOM     20  C   UNL     1       1.794   5.459  20.715  0.00  0.00    +0.000 C 
BRANCH  20  21
ATOM     21  C   UNL     1       0.943   4.275  20.296  0.00  0.00    +0.000 C 
BRANCH  21  22
ATOM     22  C   UNL     1       1.836   3.107  19.920  0.00  0.00    +0.000 C 
BRANCH  22  23
ATOM     23  C   UNL     1       1.327   2.459  18.648  0.00  0.00    +0.000 C 
BRANCH  23  24
ATOM     24  C   UNL     1       2.447   2.374  17.628  0.00  0.00    +0.000 C 
BRANCH  24  25
ATOM     25  C   UNL     1       3.781   2.223  18.336  0.00  0.00    +0.000 C 
BRANCH  25  26
ATOM     26  C   UNL     1       4.725   3.326  17.899  0.00  0.00    +0.000 C 
BRANCH  26  27
ATOM     27  C   UNL     1       4.264   3.907  16.575  0.00  0.00    +0.000 C 
BRANCH  27  28
ATOM     28  C   UNL     1       5.400   4.675  15.922  0.00  0.00    +0.000 C 
BRANCH  28  29
ATOM     29  C   UNL     1       5.125   6.169  15.991  0.00  0.00    +0.000 C 
BRANCH  29  30
ATOM     30  C   UNL     1       5.841   6.776  17.187  0.00  0.00    +0.000 C 
BRANCH  30  32
ATOM     31  C   UNL     1       7.714   6.231  18.738  0.00  0.00    +0.000 C 
ATOM     32  C   UNL     1       7.257   6.228  17.296  0.00  0.00    +0.000 C 
ENDBRANCH  30  32
ENDBRANCH  29  30
ENDBRANCH  28  29
ENDBRANCH  27  28
ENDBRANCH  26  27
ENDBRANCH  25  26
ENDBRANCH  24  25
ENDBRANCH  23  24
ENDBRANCH  22  23
ENDBRANCH  21  22
ENDBRANCH  20  21
ENDBRANCH  19  20
ENDBRANCH  18  19
ENDBRANCH   1  18
TORSDOF 19
ENDMDL
MODEL 2
REMARK VINA RESULT:      -6.2      1.348      2.413
REMARK  Name = 
REMARK  21 active torsions:
REMARK  status: ('A' for Active; 'I' for Inactive)
REMARK    1  A    between atoms: C_1  and  C_2
REMARK    2  A    between atoms: C_2  and  C_3
REMARK    3  A    between atoms: C_3  and  C_4
REMARK    4  A    between atoms: C_4  and  C_5
REMARK    5  A    between atoms: C_5  and  C_6
REMARK    6  A    between atoms: C_6  and  C_7
REMARK    7  A    between atoms: C_7  and  C_8
REMARK    8  A    between atoms: C_8  and  C_9
REMARK    9  A    between atoms: C_9  and  C_10
REMARK   10  A    between atoms: C_10  and  C_11
REMARK   11  A    between atoms: C_11  and  C_12
REMARK   12  A    between atoms: C_12  and  C_13
REMARK   13  A    between atoms: C_13  and  C_14
REMARK   14  A    between atoms: C_14  and  C_15
REMARK   15  A    between atoms: C_15  and  C_16
REMARK   16  A    between atoms: C_16  and  C_17
REMARK   17  A    between atoms: C_17  and  C_18
REMARK   18  A    between atoms: C_18  and  N_19
REMARK   19  A    between atoms: N_19  and  C_20
REMARK   20  A    between atoms: C_28  and  O_29
REMARK   21  A    between atoms: O_29  and  C_30
REMARK                            x       y       z     vdW  Elec       q    Type
REMARK                         _______ _______ _______ _____ _____    ______ ____
ROOT
ATOM      1  C   UNL     1       2.730   8.019  17.864  0.00  0.00    +0.000 C 
ENDROOT
BRANCH   1   2
ATOM      2  C   UNL     1       2.199   9.446  17.811  0.00  0.00    +0.000 C 
BRANCH   2   3
ATOM      3  C   UNL     1       1.023   9.594  18.749  0.00  0.00    +0.000 C 
BRANCH   3   4
ATOM      4  N   UNL     1       1.062  10.907  19.383  0.00  0.00    +0.000 NA
ATOM      5  H   UNL     1       1.819  11.460  19.001  0.00  0.00    +0.000 HD
BRANCH   4   6
ATOM      6  C   UNL     1      -0.218  11.583  19.262  0.00  0.00    +0.000 C 
ATOM      7  C   UNL     1      -0.900  11.589  20.615  0.00  0.00    +0.000 C 
ATOM      8  C   UNL     1      -2.203  12.353  20.515  0.00  0.00    +0.000 C 
ATOM      9  C   UNL     1      -3.105  11.990  19.352  0.00  0.00    +0.000 A 
ATOM     10  C   UNL     1      -2.540  11.273  18.265  0.00  0.00    +0.000 A 
ATOM     11  C   UNL     1      -3.340  10.885  17.186  0.00  0.00    +0.000 A 
ATOM     12  C   UNL     1      -4.687  11.179  17.165  0.00  0.00    +0.000 A 
ATOM     13  C   UNL     1      -5.258  11.894  18.233  0.00  0.00    +0.000 A 
ATOM     14  C   UNL     1      -4.469  12.321  19.311  0.00  0.00    +0.000 A 
ATOM     15  C   UNL     1      -1.113  10.834  18.267  0.00  0.00    +0.000 C 
BRANCH  14  16
ATOM     16  O   UNL     1      -5.218  12.994  20.251  0.00  0.00    +0.000 OA
ATOM     17  C   UNL     1      -6.397  12.392  20.768  0.00  0.00    +0.000 C 
ENDBRANCH  14  16
ENDBRANCH   4   6
ENDBRANCH   3   4
ENDBRANCH   2   3
ENDBRANCH   1   2
BRANCH   1  18
ATOM     18  C   UNL     1       2.418   7.395  19.206  0.00  0.00    +0.000 C 
BRANCH  18  19
ATOM     19  C   UNL     1       2.179   5.907  19.038  0.00  0.00    +0.000 C 
BRANCH  19  20
ATOM     20  C   UNL     1       2.253   5.220  20.388  0.00  0.00    +0.000 C 
BRANCH  20  21
ATOM     21  C   UNL     1       1.053   4.309  20.570  0.00  0.00    +0.000 C 
BRANCH  21  22
ATOM     22  C   UNL     1       1.008   3.287  19.450  0.00  0.00    +0.000 C 
BRANCH  22  23
ATOM     23  C   UNL     1       2.101   2.255  19.651  0.00  0.00    +0.000 C 
BRANCH  23  24
ATOM     24  C   UNL     1       2.596   1.758  18.306  0.00  0.00    +0.000 C 
BRANCH  24  25
ATOM     25  C   UNL     1       2.886   2.936  17.394  0.00  0.00    +0.000 C 
BRANCH  25  26
ATOM     26  C   UNL     1       4.312   3.410  17.602  0.00  0.00    +0.000 C 
BRANCH  26  27
ATOM     27  C   UNL     1       4.694   4.392  16.511  0.00  0.00    +0.000 C 
BRANCH  27  28
ATOM     28  C   UNL     1       5.987   3.952  15.846  0.00  0.00    +0.000 C 
BRANCH  28  29
ATOM     29  C   UNL     1       7.141   4.816  16.328  0.00  0.00    +0.000 C 
BRANCH  29  30
ATOM     30  C   UNL     1       6.639   6.207  16.682  0.00  0.00    +0.000 C 
BRANCH  30  32
ATOM     31  C   UNL     1       7.689   5.697  18.884  0.00  0.00    +0.000 C 
ATOM     32  C   UNL     1       7.423   6.775  17.857  0.00  0.00    +0.000 C 
ENDBRANCH  30  32
ENDBRANCH  29  30
ENDBRANCH  28  29
ENDBRANCH  27  28
ENDBRANCH  26  27
ENDBRANCH  25  26
ENDBRANCH  24  25
ENDBRANCH  23  24
ENDBRANCH  22  23
ENDBRANCH  21  22
ENDBRANCH  20  21
ENDBRANCH  19  20
ENDBRANCH  18  19
ENDBRANCH   1  18
TORSDOF 19
ENDMDL
MODEL 3
REMARK VINA RESULT:      -6.0      1.039      1.225
REMARK  Name = 
REMARK  21 active torsions:
REMARK  status: ('A' for Active; 'I' for Inactive)
REMARK    1  A    between atoms: C_1  and  C_2
REMARK    2  A    between atoms: C_2  and  C_3
REMARK    3  A    between atoms: C_3  and  C_4
REMARK    4  A    between atoms: C_4  and  C_5
REMARK    5  A    between atoms: C_5  and  C_6
REMARK    6  A    between atoms: C_6  and  C_7
REMARK    7  A    between atoms: C_7  and  C_8
REMARK    8  A    between atoms: C_8  and  C_9
REMARK    9  A    between atoms: C_9  and  C_10
REMARK   10  A    between atoms: C_10  and  C_11
REMARK   11  A    between atoms: C_11  and  C_12
REMARK   12  A    between atoms: C_12  and  C_13
REMARK   13  A    between atoms: C_13  and  C_14
REMARK   14  A    between atoms: C_14  and  C_15
REMARK   15  A    between atoms: C_15  and  C_16
REMARK   16  A    between atoms: C_16  and  C_17
REMARK   17  A    between atoms: C_17  and  C_18
REMARK   18  A    between atoms: C_18  and  N_19
REMARK   19  A    between atoms: N_19  and  C_20
REMARK   20  A    between atoms: C_28  and  O_29
REMARK   21  A    between atoms: O_29  and  C_30
REMARK                            x       y       z     vdW  Elec       q    Type
REMARK                         _______ _______ _______ _____ _____    ______ ____
ROOT
ATOM      1  C   UNL     1       2.030   7.096  18.284  0.00  0.00    +0.000 C 
ENDROOT
BRANCH   1   2
ATOM      2  C   UNL     1       2.518   8.341  17.553  0.00  0.00    +0.000 C 
BRANCH   2   3
ATOM      3  C   UNL     1       1.906   9.577  18.172  0.00  0.00    +0.000 C 
BRANCH   3   4
ATOM      4  N   UNL     1       0.629   9.869  17.527  0.00  0.00    +0.000 NA
ATOM      5  H   UNL     1       0.291   9.054  17.032  0.00  0.00    +0.000 HD
BRANCH   4   6
ATOM      6  C   UNL     1      -0.340  10.359  18.491  0.00  0.00    +0.000 C 
ATOM      7  C   UNL     1      -0.392  11.871  18.409  0.00  0.00    +0.000 C 
ATOM      8  C   UNL     1      -1.451  12.388  19.359  0.00  0.00    +0.000 C 
ATOM      9  C   UNL     1      -1.417  11.829  20.769  0.00  0.00    +0.000 A 
ATOM     10  C   UNL     1      -0.682  10.637  20.998  0.00  0.00    +0.000 A 
ATOM     11  C   UNL     1      -0.592  10.103  22.287  0.00  0.00    +0.000 A 
ATOM     12  C   UNL     1      -1.199  10.729  23.354  0.00  0.00    +0.000 A 
ATOM     13  C   UNL     1      -1.935  11.909  23.139  0.00  0.00    +0.000 A 
ATOM     14  C   UNL     1      -2.067  12.445  21.850  0.00  0.00    +0.000 A 
ATOM     15  C   UNL     1       0.084   9.961  19.909  0.00  0.00    +0.000 C 
BRANCH  14  16
ATOM     16  O   UNL     1      -2.815  13.602  21.857  0.00  0.00    +0.000 OA
ATOM     17  C   UNL     1      -3.350  14.082  23.082  0.00  0.00    +0.000 C 
ENDBRANCH  14  16
ENDBRANCH   4   6
ENDBRANCH   3   4
ENDBRANCH   2   3
ENDBRANCH   1   2
BRANCH   1  18
ATOM     18  C   UNL     1       2.541   7.093  19.707  0.00  0.00    +0.000 C 
BRANCH  18  19
ATOM     19  C   UNL     1       1.866   5.985  20.493  0.00  0.00    +0.000 C 
BRANCH  19  20
ATOM     20  C   UNL     1       1.454   4.867  19.553  0.00  0.00    +0.000 C 
BRANCH  20  21
ATOM     21  C   UNL     1       0.858   3.720  20.346  0.00  0.00    +0.000 C 
BRANCH  21  22
ATOM     22  C   UNL     1       1.686   2.466  20.141  0.00  0.00    +0.000 C 
BRANCH  22  23
ATOM     23  C   UNL     1       3.063   2.654  20.749  0.00  0.00    +0.000 C 
BRANCH  23  24
ATOM     24  C   UNL     1       4.128   2.445  19.690  0.00  0.00    +0.000 C 
BRANCH  24  25
ATOM     25  C   UNL     1       4.818   3.761  19.384  0.00  0.00    +0.000 C 
BRANCH  25  26
ATOM     26  C   UNL     1       5.325   3.758  17.955  0.00  0.00    +0.000 C 
BRANCH  26  27
ATOM     27  C   UNL     1       4.368   4.528  17.065  0.00  0.00    +0.000 C 
BRANCH  27  28
ATOM     28  C   UNL     1       5.080   4.976  15.801  0.00  0.00    +0.000 C 
BRANCH  28  29
ATOM     29  C   UNL     1       5.283   6.483  15.825  0.00  0.00    +0.000 C 
BRANCH  29  30
ATOM     30  C   UNL     1       5.799   6.918  17.187  0.00  0.00    +0.000 C 
BRANCH  30  32
ATOM     31  C   UNL     1       7.750   6.339  18.627  0.00  0.00    +0.000 C 
ATOM     32  C   UNL     1       7.315   6.790  17.250  0.00  0.00    +0.000 C 
ENDBRANCH  30  32
ENDBRANCH  29  30
ENDBRANCH  28  29
ENDBRANCH  27  28
ENDBRANCH  26  27
ENDBRANCH  25  26
ENDBRANCH  24  25
ENDBRANCH  23  24
ENDBRANCH  22  23
ENDBRANCH  21  22
ENDBRANCH  20  21
ENDBRANCH  19  20
ENDBRANCH  18  19
ENDBRANCH   1  18
TORSDOF 19
ENDMDL
MODEL 4
REMARK VINA RESULT:      -5.9      1.782      3.410
REMARK  Name = 
REMARK  21 active torsions:
REMARK  status: ('A' for Active; 'I' for Inactive)
REMARK    1  A    between atoms: C_1  and  C_2
REMARK    2  A    between atoms: C_2  and  C_3
REMARK    3  A    between atoms: C_3  and  C_4
REMARK    4  A    between atoms: C_4  and  C_5
REMARK    5  A    between atoms: C_5  and  C_6
REMARK    6  A    between atoms: C_6  and  C_7
REMARK    7  A    between atoms: C_7  and  C_8
REMARK    8  A    between atoms: C_8  and  C_9
REMARK    9  A    between atoms: C_9  and  C_10
REMARK   10  A    between atoms: C_10  and  C_11
REMARK   11  A    between atoms: C_11  and  C_12
REMARK   12  A    between atoms: C_12  and  C_13
REMARK   13  A    between atoms: C_13  and  C_14
REMARK   14  A    between atoms: C_14  and  C_15
REMARK   15  A    between atoms: C_15  and  C_16
REMARK   16  A    between atoms: C_16  and  C_17
REMARK   17  A    between atoms: C_17  and  C_18
REMARK   18  A    between atoms: C_18  and  N_19
REMARK   19  A    between atoms: N_19  and  C_20
REMARK   20  A    between atoms: C_28  and  O_29
REMARK   21  A    between atoms: O_29  and  C_30
REMARK                            x       y       z     vdW  Elec       q    Type
REMARK                         _______ _______ _______ _____ _____    ______ ____
ROOT
ATOM      1  C   UNL     1       2.357   4.600  20.639  0.00  0.00    +0.000 C 
ENDROOT
BRANCH   1   2
ATOM      2  C   UNL     1       1.403   5.785  20.729  0.00  0.00    +0.000 C 
BRANCH   2   3
ATOM      3  C   UNL     1       2.128   7.060  20.361  0.00  0.00    +0.000 C 
BRANCH   3   4
ATOM      4  N   UNL     1       1.899   8.071  21.387  0.00  0.00    +0.000 NA
ATOM      5  H   UNL     1       2.699   8.686  21.460  0.00  0.00    +0.000 HD
BRANCH   4   6
ATOM      6  C   UNL     1       0.672   8.805  21.130  0.00  0.00    +0.000 C 
ATOM      7  C   UNL     1       0.894   9.735  19.955  0.00  0.00    +0.000 C 
ATOM      8  C   UNL     1      -0.400  10.452  19.634  0.00  0.00    +0.000 C 
ATOM      9  C   UNL     1      -1.129  11.077  20.808  0.00  0.00    +0.000 A 
ATOM     10  C   UNL     1      -0.783  10.646  22.115  0.00  0.00    +0.000 A 
ATOM     11  C   UNL     1      -1.402  11.218  23.231  0.00  0.00    +0.000 A 
ATOM     12  C   UNL     1      -2.345  12.213  23.082  0.00  0.00    +0.000 A 
ATOM     13  C   UNL     1      -2.701  12.643  21.791  0.00  0.00    +0.000 A 
ATOM     14  C   UNL     1      -2.117  12.063  20.657  0.00  0.00    +0.000 A 
ATOM     15  C   UNL     1       0.300   9.647  22.356  0.00  0.00    +0.000 C 
BRANCH  14  16
ATOM     16  O   UNL     1      -2.593  12.630  19.495  0.00  0.00    +0.000 OA
ATOM     17  C   UNL     1      -3.672  12.013  18.806  0.00  0.00    +0.000 C 
ENDBRANCH  14  16
ENDBRANCH   4   6
ENDBRANCH   3   4
ENDBRANCH   2   3
ENDBRANCH   1   2
BRANCH   1  18
ATOM     18  C   UNL     1       1.600   3.306  20.838  0.00  0.00    +0.000 C 
BRANCH  18  19
ATOM     19  C   UNL     1       0.671   3.068  19.662  0.00  0.00    +0.000 C 
BRANCH  19  20
ATOM     20  C   UNL     1       1.369   2.215  18.620  0.00  0.00    +0.000 C 
BRANCH  20  21
ATOM     21  C   UNL     1       2.826   2.029  18.998  0.00  0.00    +0.000 C 
BRANCH  21  22
ATOM     22  C   UNL     1       3.696   2.134  17.760  0.00  0.00    +0.000 C 
BRANCH  22  23
ATOM     23  C   UNL     1       3.594   3.529  17.174  0.00  0.00    +0.000 C 
BRANCH  23  24
ATOM     24  C   UNL     1       4.120   4.546  18.169  0.00  0.00    +0.000 C 
BRANCH  24  25
ATOM     25  C   UNL     1       5.625   4.407  18.304  0.00  0.00    +0.000 C 
BRANCH  25  26
ATOM     26  C   UNL     1       6.269   5.780  18.333  0.00  0.00    +0.000 C 
BRANCH  26  27
ATOM     27  C   UNL     1       6.382   6.327  16.923  0.00  0.00    +0.000 C 
BRANCH  27  28
ATOM     28  C   UNL     1       6.879   5.242  15.983  0.00  0.00    +0.000 C 
BRANCH  28  29
ATOM     29  C   UNL     1       5.978   5.160  14.761  0.00  0.00    +0.000 C 
BRANCH  29  30
ATOM     30  C   UNL     1       5.960   3.739  14.221  0.00  0.00    +0.000 C 
BRANCH  30  32
ATOM     31  C   UNL     1       5.082   3.152  11.963  0.00  0.00    +0.000 C 
ATOM     32  C   UNL     1       6.252   3.732  12.726  0.00  0.00    +0.000 C 
ENDBRANCH  30  32
ENDBRANCH  29  30
ENDBRANCH  28  29
ENDBRANCH  27  28
ENDBRANCH  26  27
ENDBRANCH  25  26
ENDBRANCH  24  25
ENDBRANCH  23  24
ENDBRANCH  22  23
ENDBRANCH  21  22
ENDBRANCH  20  21
ENDBRANCH  19  20
ENDBRANCH  18  19
ENDBRANCH   1  18
TORSDOF 19
ENDMDL
MODEL 5
REMARK VINA RESULT:      -5.8      2.317      3.981
REMARK  Name = 
REMARK  21 active torsions:
REMARK  status: ('A' for Active; 'I' for Inactive)
REMARK    1  A    between atoms: C_1  and  C_2
REMARK    2  A    between atoms: C_2  and  C_3
REMARK    3  A    between atoms: C_3  and  C_4
REMARK    4  A    between atoms: C_4  and  C_5
REMARK    5  A    between atoms: C_5  and  C_6
REMARK    6  A    between atoms: C_6  and  C_7
REMARK    7  A    between atoms: C_7  and  C_8
REMARK    8  A    between atoms: C_8  and  C_9
REMARK    9  A    between atoms: C_9  and  C_10
REMARK   10  A    between atoms: C_10  and  C_11
REMARK   11  A    between atoms: C_11  and  C_12
REMARK   12  A    between atoms: C_12  and  C_13
REMARK   13  A    between atoms: C_13  and  C_14
REMARK   14  A    between atoms: C_14  and  C_15
REMARK   15  A    between atoms: C_15  and  C_16
REMARK   16  A    between atoms: C_16  and  C_17
REMARK   17  A    between atoms: C_17  and  C_18
REMARK   18  A    between atoms: C_18  and  N_19
REMARK   19  A    between atoms: N_19  and  C_20
REMARK   20  A    between atoms: C_28  and  O_29
REMARK   21  A    between atoms: O_29  and  C_30
REMARK                            x       y       z     vdW  Elec       q    Type
REMARK                         _______ _______ _______ _____ _____    ______ ____
ROOT
ATOM      1  C   UNL     1       2.515   5.054  20.752  0.00  0.00    +0.000 C 
ENDROOT
BRANCH   1   2
ATOM      2  C   UNL     1       1.239   5.887  20.764  0.00  0.00    +0.000 C 
BRANCH   2   3
ATOM      3  C   UNL     1       1.559   7.326  20.429  0.00  0.00    +0.000 C 
BRANCH   3   4
ATOM      4  N   UNL     1       1.904   8.051  21.647  0.00  0.00    +0.000 NA
ATOM      5  H   UNL     1       2.908   8.152  21.724  0.00  0.00    +0.000 HD
BRANCH   4   6
ATOM      6  C   UNL     1       1.224   9.332  21.701  0.00  0.00    +0.000 C 
ATOM      7  C   UNL     1      -0.033   9.186  22.534  0.00  0.00    +0.000 C 
ATOM      8  C   UNL     1      -0.712  10.534  22.656  0.00  0.00    +0.000 C 
ATOM      9  C   UNL     1      -0.894  11.312  21.367  0.00  0.00    +0.000 A 
ATOM     10  C   UNL     1      -0.115  10.932  20.242  0.00  0.00    +0.000 A 
ATOM     11  C   UNL     1      -0.272  11.596  19.022  0.00  0.00    +0.000 A 
ATOM     12  C   UNL     1      -1.190  12.617  18.887  0.00  0.00    +0.000 A 
ATOM     13  C   UNL     1      -1.963  13.006  19.996  0.00  0.00    +0.000 A 
ATOM     14  C   UNL     1      -1.800  12.376  21.238  0.00  0.00    +0.000 A 
ATOM     15  C   UNL     1       0.824   9.772  20.288  0.00  0.00    +0.000 C 
BRANCH  14  16
ATOM     16  O   UNL     1      -2.654  12.896  22.186  0.00  0.00    +0.000 OA
ATOM     17  C   UNL     1      -2.146  13.781  23.175  0.00  0.00    +0.000 C 
ENDBRANCH  14  16
ENDBRANCH   4   6
ENDBRANCH   3   4
ENDBRANCH   2   3
ENDBRANCH   1   2
BRANCH   1  18
ATOM     18  C   UNL     1       2.214   3.633  21.172  0.00  0.00    +0.000 C 
BRANCH  18  19
ATOM     19  C   UNL     1       1.052   3.092  20.359  0.00  0.00    +0.000 C 
BRANCH  19  20
ATOM     20  C   UNL     1       1.570   2.465  19.078  0.00  0.00    +0.000 C 
BRANCH  20  21
ATOM     21  C   UNL     1       1.715   3.527  18.005  0.00  0.00    +0.000 C 
BRANCH  21  22
ATOM     22  C   UNL     1       2.812   3.132  17.034  0.00  0.00    +0.000 C 
BRANCH  22  23
ATOM     23  C   UNL     1       4.116   3.794  17.434  0.00  0.00    +0.000 C 
BRANCH  23  24
ATOM     24  C   UNL     1       4.080   5.267  17.073  0.00  0.00    +0.000 C 
BRANCH  24  25
ATOM     25  C   UNL     1       5.475   5.748  16.720  0.00  0.00    +0.000 C 
BRANCH  25  26
ATOM     26  C   UNL     1       6.356   4.564  16.369  0.00  0.00    +0.000 C 
BRANCH  26  27
ATOM     27  C   UNL     1       6.787   4.653  14.918  0.00  0.00    +0.000 C 
BRANCH  27  28
ATOM     28  C   UNL     1       5.636   4.255  14.009  0.00  0.00    +0.000 C 
BRANCH  28  29
ATOM     29  C   UNL     1       6.174   3.675  12.711  0.00  0.00    +0.000 C 
BRANCH  29  30
ATOM     30  C   UNL     1       5.130   2.775  12.069  0.00  0.00    +0.000 C 
BRANCH  30  32
ATOM     31  C   UNL     1       7.295   1.787  11.325  0.00  0.00    +0.000 C 
ATOM     32  C   UNL     1       5.793   1.767  11.140  0.00  0.00    +0.000 C 
ENDBRANCH  30  32
ENDBRANCH  29  30
ENDBRANCH  28  29
ENDBRANCH  27  28
ENDBRANCH  26  27
ENDBRANCH  25  26
ENDBRANCH  24  25
ENDBRANCH  23  24
ENDBRANCH  22  23
ENDBRANCH  21  22
ENDBRANCH  20  21
ENDBRANCH  19  20
ENDBRANCH  18  19
ENDBRANCH   1  18
TORSDOF 19
ENDMDL
MODEL 6
REMARK VINA RESULT:      -5.7      5.099      7.933
REMARK  Name = 
REMARK  21 active torsions:
REMARK  status: ('A' for Active; 'I' for Inactive)
REMARK    1  A    between atoms: C_1  and  C_2
REMARK    2  A    between atoms: C_2  and  C_3
REMARK    3  A    between atoms: C_3  and  C_4
REMARK    4  A    between atoms: C_4  and  C_5
REMARK    5  A    between atoms: C_5  and  C_6
REMARK    6  A    between atoms: C_6  and  C_7
REMARK    7  A    between atoms: C_7  and  C_8
REMARK    8  A    between atoms: C_8  and  C_9
REMARK    9  A    between atoms: C_9  and  C_10
REMARK   10  A    between atoms: C_10  and  C_11
REMARK   11  A    between atoms: C_11  and  C_12
REMARK   12  A    between atoms: C_12  and  C_13
REMARK   13  A    between atoms: C_13  and  C_14
REMARK   14  A    between atoms: C_14  and  C_15
REMARK   15  A    between atoms: C_15  and  C_16
REMARK   16  A    between atoms: C_16  and  C_17
REMARK   17  A    between atoms: C_17  and  C_18
REMARK   18  A    between atoms: C_18  and  N_19
REMARK   19  A    between atoms: N_19  and  C_20
REMARK   20  A    between atoms: C_28  and  O_29
REMARK   21  A    between atoms: O_29  and  C_30
REMARK                            x       y       z     vdW  Elec       q    Type
REMARK                         _______ _______ _______ _____ _____    ______ ____
ROOT
ATOM      1  C   UNL     1       5.854   6.382  17.694  0.00  0.00    +0.000 C 
ENDROOT
BRANCH   1   2
ATOM      2  C   UNL     1       5.645   5.565  18.964  0.00  0.00    +0.000 C 
BRANCH   2   3
ATOM      3  C   UNL     1       4.168   5.445  19.264  0.00  0.00    +0.000 C 
BRANCH   3   4
ATOM      4  N   UNL     1       3.395   5.792  18.076  0.00  0.00    +0.000 NA
ATOM      5  H   UNL     1       2.998   4.959  17.660  0.00  0.00    +0.000 HD
BRANCH   4   6
ATOM      6  C   UNL     1       2.377   6.780  18.387  0.00  0.00    +0.000 C 
ATOM      7  C   UNL     1       2.728   8.080  17.693  0.00  0.00    +0.000 C 
ATOM      8  C   UNL     1       1.636   9.096  17.952  0.00  0.00    +0.000 C 
ATOM      9  C   UNL     1       1.190   9.247  19.394  0.00  0.00    +0.000 A 
ATOM     10  C   UNL     1       1.524   8.214  20.308  0.00  0.00    +0.000 A 
ATOM     11  C   UNL     1       1.165   8.324  21.655  0.00  0.00    +0.000 A 
ATOM     12  C   UNL     1       0.496   9.438  22.118  0.00  0.00    +0.000 A 
ATOM     13  C   UNL     1       0.154  10.465  21.220  0.00  0.00    +0.000 A 
ATOM     14  C   UNL     1       0.475  10.362  19.859  0.00  0.00    +0.000 A 
ATOM     15  C   UNL     1       2.334   7.029  19.899  0.00  0.00    +0.000 C 
BRANCH  14  16
ATOM     16  O   UNL     1       0.063  11.472  19.156  0.00  0.00    +0.000 OA
ATOM     17  C   UNL     1      -0.649  12.502  19.828  0.00  0.00    +0.000 C 
ENDBRANCH  14  16
ENDBRANCH   4   6
ENDBRANCH   3   4
ENDBRANCH   2   3
ENDBRANCH   1   2
BRANCH   1  18
ATOM     18  C   UNL     1       7.312   6.363  17.296  0.00  0.00    +0.000 C 
BRANCH  18  19
ATOM     19  C   UNL     1       8.086   7.365  18.131  0.00  0.00    +0.000 C 
BRANCH  19  20
ATOM     20  C   UNL     1       7.587   8.768  17.843  0.00  0.00    +0.000 C 
BRANCH  20  21
ATOM     21  C   UNL     1       8.752   9.739  17.833  0.00  0.00    +0.000 C 
BRANCH  21  22
ATOM     22  C   UNL     1       9.043  10.208  19.246  0.00  0.00    +0.000 C 
BRANCH  22  23
ATOM     23  C   UNL     1      10.275  11.092  19.251  0.00  0.00    +0.000 C 
BRANCH  23  24
ATOM     24  C   UNL     1      10.506  11.663  17.865  0.00  0.00    +0.000 C 
BRANCH  24  25
ATOM     25  C   UNL     1      11.873  12.319  17.797  0.00  0.00    +0.000 C 
BRANCH  25  26
ATOM     26  C   UNL     1      11.805  13.715  18.388  0.00  0.00    +0.000 C 
BRANCH  26  27
ATOM     27  C   UNL     1      12.012  14.748  17.297  0.00  0.00    +0.000 C 
BRANCH  27  28
ATOM     28  C   UNL     1      10.789  15.643  17.193  0.00  0.00    +0.000 C 
BRANCH  28  29
ATOM     29  C   UNL     1       9.916  15.477  18.426  0.00  0.00    +0.000 C 
BRANCH  29  30
ATOM     30  C   UNL     1       8.468  15.260  18.015  0.00  0.00    +0.000 C 
BRANCH  30  32
ATOM     31  C   UNL     1       8.578  14.199  20.268  0.00  0.00    +0.000 C 
ATOM     32  C   UNL     1       7.768  14.329  18.997  0.00  0.00    +0.000 C 
ENDBRANCH  30  32
ENDBRANCH  29  30
ENDBRANCH  28  29
ENDBRANCH  27  28
ENDBRANCH  26  27
ENDBRANCH  25  26
ENDBRANCH  24  25
ENDBRANCH  23  24
ENDBRANCH  22  23
ENDBRANCH  21  22
ENDBRANCH  20  21
ENDBRANCH  19  20
ENDBRANCH  18  19
ENDBRANCH   1  18
TORSDOF 19
ENDMDL
MODEL 7
REMARK VINA RESULT:      -5.7      3.284      5.399
REMARK  Name = 
REMARK  21 active torsions:
REMARK  status: ('A' for Active; 'I' for Inactive)
REMARK    1  A    between atoms: C_1  and  C_2
REMARK    2  A    between atoms: C_2  and  C_3
REMARK    3  A    between atoms: C_3  and  C_4
REMARK    4  A    between atoms: C_4  and  C_5
REMARK    5  A    between atoms: C_5  and  C_6
REMARK    6  A    between atoms: C_6  and  C_7
REMARK    7  A    between atoms: C_7  and  C_8
REMARK    8  A    between atoms: C_8  and  C_9
REMARK    9  A    between atoms: C_9  and  C_10
REMARK   10  A    between atoms: C_10  and  C_11
REMARK   11  A    between atoms: C_11  and  C_12
REMARK   12  A    between atoms: C_12  and  C_13
REMARK   13  A    between atoms: C_13  and  C_14
REMARK   14  A    between atoms: C_14  and  C_15
REMARK   15  A    between atoms: C_15  and  C_16
REMARK   16  A    between atoms: C_16  and  C_17
REMARK   17  A    between atoms: C_17  and  C_18
REMARK   18  A    between atoms: C_18  and  N_19
REMARK   19  A    between atoms: N_19  and  C_20
REMARK   20  A    between atoms: C_28  and  O_29
REMARK   21  A    between atoms: O_29  and  C_30
REMARK                            x       y       z     vdW  Elec       q    Type
REMARK                         _______ _______ _______ _____ _____    ______ ____
ROOT
ATOM      1  C   UNL     1       4.104   5.148  19.710  0.00  0.00    +0.000 C 
ENDROOT
BRANCH   1   2
ATOM      2  C   UNL     1       2.658   4.921  19.287  0.00  0.00    +0.000 C 
BRANCH   2   3
ATOM      3  C   UNL     1       1.720   5.537  20.300  0.00  0.00    +0.000 C 
BRANCH   3   4
ATOM      4  N   UNL     1       2.184   6.875  20.650  0.00  0.00    +0.000 NA
ATOM      5  H   UNL     1       2.992   7.124  20.094  0.00  0.00    +0.000 HD
BRANCH   4   6
ATOM      6  C   UNL     1       1.114   7.848  20.516  0.00  0.00    +0.000 C 
ATOM      7  C   UNL     1       1.520   8.884  19.487  0.00  0.00    +0.000 C 
ATOM      8  C   UNL     1       0.382   9.863  19.287  0.00  0.00    +0.000 C 
ATOM      9  C   UNL     1      -0.242  10.431  20.548  0.00  0.00    +0.000 A 
ATOM     10  C   UNL     1      -0.001   9.760  21.774  0.00  0.00    +0.000 A 
ATOM     11  C   UNL     1      -0.525  10.265  22.968  0.00  0.00    +0.000 A 
ATOM     12  C   UNL     1      -1.270  11.425  22.976  0.00  0.00    +0.000 A 
ATOM     13  C   UNL     1      -1.522  12.096  21.765  0.00  0.00    +0.000 A 
ATOM     14  C   UNL     1      -1.033  11.591  20.552  0.00  0.00    +0.000 A 
ATOM     15  C   UNL     1       0.880   8.557  21.856  0.00  0.00    +0.000 C 
BRANCH  14  16
ATOM     16  O   UNL     1      -1.380  12.398  19.491  0.00  0.00    +0.000 OA
ATOM     17  C   UNL     1      -0.567  13.519  19.170  0.00  0.00    +0.000 C 
ENDBRANCH  14  16
ENDBRANCH   4   6
ENDBRANCH   3   4
ENDBRANCH   2   3
ENDBRANCH   1   2
BRANCH   1  18
ATOM     18  C   UNL     1       5.023   4.221  18.948  0.00  0.00    +0.000 C 
BRANCH  18  19
ATOM     19  C   UNL     1       4.273   3.594  17.787  0.00  0.00    +0.000 C 
BRANCH  19  20
ATOM     20  C   UNL     1       5.078   3.753  16.511  0.00  0.00    +0.000 C 
BRANCH  20  21
ATOM     21  C   UNL     1       5.075   5.206  16.077  0.00  0.00    +0.000 C 
BRANCH  21  22
ATOM     22  C   UNL     1       6.485   5.763  16.134  0.00  0.00    +0.000 C 
BRANCH  22  23
ATOM     23  C   UNL     1       6.562   6.865  17.173  0.00  0.00    +0.000 C 
BRANCH  23  24
ATOM     24  C   UNL     1       7.696   6.584  18.140  0.00  0.00    +0.000 C 
BRANCH  24  25
ATOM     25  C   UNL     1       8.370   7.884  18.539  0.00  0.00    +0.000 C 
BRANCH  25  26
ATOM     26  C   UNL     1       8.017   8.974  17.546  0.00  0.00    +0.000 C 
BRANCH  26  27
ATOM     27  C   UNL     1       8.351  10.334  18.130  0.00  0.00    +0.000 C 
BRANCH  27  28
ATOM     28  C   UNL     1       9.361  10.181  19.254  0.00  0.00    +0.000 C 
BRANCH  28  29
ATOM     29  C   UNL     1      10.368  11.319  19.207  0.00  0.00    +0.000 C 
BRANCH  29  30
ATOM     30  C   UNL     1      10.542  11.919  20.592  0.00  0.00    +0.000 C 
BRANCH  30  32
ATOM     31  C   UNL     1       9.884  14.229  19.924  0.00  0.00    +0.000 C 
ATOM     32  C   UNL     1      10.993  13.371  20.492  0.00  0.00    +0.000 C 
ENDBRANCH  30  32
ENDBRANCH  29  30
ENDBRANCH  28  29
ENDBRANCH  27  28
ENDBRANCH  26  27
ENDBRANCH  25  26
ENDBRANCH  24  25
ENDBRANCH  23  24
ENDBRANCH  22  23
ENDBRANCH  21  22
ENDBRANCH  20  21
ENDBRANCH  19  20
ENDBRANCH  18  19
ENDBRANCH   1  18
TORSDOF 19
ENDMDL
MODEL 8
REMARK VINA RESULT:      -5.6      3.134      9.950
REMARK  Name = 
REMARK  21 active torsions:
REMARK  status: ('A' for Active; 'I' for Inactive)
REMARK    1  A    between atoms: C_1  and  C_2
REMARK    2  A    between atoms: C_2  and  C_3
REMARK    3  A    between atoms: C_3  and  C_4
REMARK    4  A    between atoms: C_4  and  C_5
REMARK    5  A    between atoms: C_5  and  C_6
REMARK    6  A    between atoms: C_6  and  C_7
REMARK    7  A    between atoms: C_7  and  C_8
REMARK    8  A    between atoms: C_8  and  C_9
REMARK    9  A    between atoms: C_9  and  C_10
REMARK   10  A    between atoms: C_10  and  C_11
REMARK   11  A    between atoms: C_11  and  C_12
REMARK   12  A    between atoms: C_12  and  C_13
REMARK   13  A    between atoms: C_13  and  C_14
REMARK   14  A    between atoms: C_14  and  C_15
REMARK   15  A    between atoms: C_15  and  C_16
REMARK   16  A    between atoms: C_16  and  C_17
REMARK   17  A    between atoms: C_17  and  C_18
REMARK   18  A    between atoms: C_18  and  N_19
REMARK   19  A    between atoms: N_19  and  C_20
REMARK   20  A    between atoms: C_28  and  O_29
REMARK   21  A    between atoms: O_29  and  C_30
REMARK                            x       y       z     vdW  Elec       q    Type
REMARK                         _______ _______ _______ _____ _____    ______ ____
ROOT
ATOM      1  C   UNL     1       1.991   4.550  21.173  0.00  0.00    +0.000 C 
ENDROOT
BRANCH   1   2
ATOM      2  C   UNL     1       0.793   4.138  20.326  0.00  0.00    +0.000 C 
BRANCH   2   3
ATOM      3  C   UNL     1       1.202   3.069  19.338  0.00  0.00    +0.000 C 
BRANCH   3   4
ATOM      4  N   UNL     1       1.454   3.673  18.034  0.00  0.00    +0.000 NA
ATOM      5  H   UNL     1       0.746   4.367  17.826  0.00  0.00    +0.000 HD
BRANCH   4   6
ATOM      6  C   UNL     1       2.794   4.229  17.967  0.00  0.00    +0.000 C 
ATOM      7  C   UNL     1       2.694   5.723  17.738  0.00  0.00    +0.000 C 
ATOM      8  C   UNL     1       4.084   6.323  17.738  0.00  0.00    +0.000 C 
ATOM      9  C   UNL     1       5.118   5.618  16.882  0.00  0.00    +0.000 A 
ATOM     10  C   UNL     1       4.845   4.291  16.460  0.00  0.00    +0.000 A 
ATOM     11  C   UNL     1       5.751   3.611  15.641  0.00  0.00    +0.000 A 
ATOM     12  C   UNL     1       6.914   4.221  15.219  0.00  0.00    +0.000 A 
ATOM     13  C   UNL     1       7.199   5.534  15.634  0.00  0.00    +0.000 A 
ATOM     14  C   UNL     1       6.321   6.223  16.482  0.00  0.00    +0.000 A 
ATOM     15  C   UNL     1       3.561   3.605  16.795  0.00  0.00    +0.000 C 
BRANCH  14  16
ATOM     16  O   UNL     1       6.777   7.492  16.762  0.00  0.00    +0.000 OA
ATOM     17  C   UNL     1       7.725   7.681  17.804  0.00  0.00    +0.000 C 
ENDBRANCH  14  16
ENDBRANCH   4   6
ENDBRANCH   3   4
ENDBRANCH   2   3
ENDBRANCH   1   2
BRANCH   1  18
ATOM     18  C   UNL     1       2.307   6.012  20.953  0.00  0.00    +0.000 C 
BRANCH  18  19
ATOM     19  C   UNL     1       1.022   6.819  20.937  0.00  0.00    +0.000 C 
BRANCH  19  20
ATOM     20  C   UNL     1       1.290   8.222  21.448  0.00  0.00    +0.000 C 
BRANCH  20  21
ATOM     21  C   UNL     1       0.042   9.071  21.305  0.00  0.00    +0.000 C 
BRANCH  21  22
ATOM     22  C   UNL     1       0.078   9.820  19.986  0.00  0.00    +0.000 C 
BRANCH  22  23
ATOM     23  C   UNL     1      -0.821  11.039  20.062  0.00  0.00    +0.000 C 
BRANCH  23  24
ATOM     24  C   UNL     1      -1.562  11.217  18.750  0.00  0.00    +0.000 C 
BRANCH  24  25
ATOM     25  C   UNL     1      -1.199  10.096  17.795  0.00  0.00    +0.000 C 
BRANCH  25  26
ATOM     26  C   UNL     1      -2.305   9.909  16.774  0.00  0.00    +0.000 C 
BRANCH  26  27
ATOM     27  C   UNL     1      -3.647  10.231  17.401  0.00  0.00    +0.000 C 
BRANCH  27  28
ATOM     28  C   UNL     1      -4.382  11.258  16.556  0.00  0.00    +0.000 C 
BRANCH  28  29
ATOM     29  C   UNL     1      -5.286  12.105  17.436  0.00  0.00    +0.000 C 
BRANCH  29  30
ATOM     30  C   UNL     1      -5.123  11.703  18.893  0.00  0.00    +0.000 C 
BRANCH  30  32
ATOM     31  C   UNL     1      -4.261  12.638  21.037  0.00  0.00    +0.000 C 
ATOM     32  C   UNL     1      -5.054  12.937  19.783  0.00  0.00    +0.000 C 
ENDBRANCH  30  32
ENDBRANCH  29  30
ENDBRANCH  28  29
ENDBRANCH  27  28
ENDBRANCH  26  27
ENDBRANCH  25  26
ENDBRANCH  24  25
ENDBRANCH  23  24
ENDBRANCH  22  23
ENDBRANCH  21  22
ENDBRANCH  20  21
ENDBRANCH  19  20
ENDBRANCH  18  19
ENDBRANCH   1  18
TORSDOF 19
ENDMDL
MODEL 9
REMARK VINA RESULT:      -5.6      4.820      8.307
REMARK  Name = 
REMARK  21 active torsions:
REMARK  status: ('A' for Active; 'I' for Inactive)
REMARK    1  A    between atoms: C_1  and  C_2
REMARK    2  A    between atoms: C_2  and  C_3
REMARK    3  A    between atoms: C_3  and  C_4
REMARK    4  A    between atoms: C_4  and  C_5
REMARK    5  A    between atoms: C_5  and  C_6
REMARK    6  A    between atoms: C_6  and  C_7
REMARK    7  A    between atoms: C_7  and  C_8
REMARK    8  A    between atoms: C_8  and  C_9
REMARK    9  A    between atoms: C_9  and  C_10
REMARK   10  A    between atoms: C_10  and  C_11
REMARK   11  A    between atoms: C_11  and  C_12
REMARK   12  A    between atoms: C_12  and  C_13
REMARK   13  A    between atoms: C_13  and  C_14
REMARK   14  A    between atoms: C_14  and  C_15
REMARK   15  A    between atoms: C_15  and  C_16
REMARK   16  A    between atoms: C_16  and  C_17
REMARK   17  A    between atoms: C_17  and  C_18
REMARK   18  A    between atoms: C_18  and  N_19
REMARK   19  A    between atoms: N_19  and  C_20
REMARK   20  A    between atoms: C_28  and  O_29
REMARK   21  A    between atoms: O_29  and  C_30
REMARK                            x       y       z     vdW  Elec       q    Type
REMARK                         _______ _______ _______ _____ _____    ______ ____
ROOT
ATOM      1  C   UNL     1       6.499   4.969  18.543  0.00  0.00    +0.000 C 
ENDROOT
BRANCH   1   2
ATOM      2  C   UNL     1       5.457   4.149  17.791  0.00  0.00    +0.000 C 
BRANCH   2   3
ATOM      3  C   UNL     1       4.518   3.484  18.772  0.00  0.00    +0.000 C 
BRANCH   3   4
ATOM      4  N   UNL     1       3.164   3.991  18.579  0.00  0.00    +0.000 NA
ATOM      5  H   UNL     1       2.487   3.331  18.938  0.00  0.00    +0.000 HD
BRANCH   4   6
ATOM      6  C   UNL     1       3.010   5.306  19.176  0.00  0.00    +0.000 C 
ATOM      7  C   UNL     1       1.945   5.234  20.251  0.00  0.00    +0.000 C 
ATOM      8  C   UNL     1       1.826   6.583  20.928  0.00  0.00    +0.000 C 
ATOM      9  C   UNL     1       1.722   7.787  20.012  0.00  0.00    +0.000 A 
ATOM     10  C   UNL     1       2.110   7.630  18.656  0.00  0.00    +0.000 A 
ATOM     11  C   UNL     1       1.999   8.700  17.763  0.00  0.00    +0.000 A 
ATOM     12  C   UNL     1       1.500   9.917  18.180  0.00  0.00    +0.000 A 
ATOM     13  C   UNL     1       1.119  10.087  19.523  0.00  0.00    +0.000 A 
ATOM     14  C   UNL     1       1.251   9.037  20.443  0.00  0.00    +0.000 A 
ATOM     15  C   UNL     1       2.562   6.315  18.111  0.00  0.00    +0.000 C 
BRANCH  14  16
ATOM     16  O   UNL     1       0.814   9.403  21.697  0.00  0.00    +0.000 OA
ATOM     17  C   UNL     1      -0.500   9.054  22.110  0.00  0.00    +0.000 C 
ENDBRANCH  14  16
ENDBRANCH   4   6
ENDBRANCH   3   4
ENDBRANCH   2   3
ENDBRANCH   1   2
BRANCH   1  18
ATOM     18  C   UNL     1       6.464   6.408  18.081  0.00  0.00    +0.000 C 
BRANCH  18  19
ATOM     19  C   UNL     1       7.866   6.988  18.098  0.00  0.00    +0.000 C 
BRANCH  19  20
ATOM     20  C   UNL     1       7.837   8.415  17.584  0.00  0.00    +0.000 C 
BRANCH  20  21
ATOM     21  C   UNL     1       8.679   9.303  18.479  0.00  0.00    +0.000 C 
BRANCH  21  22
ATOM     22  C   UNL     1       8.648  10.730  17.965  0.00  0.00    +0.000 C 
BRANCH  22  23
ATOM     23  C   UNL     1      10.052  11.303  17.954  0.00  0.00    +0.000 C 
BRANCH  23  24
ATOM     24  C   UNL     1       9.990  12.819  17.927  0.00  0.00    +0.000 C 
BRANCH  24  25
ATOM     25  C   UNL     1      10.736  13.388  19.120  0.00  0.00    +0.000 C 
BRANCH  25  26
ATOM     26  C   UNL     1       9.775  13.609  20.272  0.00  0.00    +0.000 C 
BRANCH  26  27
ATOM     27  C   UNL     1      10.104  12.660  21.409  0.00  0.00    +0.000 C 
BRANCH  27  28
ATOM     28  C   UNL     1       8.926  11.737  21.672  0.00  0.00    +0.000 C 
BRANCH  28  29
ATOM     29  C   UNL     1       7.930  12.416  22.598  0.00  0.00    +0.000 C 
BRANCH  29  30
ATOM     30  C   UNL     1       7.752  11.595  23.865  0.00  0.00    +0.000 C 
BRANCH  30  32
ATOM     31  C   UNL     1       8.180  13.799  24.949  0.00  0.00    +0.000 C 
ATOM     32  C   UNL     1       8.388  12.304  25.054  0.00  0.00    +0.000 C 
ENDBRANCH  30  32
ENDBRANCH  29  30
ENDBRANCH  28  29
ENDBRANCH  27  28
ENDBRANCH  26  27
ENDBRANCH  25  26
ENDBRANCH  24  25
ENDBRANCH  23  24
ENDBRANCH  22  23
ENDBRANCH  21  22
ENDBRANCH  20  21
ENDBRANCH  19  20
ENDBRANCH  18  19
ENDBRANCH   1  18
TORSDOF 19
ENDMDL
