MODEL 1
REMARK VINA RESULT:      -8.0      0.000      0.000
REMARK  Name = 
REMARK  1 active torsions:
REMARK  status: ('A' for Active; 'I' for Inactive)
REMARK    1  A    between atoms: C_18  and  C_19
REMARK                            x       y       z     vdW  Elec       q    Type
REMARK                         _______ _______ _______ _____ _____    ______ ____
ROOT
ATOM      1  O   UNL     1       6.668   4.383  18.865  0.00  0.00    +0.000 OA
ATOM      2  C   UNL     1       5.517   4.360  18.463  0.00  0.00    +0.000 C 
ATOM      3  C   UNL     1       4.498   3.416  19.041  0.00  0.00    +0.000 A 
ATOM      4  C   UNL     1       4.552   2.595  20.164  0.00  0.00    +0.000 A 
ATOM      5  C   UNL     1       3.341   2.204  20.783  0.00  0.00    +0.000 A 
ATOM      6  C   UNL     1       2.101   2.630  20.293  0.00  0.00    +0.000 A 
ATOM      7  C   UNL     1       2.061   3.326  19.097  0.00  0.00    +0.000 A 
ATOM      8  C   UNL     1       3.273   3.657  18.463  0.00  0.00    +0.000 A 
ATOM      9  C   UNL     1       3.386   4.804  17.571  0.00  0.00    +0.000 C 
ATOM     10  N   UNL     1       2.369   5.576  17.696  0.00  0.00    +0.000 NA
ATOM     11  C   UNL     1       2.713   6.647  18.523  0.00  0.00    +0.000 A 
ATOM     12  C   UNL     1       2.112   6.819  19.742  0.00  0.00    +0.000 A 
ATOM     13  C   UNL     1       1.481   8.021  19.920  0.00  0.00    +0.000 A 
ATOM     14  C   UNL     1       1.591   8.957  18.885  0.00  0.00    +0.000 A 
ATOM     15  C   UNL     1       2.624   8.834  17.927  0.00  0.00    +0.000 A 
ATOM     16  C   UNL     1       3.365   7.679  17.945  0.00  0.00    +0.000 A 
ATOM     17  S   UNL     1       5.021   7.199  17.483  0.00  0.00    +0.000 S 
ATOM     18  C   UNL     1       4.851   5.205  17.330  0.00  0.00    +0.000 C 
ENDROOT
BRANCH  18  19
ATOM     19  C   UNL     1       5.365   4.959  15.902  0.00  0.00    +0.000 A 
ATOM     20  C   UNL     1       4.608   4.227  14.971  0.00  0.00    +0.000 A 
ATOM     21  C   UNL     1       5.191   3.757  13.798  0.00  0.00    +0.000 A 
ATOM     22  C   UNL     1       6.539   4.002  13.541  0.00  0.00    +0.000 A 
ATOM     23  C   UNL     1       7.302   4.761  14.430  0.00  0.00    +0.000 A 
ATOM     24  C   UNL     1       6.721   5.222  15.607  0.00  0.00    +0.000 A 
ENDBRANCH  18  19
TORSDOF 1
ENDMDL
MODEL 2
REMARK VINA RESULT:      -8.0      0.540      1.120
REMARK  Name = 
REMARK  1 active torsions:
REMARK  status: ('A' for Active; 'I' for Inactive)
REMARK    1  A    between atoms: C_18  and  C_19
REMARK                            x       y       z     vdW  Elec       q    Type
REMARK                         _______ _______ _______ _____ _____    ______ ____
ROOT
ATOM      1  O   UNL     1       6.271   4.257  19.525  0.00  0.00    +0.000 OA
ATOM      2  C   UNL     1       5.177   4.272  18.986  0.00  0.00    +0.000 C 
ATOM      3  C   UNL     1       4.019   3.478  19.528  0.00  0.00    +0.000 A 
ATOM      4  C   UNL     1       3.870   2.791  20.730  0.00  0.00    +0.000 A 
ATOM      5  C   UNL     1       2.566   2.565  21.229  0.00  0.00    +0.000 A 
ATOM      6  C   UNL     1       1.433   3.020  20.545  0.00  0.00    +0.000 A 
ATOM      7  C   UNL     1       1.594   3.573  19.286  0.00  0.00    +0.000 A 
ATOM      8  C   UNL     1       2.895   3.740  18.778  0.00  0.00    +0.000 A 
ATOM      9  C   UNL     1       3.212   4.764  17.791  0.00  0.00    +0.000 C 
ATOM     10  N   UNL     1       2.258   5.618  17.704  0.00  0.00    +0.000 NA
ATOM     11  C   UNL     1       2.594   6.749  18.450  0.00  0.00    +0.000 A 
ATOM     12  C   UNL     1       1.872   7.104  19.557  0.00  0.00    +0.000 A 
ATOM     13  C   UNL     1       1.332   8.362  19.526  0.00  0.00    +0.000 A 
ATOM     14  C   UNL     1       1.643   9.161  18.420  0.00  0.00    +0.000 A 
ATOM     15  C   UNL     1       2.766   8.853  17.618  0.00  0.00    +0.000 A 
ATOM     16  C   UNL     1       3.397   7.657  17.852  0.00  0.00    +0.000 A 
ATOM     17  S   UNL     1       5.047   7.006  17.656  0.00  0.00    +0.000 S 
ATOM     18  C   UNL     1       4.724   5.026  17.695  0.00  0.00    +0.000 C 
ENDROOT
BRANCH  18  19
ATOM     19  C   UNL     1       5.379   4.579  16.377  0.00  0.00    +0.000 A 
ATOM     20  C   UNL     1       6.751   4.772  16.145  0.00  0.00    +0.000 A 
ATOM     21  C   UNL     1       7.276   4.643  14.862  0.00  0.00    +0.000 A 
ATOM     22  C   UNL     1       6.438   4.331  13.792  0.00  0.00    +0.000 A 
ATOM     23  C   UNL     1       5.079   4.094  14.004  0.00  0.00    +0.000 A 
ATOM     24  C   UNL     1       4.553   4.233  15.284  0.00  0.00    +0.000 A 
ENDBRANCH  18  19
TORSDOF 1
ENDMDL
MODEL 3
REMARK VINA RESULT:      -7.9      2.650      4.772
REMARK  Name = 
REMARK  1 active torsions:
REMARK  status: ('A' for Active; 'I' for Inactive)
REMARK    1  A    between atoms: C_18  and  C_19
REMARK                            x       y       z     vdW  Elec       q    Type
REMARK                         _______ _______ _______ _____ _____    ______ ____
ROOT
ATOM      1  O   UNL     1       3.337   7.762  16.483  0.00  0.00    +0.000 OA
ATOM      2  C   UNL     1       3.367   7.263  17.596  0.00  0.00    +0.000 C 
ATOM      3  C   UNL     1       2.565   7.831  18.736  0.00  0.00    +0.000 A 
ATOM      4  C   UNL     1       1.569   8.803  18.754  0.00  0.00    +0.000 A 
ATOM      5  C   UNL     1       0.635   8.805  19.816  0.00  0.00    +0.000 A 
ATOM      6  C   UNL     1       0.691   7.850  20.838  0.00  0.00    +0.000 A 
ATOM      7  C   UNL     1       1.769   6.982  20.880  0.00  0.00    +0.000 A 
ATOM      8  C   UNL     1       2.721   7.032  19.846  0.00  0.00    +0.000 A 
ATOM      9  C   UNL     1       3.528   5.873  19.486  0.00  0.00    +0.000 C 
ATOM     10  N   UNL     1       3.046   4.806  20.012  0.00  0.00    +0.000 NA
ATOM     11  C   UNL     1       2.297   4.126  19.049  0.00  0.00    +0.000 A 
ATOM     12  C   UNL     1       0.945   3.967  19.191  0.00  0.00    +0.000 A 
ATOM     13  C   UNL     1       0.503   2.671  19.185  0.00  0.00    +0.000 A 
ATOM     14  C   UNL     1       1.458   1.675  18.954  0.00  0.00    +0.000 A 
ATOM     15  C   UNL     1       2.694   2.004  18.350  0.00  0.00    +0.000 A 
ATOM     16  C   UNL     1       2.979   3.337  18.191  0.00  0.00    +0.000 A 
ATOM     17  S   UNL     1       3.959   4.324  17.071  0.00  0.00    +0.000 S 
ATOM     18  C   UNL     1       4.181   6.031  18.103  0.00  0.00    +0.000 C 
ENDROOT
BRANCH  18  19
ATOM     19  C   UNL     1       5.712   6.184  18.121  0.00  0.00    +0.000 A 
ATOM     20  C   UNL     1       6.499   5.519  19.077  0.00  0.00    +0.000 A 
ATOM     21  C   UNL     1       7.826   5.885  19.278  0.00  0.00    +0.000 A 
ATOM     22  C   UNL     1       8.385   6.926  18.536  0.00  0.00    +0.000 A 
ATOM     23  C   UNL     1       7.636   7.575  17.553  0.00  0.00    +0.000 A 
ATOM     24  C   UNL     1       6.306   7.215  17.359  0.00  0.00    +0.000 A 
ENDBRANCH  18  19
TORSDOF 1
ENDMDL
MODEL 4
REMARK VINA RESULT:      -7.3      2.330      5.924
REMARK  Name = 
REMARK  1 active torsions:
REMARK  status: ('A' for Active; 'I' for Inactive)
REMARK    1  A    between atoms: C_18  and  C_19
REMARK                            x       y       z     vdW  Elec       q    Type
REMARK                         _______ _______ _______ _____ _____    ______ ____
ROOT
ATOM      1  O   UNL     1       6.349   3.548  18.982  0.00  0.00    +0.000 OA
ATOM      2  C   UNL     1       6.014   4.438  18.217  0.00  0.00    +0.000 C 
ATOM      3  C   UNL     1       6.579   5.828  18.328  0.00  0.00    +0.000 A 
ATOM      4  C   UNL     1       7.633   6.324  19.090  0.00  0.00    +0.000 A 
ATOM      5  C   UNL     1       8.290   7.501  18.662  0.00  0.00    +0.000 A 
ATOM      6  C   UNL     1       7.907   8.167  17.493  0.00  0.00    +0.000 A 
ATOM      7  C   UNL     1       6.769   7.741  16.827  0.00  0.00    +0.000 A 
ATOM      8  C   UNL     1       6.093   6.602  17.300  0.00  0.00    +0.000 A 
ATOM      9  C   UNL     1       5.283   5.768  16.421  0.00  0.00    +0.000 C 
ATOM     10  N   UNL     1       5.524   6.042  15.190  0.00  0.00    +0.000 NA
ATOM     11  C   UNL     1       6.406   5.088  14.679  0.00  0.00    +0.000 A 
ATOM     12  C   UNL     1       7.667   5.439  14.275  0.00  0.00    +0.000 A 
ATOM     13  C   UNL     1       7.970   5.139  12.974  0.00  0.00    +0.000 A 
ATOM     14  C   UNL     1       7.003   4.444  12.239  0.00  0.00    +0.000 A 
ATOM     15  C   UNL     1       5.980   3.735  12.909  0.00  0.00    +0.000 A 
ATOM     16  C   UNL     1       5.869   3.920  14.264  0.00  0.00    +0.000 A 
ATOM     17  S   UNL     1       5.278   2.970  15.655  0.00  0.00    +0.000 S 
ATOM     18  C   UNL     1       4.988   4.392  17.040  0.00  0.00    +0.000 C 
ENDROOT
BRANCH  18  19
ATOM     19  C   UNL     1       3.518   4.155  17.425  0.00  0.00    +0.000 A 
ATOM     20  C   UNL     1       2.699   5.212  17.859  0.00  0.00    +0.000 A 
ATOM     21  C   UNL     1       1.481   4.954  18.480  0.00  0.00    +0.000 A 
ATOM     22  C   UNL     1       1.066   3.639  18.686  0.00  0.00    +0.000 A 
ATOM     23  C   UNL     1       1.842   2.572  18.228  0.00  0.00    +0.000 A 
ATOM     24  C   UNL     1       3.064   2.831  17.616  0.00  0.00    +0.000 A 
ENDBRANCH  18  19
TORSDOF 1
ENDMDL
MODEL 5
REMARK VINA RESULT:      -7.3      2.232      5.401
REMARK  Name = 
REMARK  1 active torsions:
REMARK  status: ('A' for Active; 'I' for Inactive)
REMARK    1  A    between atoms: C_18  and  C_19
REMARK                            x       y       z     vdW  Elec       q    Type
REMARK                         _______ _______ _______ _____ _____    ______ ____
ROOT
ATOM      1  O   UNL     1       0.956   5.427  17.173  0.00  0.00    +0.000 OA
ATOM      2  C   UNL     1       1.808   5.321  18.040  0.00  0.00    +0.000 C 
ATOM      3  C   UNL     1       2.044   4.019  18.758  0.00  0.00    +0.000 A 
ATOM      4  C   UNL     1       1.562   2.738  18.502  0.00  0.00    +0.000 A 
ATOM      5  C   UNL     1       2.296   1.626  18.974  0.00  0.00    +0.000 A 
ATOM      6  C   UNL     1       3.492   1.788  19.683  0.00  0.00    +0.000 A 
ATOM      7  C   UNL     1       3.880   3.066  20.049  0.00  0.00    +0.000 A 
ATOM      8  C   UNL     1       3.107   4.160  19.620  0.00  0.00    +0.000 A 
ATOM      9  C   UNL     1       3.679   5.489  19.454  0.00  0.00    +0.000 C 
ATOM     10  N   UNL     1       4.961   5.434  19.461  0.00  0.00    +0.000 NA
ATOM     11  C   UNL     1       5.422   5.470  18.143  0.00  0.00    +0.000 A 
ATOM     12  C   UNL     1       6.077   4.399  17.596  0.00  0.00    +0.000 A 
ATOM     13  C   UNL     1       7.333   4.663  17.118  0.00  0.00    +0.000 A 
ATOM     14  C   UNL     1       7.766   5.992  17.166  0.00  0.00    +0.000 A 
ATOM     15  C   UNL     1       6.825   7.039  17.297  0.00  0.00    +0.000 A 
ATOM     16  C   UNL     1       5.526   6.687  17.566  0.00  0.00    +0.000 A 
ATOM     17  S   UNL     1       3.909   7.382  17.268  0.00  0.00    +0.000 S 
ATOM     18  C   UNL     1       2.779   6.404  18.607  0.00  0.00    +0.000 C 
ENDROOT
BRANCH  18  19
ATOM     19  C   UNL     1       2.130   7.569  19.374  0.00  0.00    +0.000 A 
ATOM     20  C   UNL     1       1.727   7.423  20.713  0.00  0.00    +0.000 A 
ATOM     21  C   UNL     1       0.885   8.361  21.303  0.00  0.00    +0.000 A 
ATOM     22  C   UNL     1       0.426   9.451  20.565  0.00  0.00    +0.000 A 
ATOM     23  C   UNL     1       0.845   9.640  19.247  0.00  0.00    +0.000 A 
ATOM     24  C   UNL     1       1.679   8.697  18.654  0.00  0.00    +0.000 A 
ENDBRANCH  18  19
TORSDOF 1
ENDMDL
MODEL 6
REMARK VINA RESULT:      -7.2      2.258      5.303
REMARK  Name = 
REMARK  1 active torsions:
REMARK  status: ('A' for Active; 'I' for Inactive)
REMARK    1  A    between atoms: C_18  and  C_19
REMARK                            x       y       z     vdW  Elec       q    Type
REMARK                         _______ _______ _______ _____ _____    ______ ____
ROOT
ATOM      1  O   UNL     1       1.048   4.905  17.066  0.00  0.00    +0.000 OA
ATOM      2  C   UNL     1       1.886   4.929  17.953  0.00  0.00    +0.000 C 
ATOM      3  C   UNL     1       2.274   3.684  18.705  0.00  0.00    +0.000 A 
ATOM      4  C   UNL     1       1.970   2.346  18.469  0.00  0.00    +0.000 A 
ATOM      5  C   UNL     1       2.833   1.350  18.981  0.00  0.00    +0.000 A 
ATOM      6  C   UNL     1       3.980   1.683  19.710  0.00  0.00    +0.000 A 
ATOM      7  C   UNL     1       4.189   3.007  20.055  0.00  0.00    +0.000 A 
ATOM      8  C   UNL     1       3.289   3.981  19.585  0.00  0.00    +0.000 A 
ATOM      9  C   UNL     1       3.685   5.371  19.401  0.00  0.00    +0.000 C 
ATOM     10  N   UNL     1       4.963   5.485  19.434  0.00  0.00    +0.000 NA
ATOM     11  C   UNL     1       5.446   5.555  18.126  0.00  0.00    +0.000 A 
ATOM     12  C   UNL     1       6.248   4.569  17.617  0.00  0.00    +0.000 A 
ATOM     13  C   UNL     1       7.469   4.986  17.158  0.00  0.00    +0.000 A 
ATOM     14  C   UNL     1       7.723   6.362  17.185  0.00  0.00    +0.000 A 
ATOM     15  C   UNL     1       6.650   7.278  17.272  0.00  0.00    +0.000 A 
ATOM     16  C   UNL     1       5.402   6.763  17.524  0.00  0.00    +0.000 A 
ATOM     17  S   UNL     1       3.716   7.233  17.177  0.00  0.00    +0.000 S 
ATOM     18  C   UNL     1       2.693   6.142  18.515  0.00  0.00    +0.000 C 
ENDROOT
BRANCH  18  19
ATOM     19  C   UNL     1       1.880   7.226  19.242  0.00  0.00    +0.000 A 
ATOM     20  C   UNL     1       1.566   8.444  18.614  0.00  0.00    +0.000 A 
ATOM     21  C   UNL     1       1.098   9.523  19.358  0.00  0.00    +0.000 A 
ATOM     22  C   UNL     1       0.945   9.406  20.739  0.00  0.00    +0.000 A 
ATOM     23  C   UNL     1       1.211   8.194  21.380  0.00  0.00    +0.000 A 
ATOM     24  C   UNL     1       1.688   7.120  20.637  0.00  0.00    +0.000 A 
ENDBRANCH  18  19
TORSDOF 1
ENDMDL
MODEL 7
REMARK VINA RESULT:      -7.1      6.852      8.883
REMARK  Name = 
REMARK  1 active torsions:
REMARK  status: ('A' for Active; 'I' for Inactive)
REMARK    1  A    between atoms: C_18  and  C_19
REMARK                            x       y       z     vdW  Elec       q    Type
REMARK                         _______ _______ _______ _____ _____    ______ ____
ROOT
ATOM      1  O   UNL     1       0.968   9.882  18.085  0.00  0.00    +0.000 OA
ATOM      2  C   UNL     1       0.169  10.233  18.938  0.00  0.00    +0.000 C 
ATOM      3  C   UNL     1       0.190   9.651  20.325  0.00  0.00    +0.000 A 
ATOM      4  C   UNL     1       1.124   8.836  20.957  0.00  0.00    +0.000 A 
ATOM      5  C   UNL     1       1.189   8.839  22.370  0.00  0.00    +0.000 A 
ATOM      6  C   UNL     1       0.341   9.645  23.137  0.00  0.00    +0.000 A 
ATOM      7  C   UNL     1      -0.674  10.339  22.500  0.00  0.00    +0.000 A 
ATOM      8  C   UNL     1      -0.760  10.280  21.097  0.00  0.00    +0.000 A 
ATOM      9  C   UNL     1      -1.375  11.347  20.318  0.00  0.00    +0.000 C 
ATOM     10  N   UNL     1      -1.527  12.400  21.036  0.00  0.00    +0.000 NA
ATOM     11  C   UNL     1      -0.489  13.291  20.757  0.00  0.00    +0.000 A 
ATOM     12  C   UNL     1       0.432  13.622  21.715  0.00  0.00    +0.000 A 
ATOM     13  C   UNL     1       0.532  14.959  21.993  0.00  0.00    +0.000 A 
ATOM     14  C   UNL     1      -0.245  15.830  21.221  0.00  0.00    +0.000 A 
ATOM     15  C   UNL     1      -0.760  15.404  19.976  0.00  0.00    +0.000 A 
ATOM     16  C   UNL     1      -0.632  14.073  19.665  0.00  0.00    +0.000 A 
ATOM     17  S   UNL     1      -0.512  13.099  18.174  0.00  0.00    +0.000 S 
ATOM     18  C   UNL     1      -0.997  11.266  18.830  0.00  0.00    +0.000 C 
ENDROOT
BRANCH  18  19
ATOM     19  C   UNL     1      -2.153  10.895  17.886  0.00  0.00    +0.000 A 
ATOM     20  C   UNL     1      -1.936  10.101  16.747  0.00  0.00    +0.000 A 
ATOM     21  C   UNL     1      -2.903  10.015  15.750  0.00  0.00    +0.000 A 
ATOM     22  C   UNL     1      -4.095  10.728  15.869  0.00  0.00    +0.000 A 
ATOM     23  C   UNL     1      -4.352  11.491  17.009  0.00  0.00    +0.000 A 
ATOM     24  C   UNL     1      -3.381  11.584  18.001  0.00  0.00    +0.000 A 
ENDBRANCH  18  19
TORSDOF 1
ENDMDL
MODEL 8
REMARK VINA RESULT:      -6.7      2.327      5.875
REMARK  Name = 
REMARK  1 active torsions:
REMARK  status: ('A' for Active; 'I' for Inactive)
REMARK    1  A    between atoms: C_18  and  C_19
REMARK                            x       y       z     vdW  Elec       q    Type
REMARK                         _______ _______ _______ _____ _____    ______ ____
ROOT
ATOM      1  O   UNL     1       6.728   3.743  19.177  0.00  0.00    +0.000 OA
ATOM      2  C   UNL     1       6.286   4.579  18.407  0.00  0.00    +0.000 C 
ATOM      3  C   UNL     1       6.778   6.002  18.420  0.00  0.00    +0.000 A 
ATOM      4  C   UNL     1       7.856   6.586  19.078  0.00  0.00    +0.000 A 
ATOM      5  C   UNL     1       8.411   7.777  18.555  0.00  0.00    +0.000 A 
ATOM      6  C   UNL     1       7.902   8.371  17.395  0.00  0.00    +0.000 A 
ATOM      7  C   UNL     1       6.744   7.856  16.836  0.00  0.00    +0.000 A 
ATOM      8  C   UNL     1       6.172   6.703  17.403  0.00  0.00    +0.000 A 
ATOM      9  C   UNL     1       5.347   5.790  16.623  0.00  0.00    +0.000 C 
ATOM     10  N   UNL     1       5.478   6.023  15.367  0.00  0.00    +0.000 NA
ATOM     11  C   UNL     1       6.373   5.097  14.827  0.00  0.00    +0.000 A 
ATOM     12  C   UNL     1       7.577   5.498  14.313  0.00  0.00    +0.000 A 
ATOM     13  C   UNL     1       7.798   5.160  13.005  0.00  0.00    +0.000 A 
ATOM     14  C   UNL     1       6.819   4.383  12.375  0.00  0.00    +0.000 A 
ATOM     15  C   UNL     1       5.892   3.648  13.148  0.00  0.00    +0.000 A 
ATOM     16  C   UNL     1       5.874   3.885  14.500  0.00  0.00    +0.000 A 
ATOM     17  S   UNL     1       5.444   2.965  15.968  0.00  0.00    +0.000 S 
ATOM     18  C   UNL     1       5.178   4.428  17.316  0.00  0.00    +0.000 C 
ENDROOT
BRANCH  18  19
ATOM     19  C   UNL     1       3.757   4.128  17.823  0.00  0.00    +0.000 A 
ATOM     20  C   UNL     1       3.392   2.837  18.244  0.00  0.00    +0.000 A 
ATOM     21  C   UNL     1       2.052   2.503  18.416  0.00  0.00    +0.000 A 
ATOM     22  C   UNL     1       1.058   3.446  18.161  0.00  0.00    +0.000 A 
ATOM     23  C   UNL     1       1.396   4.746  17.781  0.00  0.00    +0.000 A 
ATOM     24  C   UNL     1       2.735   5.077  17.600  0.00  0.00    +0.000 A 
ENDBRANCH  18  19
TORSDOF 1
ENDMDL
MODEL 9
REMARK VINA RESULT:      -6.7      7.037      8.992
REMARK  Name = 
REMARK  1 active torsions:
REMARK  status: ('A' for Active; 'I' for Inactive)
REMARK    1  A    between atoms: C_18  and  C_19
REMARK                            x       y       z     vdW  Elec       q    Type
REMARK                         _______ _______ _______ _____ _____    ______ ____
ROOT
ATOM      1  O   UNL     1       1.059  10.135  18.203  0.00  0.00    +0.000 OA
ATOM      2  C   UNL     1       0.220  10.490  19.014  0.00  0.00    +0.000 C 
ATOM      3  C   UNL     1       0.133   9.870  20.382  0.00  0.00    +0.000 A 
ATOM      4  C   UNL     1       0.998   9.006  21.047  0.00  0.00    +0.000 A 
ATOM      5  C   UNL     1       0.972   8.968  22.460  0.00  0.00    +0.000 A 
ATOM      6  C   UNL     1       0.104   9.781  23.196  0.00  0.00    +0.000 A 
ATOM      7  C   UNL     1      -0.845  10.527  22.518  0.00  0.00    +0.000 A 
ATOM      8  C   UNL     1      -0.843  10.509  21.111  0.00  0.00    +0.000 A 
ATOM      9  C   UNL     1      -1.372  11.618  20.327  0.00  0.00    +0.000 C 
ATOM     10  N   UNL     1      -1.535  12.656  21.064  0.00  0.00    +0.000 NA
ATOM     11  C   UNL     1      -0.453  13.518  20.878  0.00  0.00    +0.000 A 
ATOM     12  C   UNL     1       0.415  13.791  21.901  0.00  0.00    +0.000 A 
ATOM     13  C   UNL     1       0.541  15.115  22.224  0.00  0.00    +0.000 A 
ATOM     14  C   UNL     1      -0.156  16.033  21.431  0.00  0.00    +0.000 A 
ATOM     15  C   UNL     1      -0.605  15.659  20.143  0.00  0.00    +0.000 A 
ATOM     16  C   UNL     1      -0.501  14.333  19.802  0.00  0.00    +0.000 A 
ATOM     17  S   UNL     1      -0.317  13.397  18.294  0.00  0.00    +0.000 S 
ATOM     18  C   UNL     1      -0.903  11.565  18.863  0.00  0.00    +0.000 C 
ENDROOT
BRANCH  18  19
ATOM     19  C   UNL     1      -2.008  11.260  17.838  0.00  0.00    +0.000 A 
ATOM     20  C   UNL     1      -3.317  11.743  18.012  0.00  0.00    +0.000 A 
ATOM     21  C   UNL     1      -4.366  11.228  17.257  0.00  0.00    +0.000 A 
ATOM     22  C   UNL     1      -4.128  10.220  16.324  0.00  0.00    +0.000 A 
ATOM     23  C   UNL     1      -2.831   9.752  16.103  0.00  0.00    +0.000 A 
ATOM     24  C   UNL     1      -1.784  10.260  16.866  0.00  0.00    +0.000 A 
ENDBRANCH  18  19
TORSDOF 1
ENDMDL
