MODEL 1
REMARK VINA RESULT:      -7.5      0.000      0.000
REMARK  Name = 
REMARK  8 active torsions:
REMARK  status: ('A' for Active; 'I' for Inactive)
REMARK    1  A    between atoms: C_1  and  O_2
REMARK    2  A    between atoms: O_2  and  C_3
REMARK    3  A    between atoms: C_6  and  C_7
REMARK    4  A    between atoms: C_7  and  C_8
REMARK    5  A    between atoms: C_7  and  N_9
REMARK    6  A    between atoms: C_12  and  N_13
REMARK    7  A    between atoms: N_13  and  S_14
REMARK    8  A    between atoms: S_14  and  C_15
REMARK                            x       y       z     vdW  Elec       q    Type
REMARK                         _______ _______ _______ _____ _____    ______ ____
ROOT
ATOM      1  N   UNL     1       2.896   5.695  18.400  0.00  0.00    +0.000 NA
ATOM      2  C   UNL     1       4.041   6.391  17.775  0.00  0.00    +0.000 C 
ATOM      3  C   UNL     1       4.588   5.703  16.519  0.00  0.00    +0.000 C 
ATOM      4  C   UNL     1       4.910   4.228  16.760  0.00  0.00    +0.000 C 
ATOM      5  C   UNL     1       3.657   3.563  17.299  0.00  0.00    +0.000 C 
ATOM      6  C   UNL     1       3.141   4.249  18.557  0.00  0.00    +0.000 C 
ENDROOT
BRANCH   1   7
ATOM      7  C   UNL     1       2.573   6.323  19.720  0.00  0.00    +0.000 C 
ATOM      8  C   UNL     1       1.696   5.456  20.647  0.00  0.00    +0.000 C 
BRANCH   7  12
ATOM      9  C   UNL     1       0.711  10.235  19.256  0.00  0.00    +0.000 A 
ATOM     10  C   UNL     1       1.323   9.598  18.174  0.00  0.00    +0.000 A 
ATOM     11  C   UNL     1       1.908   8.336  18.329  0.00  0.00    +0.000 A 
ATOM     12  C   UNL     1       1.903   7.689  19.572  0.00  0.00    +0.000 A 
ATOM     13  C   UNL     1       1.298   8.334  20.661  0.00  0.00    +0.000 A 
ATOM     14  C   UNL     1       0.714   9.598  20.505  0.00  0.00    +0.000 A 
ATOM     15 CL   UNL     1      -0.017  10.331  21.891  0.00  0.00    +0.000 Cl
BRANCH   9  17
ATOM     16  C   UNL     1      -1.159  11.535  18.596  0.00  0.00    +0.000 C 
ATOM     17  O   UNL     1       0.140  11.480  19.175  0.00  0.00    +0.000 OA
ENDBRANCH   9  17
ENDBRANCH   7  12
ENDBRANCH   1   7
BRANCH   4  18
ATOM     18  N   UNL     1       6.103   4.118  17.633  0.00  0.00    +0.000 NA
ATOM     19  H   UNL     1       6.237   3.233  18.121  0.00  0.00    +0.000 HD
BRANCH  18  20
ATOM     20  S   UNL     1       7.594   4.773  17.234  0.00  0.00    +0.000 S 
ATOM     21  C   UNL     1       7.566   6.364  18.032  0.00  0.00    +0.000 C 
ATOM     22  O   UNL     1       8.570   3.940  17.898  0.00  0.00    +0.000 OA
ATOM     23  O   UNL     1       7.640   4.959  15.801  0.00  0.00    +0.000 OA
ENDBRANCH  18  20
ENDBRANCH   4  18
TORSDOF 5
ENDMDL
MODEL 2
REMARK VINA RESULT:      -7.2      4.374      8.077
REMARK  Name = 
REMARK  8 active torsions:
REMARK  status: ('A' for Active; 'I' for Inactive)
REMARK    1  A    between atoms: C_1  and  O_2
REMARK    2  A    between atoms: O_2  and  C_3
REMARK    3  A    between atoms: C_6  and  C_7
REMARK    4  A    between atoms: C_7  and  C_8
REMARK    5  A    between atoms: C_7  and  N_9
REMARK    6  A    between atoms: C_12  and  N_13
REMARK    7  A    between atoms: N_13  and  S_14
REMARK    8  A    between atoms: S_14  and  C_15
REMARK                            x       y       z     vdW  Elec       q    Type
REMARK                         _______ _______ _______ _____ _____    ______ ____
ROOT
ATOM      1  N   UNL     1       1.031   8.372  20.205  0.00  0.00    +0.000 NA
ATOM      2  C   UNL     1       1.396   8.732  21.592  0.00  0.00    +0.000 C 
ATOM      3  C   UNL     1       0.288   9.449  22.371  0.00  0.00    +0.000 C 
ATOM      4  C   UNL     1      -0.259  10.663  21.617  0.00  0.00    +0.000 C 
ATOM      5  C   UNL     1      -0.710  10.190  20.247  0.00  0.00    +0.000 C 
ATOM      6  C   UNL     1       0.412   9.499  19.482  0.00  0.00    +0.000 C 
ENDROOT
BRANCH   1   7
ATOM      7  C   UNL     1       2.236   7.872  19.471  0.00  0.00    +0.000 C 
ATOM      8  C   UNL     1       2.442   8.493  18.075  0.00  0.00    +0.000 C 
BRANCH   7  12
ATOM      9  C   UNL     1       2.222   3.542  18.984  0.00  0.00    +0.000 A 
ATOM     10  C   UNL     1       2.425   4.387  17.891  0.00  0.00    +0.000 A 
ATOM     11  C   UNL     1       2.440   5.776  18.058  0.00  0.00    +0.000 A 
ATOM     12  C   UNL     1       2.241   6.351  19.321  0.00  0.00    +0.000 A 
ATOM     13  C   UNL     1       2.026   5.502  20.417  0.00  0.00    +0.000 A 
ATOM     14  C   UNL     1       2.010   4.111  20.249  0.00  0.00    +0.000 A 
ATOM     15 CL   UNL     1       1.742   3.127  21.646  0.00  0.00    +0.000 Cl
BRANCH   9  17
ATOM     16  C   UNL     1       3.386   1.533  18.506  0.00  0.00    +0.000 C 
ATOM     17  O   UNL     1       2.173   2.174  18.884  0.00  0.00    +0.000 OA
ENDBRANCH   9  17
ENDBRANCH   7  12
ENDBRANCH   1   7
BRANCH   4  18
ATOM     18  N   UNL     1       0.761  11.738  21.605  0.00  0.00    +0.000 NA
ATOM     19  H   UNL     1       1.606  11.566  21.061  0.00  0.00    +0.000 HD
BRANCH  18  20
ATOM     20  S   UNL     1       0.373  13.368  21.544  0.00  0.00    +0.000 S 
ATOM     21  C   UNL     1      -0.868  13.540  22.809  0.00  0.00    +0.000 C 
ATOM     22  O   UNL     1       1.566  14.064  21.968  0.00  0.00    +0.000 OA
ATOM     23  O   UNL     1      -0.220  13.646  20.254  0.00  0.00    +0.000 OA
ENDBRANCH  18  20
ENDBRANCH   4  18
TORSDOF 5
ENDMDL
MODEL 3
REMARK VINA RESULT:      -7.2      4.380      7.993
REMARK  Name = 
REMARK  8 active torsions:
REMARK  status: ('A' for Active; 'I' for Inactive)
REMARK    1  A    between atoms: C_1  and  O_2
REMARK    2  A    between atoms: O_2  and  C_3
REMARK    3  A    between atoms: C_6  and  C_7
REMARK    4  A    between atoms: C_7  and  C_8
REMARK    5  A    between atoms: C_7  and  N_9
REMARK    6  A    between atoms: C_12  and  N_13
REMARK    7  A    between atoms: N_13  and  S_14
REMARK    8  A    between atoms: S_14  and  C_15
REMARK                            x       y       z     vdW  Elec       q    Type
REMARK                         _______ _______ _______ _____ _____    ______ ____
ROOT
ATOM      1  N   UNL     1       1.054   8.427  20.118  0.00  0.00    +0.000 NA
ATOM      2  C   UNL     1       1.371   8.728  21.531  0.00  0.00    +0.000 C 
ATOM      3  C   UNL     1       0.261   9.472  22.282  0.00  0.00    +0.000 C 
ATOM      4  C   UNL     1      -0.195  10.731  21.544  0.00  0.00    +0.000 C 
ATOM      5  C   UNL     1      -0.603  10.322  20.140  0.00  0.00    +0.000 C 
ATOM      6  C   UNL     1       0.520   9.602  19.405  0.00  0.00    +0.000 C 
ENDROOT
BRANCH   1   7
ATOM      7  C   UNL     1       2.268   7.894  19.423  0.00  0.00    +0.000 C 
ATOM      8  C   UNL     1       2.518   8.486  18.021  0.00  0.00    +0.000 C 
BRANCH   7  12
ATOM      9  C   UNL     1       2.188   3.556  19.018  0.00  0.00    +0.000 A 
ATOM     10  C   UNL     1       2.312   4.380  17.897  0.00  0.00    +0.000 A 
ATOM     11  C   UNL     1       2.349   5.771  18.037  0.00  0.00    +0.000 A 
ATOM     12  C   UNL     1       2.252   6.370  19.301  0.00  0.00    +0.000 A 
ATOM     13  C   UNL     1       2.116   5.543  20.425  0.00  0.00    +0.000 A 
ATOM     14  C   UNL     1       2.077   4.149  20.284  0.00  0.00    +0.000 A 
ATOM     15 CL   UNL     1       1.911   3.192  21.715  0.00  0.00    +0.000 Cl
BRANCH   9  17
ATOM     16  C   UNL     1       3.336   1.521  18.616  0.00  0.00    +0.000 C 
ATOM     17  O   UNL     1       2.123   2.187  18.947  0.00  0.00    +0.000 OA
ENDBRANCH   9  17
ENDBRANCH   7  12
ENDBRANCH   1   7
BRANCH   4  18
ATOM     18  N   UNL     1       0.871  11.758  21.612  0.00  0.00    +0.000 NA
ATOM     19  H   UNL     1       1.797  11.483  21.285  0.00  0.00    +0.000 HD
BRANCH  18  20
ATOM     20  S   UNL     1       0.608  13.377  21.265  0.00  0.00    +0.000 S 
ATOM     21  C   UNL     1       1.103  13.513  19.560  0.00  0.00    +0.000 C 
ATOM     22  O   UNL     1      -0.823  13.561  21.347  0.00  0.00    +0.000 OA
ATOM     23  O   UNL     1       1.498  14.169  22.085  0.00  0.00    +0.000 OA
ENDBRANCH  18  20
ENDBRANCH   4  18
TORSDOF 5
ENDMDL
MODEL 4
REMARK VINA RESULT:      -7.1      1.303      1.667
REMARK  Name = 
REMARK  8 active torsions:
REMARK  status: ('A' for Active; 'I' for Inactive)
REMARK    1  A    between atoms: C_1  and  O_2
REMARK    2  A    between atoms: O_2  and  C_3
REMARK    3  A    between atoms: C_6  and  C_7
REMARK    4  A    between atoms: C_7  and  C_8
REMARK    5  A    between atoms: C_7  and  N_9
REMARK    6  A    between atoms: C_12  and  N_13
REMARK    7  A    between atoms: N_13  and  S_14
REMARK    8  A    between atoms: S_14  and  C_15
REMARK                            x       y       z     vdW  Elec       q    Type
REMARK                         _______ _______ _______ _____ _____    ______ ____
ROOT
ATOM      1  N   UNL     1       2.821   5.274  18.652  0.00  0.00    +0.000 NA
ATOM      2  C   UNL     1       3.900   6.132  18.116  0.00  0.00    +0.000 C 
ATOM      3  C   UNL     1       4.488   5.648  16.786  0.00  0.00    +0.000 C 
ATOM      4  C   UNL     1       4.930   4.185  16.844  0.00  0.00    +0.000 C 
ATOM      5  C   UNL     1       3.739   3.361  17.298  0.00  0.00    +0.000 C 
ATOM      6  C   UNL     1       3.182   3.845  18.631  0.00  0.00    +0.000 C 
ENDROOT
BRANCH   1   7
ATOM      7  C   UNL     1       2.462   5.708  20.039  0.00  0.00    +0.000 C 
ATOM      8  C   UNL     1       1.493   4.763  20.778  0.00  0.00    +0.000 C 
BRANCH   7  12
ATOM      9  C   UNL     1       0.734   9.706  20.183  0.00  0.00    +0.000 A 
ATOM     10  C   UNL     1       0.541   8.802  21.230  0.00  0.00    +0.000 A 
ATOM     11  C   UNL     1       1.110   7.525  21.182  0.00  0.00    +0.000 A 
ATOM     12  C   UNL     1       1.875   7.119  20.079  0.00  0.00    +0.000 A 
ATOM     13  C   UNL     1       2.058   8.023  19.022  0.00  0.00    +0.000 A 
ATOM     14  C   UNL     1       1.487   9.301  19.071  0.00  0.00    +0.000 A 
ATOM     15 CL   UNL     1       1.759  10.364  17.733  0.00  0.00    +0.000 Cl
BRANCH   9  17
ATOM     16  C   UNL     1       0.892  11.966  20.881  0.00  0.00    +0.000 C 
ATOM     17  O   UNL     1       0.186  10.963  20.159  0.00  0.00    +0.000 OA
ENDBRANCH   9  17
ENDBRANCH   7  12
ENDBRANCH   1   7
BRANCH   4  18
ATOM     18  N   UNL     1       6.136   4.066  17.697  0.00  0.00    +0.000 NA
ATOM     19  H   UNL     1       6.319   3.153  18.111  0.00  0.00    +0.000 HD
BRANCH  18  20
ATOM     20  S   UNL     1       7.588   4.826  17.342  0.00  0.00    +0.000 S 
ATOM     21  C   UNL     1       7.546   6.283  18.365  0.00  0.00    +0.000 C 
ATOM     22  O   UNL     1       8.617   3.941  17.839  0.00  0.00    +0.000 OA
ATOM     23  O   UNL     1       7.567   5.220  15.950  0.00  0.00    +0.000 OA
ENDBRANCH  18  20
ENDBRANCH   4  18
TORSDOF 5
ENDMDL
MODEL 5
REMARK VINA RESULT:      -7.1      1.689      2.533
REMARK  Name = 
REMARK  8 active torsions:
REMARK  status: ('A' for Active; 'I' for Inactive)
REMARK    1  A    between atoms: C_1  and  O_2
REMARK    2  A    between atoms: O_2  and  C_3
REMARK    3  A    between atoms: C_6  and  C_7
REMARK    4  A    between atoms: C_7  and  C_8
REMARK    5  A    between atoms: C_7  and  N_9
REMARK    6  A    between atoms: C_12  and  N_13
REMARK    7  A    between atoms: N_13  and  S_14
REMARK    8  A    between atoms: S_14  and  C_15
REMARK                            x       y       z     vdW  Elec       q    Type
REMARK                         _______ _______ _______ _____ _____    ______ ____
ROOT
ATOM      1  N   UNL     1       4.574   5.840  18.931  0.00  0.00    +0.000 NA
ATOM      2  C   UNL     1       5.222   4.512  18.962  0.00  0.00    +0.000 C 
ATOM      3  C   UNL     1       6.729   4.538  18.682  0.00  0.00    +0.000 C 
ATOM      4  C   UNL     1       7.065   5.280  17.387  0.00  0.00    +0.000 C 
ATOM      5  C   UNL     1       6.456   6.668  17.478  0.00  0.00    +0.000 C 
ATOM      6  C   UNL     1       4.956   6.618  17.738  0.00  0.00    +0.000 C 
ENDROOT
BRANCH   1   7
ATOM      7  C   UNL     1       3.087   5.686  19.007  0.00  0.00    +0.000 C 
ATOM      8  C   UNL     1       2.455   4.937  17.816  0.00  0.00    +0.000 C 
BRANCH   7  12
ATOM      9  C   UNL     1       1.072   9.529  19.409  0.00  0.00    +0.000 A 
ATOM     10  C   UNL     1       1.555   9.097  18.172  0.00  0.00    +0.000 A 
ATOM     11  C   UNL     1       2.189   7.856  18.049  0.00  0.00    +0.000 A 
ATOM     12  C   UNL     1       2.366   7.025  19.164  0.00  0.00    +0.000 A 
ATOM     13  C   UNL     1       1.891   7.464  20.409  0.00  0.00    +0.000 A 
ATOM     14  C   UNL     1       1.256   8.707  20.531  0.00  0.00    +0.000 A 
ATOM     15 CL   UNL     1       0.693   9.182  22.096  0.00  0.00    +0.000 Cl
BRANCH   9  17
ATOM     16  C   UNL     1       1.075  11.858  18.964  0.00  0.00    +0.000 C 
ATOM     17  O   UNL     1       0.461  10.743  19.601  0.00  0.00    +0.000 OA
ENDBRANCH   9  17
ENDBRANCH   7  12
ENDBRANCH   1   7
BRANCH   4  18
ATOM     18  N   UNL     1       6.618   4.475  16.226  0.00  0.00    +0.000 NA
ATOM     19  H   UNL     1       5.814   3.865  16.370  0.00  0.00    +0.000 HD
BRANCH  18  20
ATOM     20  S   UNL     1       6.607   5.060  14.654  0.00  0.00    +0.000 S 
ATOM     21  C   UNL     1       6.247   3.613  13.683  0.00  0.00    +0.000 C 
ATOM     22  O   UNL     1       5.476   5.957  14.585  0.00  0.00    +0.000 OA
ATOM     23  O   UNL     1       7.938   5.530  14.335  0.00  0.00    +0.000 OA
ENDBRANCH  18  20
ENDBRANCH   4  18
TORSDOF 5
ENDMDL
MODEL 6
REMARK VINA RESULT:      -7.0      1.537      2.390
REMARK  Name = 
REMARK  8 active torsions:
REMARK  status: ('A' for Active; 'I' for Inactive)
REMARK    1  A    between atoms: C_1  and  O_2
REMARK    2  A    between atoms: O_2  and  C_3
REMARK    3  A    between atoms: C_6  and  C_7
REMARK    4  A    between atoms: C_7  and  C_8
REMARK    5  A    between atoms: C_7  and  N_9
REMARK    6  A    between atoms: C_12  and  N_13
REMARK    7  A    between atoms: N_13  and  S_14
REMARK    8  A    between atoms: S_14  and  C_15
REMARK                            x       y       z     vdW  Elec       q    Type
REMARK                         _______ _______ _______ _____ _____    ______ ____
ROOT
ATOM      1  N   UNL     1       2.901   5.993  18.754  0.00  0.00    +0.000 NA
ATOM      2  C   UNL     1       2.751   4.846  17.832  0.00  0.00    +0.000 C 
ATOM      3  C   UNL     1       3.566   3.609  18.226  0.00  0.00    +0.000 C 
ATOM      4  C   UNL     1       5.042   3.936  18.457  0.00  0.00    +0.000 C 
ATOM      5  C   UNL     1       5.114   5.045  19.491  0.00  0.00    +0.000 C 
ATOM      6  C   UNL     1       4.314   6.272  19.071  0.00  0.00    +0.000 C 
ENDROOT
BRANCH   1   7
ATOM      7  C   UNL     1       2.240   7.205  18.175  0.00  0.00    +0.000 C 
ATOM      8  C   UNL     1       3.121   8.015  17.202  0.00  0.00    +0.000 C 
BRANCH   7  12
ATOM      9  C   UNL     1       0.723   9.871  21.271  0.00  0.00    +0.000 A 
ATOM     10  C   UNL     1       1.128   8.570  21.578  0.00  0.00    +0.000 A 
ATOM     11  C   UNL     1       1.625   7.724  20.581  0.00  0.00    +0.000 A 
ATOM     12  C   UNL     1       1.718   8.158  19.251  0.00  0.00    +0.000 A 
ATOM     13  C   UNL     1       1.301   9.461  18.940  0.00  0.00    +0.000 A 
ATOM     14  C   UNL     1       0.802  10.306  19.940  0.00  0.00    +0.000 A 
ATOM     15 CL   UNL     1       0.310  11.901  19.484  0.00  0.00    +0.000 Cl
BRANCH   9  17
ATOM     16  C   UNL     1      -0.646  10.169  23.183  0.00  0.00    +0.000 C 
ATOM     17  O   UNL     1       0.207  10.740  22.198  0.00  0.00    +0.000 OA
ENDBRANCH   9  17
ENDBRANCH   7  12
ENDBRANCH   1   7
BRANCH   4  18
ATOM     18  N   UNL     1       5.688   4.246  17.160  0.00  0.00    +0.000 NA
ATOM     19  H   UNL     1       5.111   4.702  16.454  0.00  0.00    +0.000 HD
BRANCH  18  20
ATOM     20  S   UNL     1       7.270   4.790  17.031  0.00  0.00    +0.000 S 
ATOM     21  C   UNL     1       7.104   6.558  17.160  0.00  0.00    +0.000 C 
ATOM     22  O   UNL     1       7.942   4.300  18.212  0.00  0.00    +0.000 OA
ATOM     23  O   UNL     1       7.760   4.452  15.712  0.00  0.00    +0.000 OA
ENDBRANCH  18  20
ENDBRANCH   4  18
TORSDOF 5
ENDMDL
MODEL 7
REMARK VINA RESULT:      -6.9      4.744      7.439
REMARK  Name = 
REMARK  8 active torsions:
REMARK  status: ('A' for Active; 'I' for Inactive)
REMARK    1  A    between atoms: C_1  and  O_2
REMARK    2  A    between atoms: O_2  and  C_3
REMARK    3  A    between atoms: C_6  and  C_7
REMARK    4  A    between atoms: C_7  and  C_8
REMARK    5  A    between atoms: C_7  and  N_9
REMARK    6  A    between atoms: C_12  and  N_13
REMARK    7  A    between atoms: N_13  and  S_14
REMARK    8  A    between atoms: S_14  and  C_15
REMARK                            x       y       z     vdW  Elec       q    Type
REMARK                         _______ _______ _______ _____ _____    ______ ____
ROOT
ATOM      1  N   UNL     1       5.209   5.875  18.387  0.00  0.00    +0.000 NA
ATOM      2  C   UNL     1       4.247   6.060  17.280  0.00  0.00    +0.000 C 
ATOM      3  C   UNL     1       2.827   6.421  17.731  0.00  0.00    +0.000 C 
ATOM      4  C   UNL     1       2.282   5.441  18.772  0.00  0.00    +0.000 C 
ATOM      5  C   UNL     1       3.273   5.390  19.921  0.00  0.00    +0.000 C 
ATOM      6  C   UNL     1       4.672   5.010  19.454  0.00  0.00    +0.000 C 
ENDROOT
BRANCH   1   7
ATOM      7  C   UNL     1       6.498   5.326  17.860  0.00  0.00    +0.000 C 
ATOM      8  C   UNL     1       7.699   6.287  17.969  0.00  0.00    +0.000 C 
BRANCH   7  12
ATOM      9  C   UNL     1       6.173   3.949  13.738  0.00  0.00    +0.000 A 
ATOM     10  C   UNL     1       5.352   3.422  14.738  0.00  0.00    +0.000 A 
ATOM     11  C   UNL     1       5.455   3.879  16.057  0.00  0.00    +0.000 A 
ATOM     12  C   UNL     1       6.388   4.864  16.407  0.00  0.00    +0.000 A 
ATOM     13  C   UNL     1       7.220   5.385  15.404  0.00  0.00    +0.000 A 
ATOM     14  C   UNL     1       7.118   4.926  14.084  0.00  0.00    +0.000 A 
ATOM     15 CL   UNL     1       8.173   5.616  12.900  0.00  0.00    +0.000 Cl
BRANCH   9  17
ATOM     16  C   UNL     1       4.855   3.179  11.924  0.00  0.00    +0.000 C 
ATOM     17  O   UNL     1       6.138   3.529  12.432  0.00  0.00    +0.000 OA
ENDBRANCH   9  17
ENDBRANCH   7  12
ENDBRANCH   1   7
BRANCH   4  18
ATOM     18  N   UNL     1       2.004   4.137  18.126  0.00  0.00    +0.000 NA
ATOM     19  H   UNL     1       2.615   3.865  17.356  0.00  0.00    +0.000 HD
BRANCH  18  20
ATOM     20  S   UNL     1       1.531   2.773  18.979  0.00  0.00    +0.000 S 
ATOM     21  C   UNL     1       1.014   3.435  20.549  0.00  0.00    +0.000 C 
ATOM     22  O   UNL     1       0.369   2.269  18.284  0.00  0.00    +0.000 OA
ATOM     23  O   UNL     1       2.693   1.934  19.175  0.00  0.00    +0.000 OA
ENDBRANCH  18  20
ENDBRANCH   4  18
TORSDOF 5
ENDMDL
MODEL 8
REMARK VINA RESULT:      -6.9      1.681      2.703
REMARK  Name = 
REMARK  8 active torsions:
REMARK  status: ('A' for Active; 'I' for Inactive)
REMARK    1  A    between atoms: C_1  and  O_2
REMARK    2  A    between atoms: O_2  and  C_3
REMARK    3  A    between atoms: C_6  and  C_7
REMARK    4  A    between atoms: C_7  and  C_8
REMARK    5  A    between atoms: C_7  and  N_9
REMARK    6  A    between atoms: C_12  and  N_13
REMARK    7  A    between atoms: N_13  and  S_14
REMARK    8  A    between atoms: S_14  and  C_15
REMARK                            x       y       z     vdW  Elec       q    Type
REMARK                         _______ _______ _______ _____ _____    ______ ____
ROOT
ATOM      1  N   UNL     1       3.185   6.081  18.757  0.00  0.00    +0.000 NA
ATOM      2  C   UNL     1       2.825   4.820  18.072  0.00  0.00    +0.000 C 
ATOM      3  C   UNL     1       3.725   3.630  18.425  0.00  0.00    +0.000 C 
ATOM      4  C   UNL     1       5.209   3.950  18.239  0.00  0.00    +0.000 C 
ATOM      5  C   UNL     1       5.521   5.190  19.056  0.00  0.00    +0.000 C 
ATOM      6  C   UNL     1       4.630   6.366  18.676  0.00  0.00    +0.000 C 
ENDROOT
BRANCH   1   7
ATOM      7  C   UNL     1       2.390   7.216  18.193  0.00  0.00    +0.000 C 
ATOM      8  C   UNL     1       3.156   8.101  17.189  0.00  0.00    +0.000 C 
BRANCH   7  12
ATOM      9  C   UNL     1       0.704   9.744  21.316  0.00  0.00    +0.000 A 
ATOM     10  C   UNL     1       1.164   8.457  21.604  0.00  0.00    +0.000 A 
ATOM     11  C   UNL     1       1.715   7.657  20.597  0.00  0.00    +0.000 A 
ATOM     12  C   UNL     1       1.808   8.121  19.278  0.00  0.00    +0.000 A 
ATOM     13  C   UNL     1       1.336   9.410  18.987  0.00  0.00    +0.000 A 
ATOM     14  C   UNL     1       0.783  10.211  19.995  0.00  0.00    +0.000 A 
ATOM     15 CL   UNL     1       0.225  11.790  19.564  0.00  0.00    +0.000 Cl
BRANCH   9  17
ATOM     16  C   UNL     1      -0.441   9.927  23.384  0.00  0.00    +0.000 C 
ATOM     17  O   UNL     1       0.134  10.570  22.251  0.00  0.00    +0.000 OA
ENDBRANCH   9  17
ENDBRANCH   7  12
ENDBRANCH   1   7
BRANCH   4  18
ATOM     18  N   UNL     1       5.513   4.060  16.793  0.00  0.00    +0.000 NA
ATOM     19  H   UNL     1       4.733   4.276  16.173  0.00  0.00    +0.000 HD
BRANCH  18  20
ATOM     20  S   UNL     1       6.915   4.766  16.202  0.00  0.00    +0.000 S 
ATOM     21  C   UNL     1       6.933   4.267  14.493  0.00  0.00    +0.000 C 
ATOM     22  O   UNL     1       6.684   6.191  16.266  0.00  0.00    +0.000 OA
ATOM     23  O   UNL     1       8.044   4.173  16.884  0.00  0.00    +0.000 OA
ENDBRANCH  18  20
ENDBRANCH   4  18
TORSDOF 5
ENDMDL
MODEL 9
REMARK VINA RESULT:      -6.8      3.600      7.826
REMARK  Name = 
REMARK  8 active torsions:
REMARK  status: ('A' for Active; 'I' for Inactive)
REMARK    1  A    between atoms: C_1  and  O_2
REMARK    2  A    between atoms: O_2  and  C_3
REMARK    3  A    between atoms: C_6  and  C_7
REMARK    4  A    between atoms: C_7  and  C_8
REMARK    5  A    between atoms: C_7  and  N_9
REMARK    6  A    between atoms: C_12  and  N_13
REMARK    7  A    between atoms: N_13  and  S_14
REMARK    8  A    between atoms: S_14  and  C_15
REMARK                            x       y       z     vdW  Elec       q    Type
REMARK                         _______ _______ _______ _____ _____    ______ ____
ROOT
ATOM      1  N   UNL     1       2.265   7.780  19.179  0.00  0.00    +0.000 NA
ATOM      2  C   UNL     1       1.845   8.483  17.948  0.00  0.00    +0.000 C 
ATOM      3  C   UNL     1       1.703  10.001  18.106  0.00  0.00    +0.000 C 
ATOM      4  C   UNL     1       0.806  10.380  19.285  0.00  0.00    +0.000 C 
ATOM      5  C   UNL     1       1.366   9.707  20.526  0.00  0.00    +0.000 C 
ATOM      6  C   UNL     1       1.480   8.198  20.355  0.00  0.00    +0.000 C 
ENDROOT
BRANCH   1   7
ATOM      7  C   UNL     1       2.173   6.299  18.981  0.00  0.00    +0.000 C 
ATOM      8  C   UNL     1       2.059   5.482  20.284  0.00  0.00    +0.000 C 
BRANCH   7  12
ATOM      9  C   UNL     1       5.492   4.649  16.690  0.00  0.00    +0.000 A 
ATOM     10  C   UNL     1       4.283   3.959  16.802  0.00  0.00    +0.000 A 
ATOM     11  C   UNL     1       3.218   4.502  17.529  0.00  0.00    +0.000 A 
ATOM     12  C   UNL     1       3.343   5.742  18.171  0.00  0.00    +0.000 A 
ATOM     13  C   UNL     1       4.561   6.429  18.068  0.00  0.00    +0.000 A 
ATOM     14  C   UNL     1       5.627   5.885  17.340  0.00  0.00    +0.000 A 
ATOM     15 CL   UNL     1       7.099   6.790  17.253  0.00  0.00    +0.000 Cl
BRANCH   9  17
ATOM     16  C   UNL     1       6.550   4.309  14.596  0.00  0.00    +0.000 C 
ATOM     17  O   UNL     1       6.580   4.162  16.011  0.00  0.00    +0.000 OA
ENDBRANCH   9  17
ENDBRANCH   7  12
ENDBRANCH   1   7
BRANCH   4  18
ATOM     18  N   UNL     1      -0.600  10.039  18.968  0.00  0.00    +0.000 NA
ATOM     19  H   UNL     1      -1.030   9.297  19.519  0.00  0.00    +0.000 HD
BRANCH  18  20
ATOM     20  S   UNL     1      -1.756  11.188  18.571  0.00  0.00    +0.000 S 
ATOM     21  C   UNL     1      -3.012  10.234  17.745  0.00  0.00    +0.000 C 
ATOM     22  O   UNL     1      -2.283  11.655  19.832  0.00  0.00    +0.000 OA
ATOM     23  O   UNL     1      -1.168  12.117  17.631  0.00  0.00    +0.000 OA
ENDBRANCH  18  20
ENDBRANCH   4  18
TORSDOF 5
ENDMDL
