MODEL 1
REMARK VINA RESULT:      -6.7      0.000      0.000
REMARK  Name = 
REMARK  7 active torsions:
REMARK  status: ('A' for Active; 'I' for Inactive)
REMARK    1  A    between atoms: C_1  and  C_2
REMARK    2  A    between atoms: C_5  and  N_6
REMARK    3  A    between atoms: N_6  and  C_7
REMARK    4  A    between atoms: C_21  and  C_22
REMARK    5  A    between atoms: C_25  and  N_26
REMARK    6  A    between atoms: N_26  and  C_27
REMARK    7  A    between atoms: C_33  and  O_34
REMARK                            x       y       z     vdW  Elec       q    Type
REMARK                         _______ _______ _______ _____ _____    ______ ____
ROOT
ATOM      1  C   UNL     1       3.671  17.132  20.717  0.00  0.00    +0.000 C 
ATOM      2  C   UNL     1       3.546  15.637  20.333  0.00  0.00    +0.000 C 
ATOM      3  C   UNL     1       2.409  15.518  19.353  0.00  0.00    +0.000 C 
ATOM      4  C   UNL     1       2.007  14.048  19.282  0.00  0.00    +0.000 C 
ATOM      5  C   UNL     1       0.972  13.846  20.387  0.00  0.00    +0.000 C 
ATOM      6  C   UNL     1       1.573  14.618  21.714  0.00  0.00    +0.000 C 
ATOM      7  C   UNL     1       3.197  14.715  21.555  0.00  0.00    +0.000 C 
ATOM      8  C   UNL     1       4.292  14.967  22.618  0.00  0.00    +0.000 C 
ATOM      9  C   UNL     1       5.712  14.613  21.987  0.00  0.00    +0.000 C 
ATOM     10  C   UNL     1       6.025  15.218  20.572  0.00  0.00    +0.000 C 
ATOM     11  C   UNL     1       4.805  15.075  19.655  0.00  0.00    +0.000 C 
ATOM     12  C   UNL     1       4.983  15.547  18.186  0.00  0.00    +0.000 C 
ATOM     13  C   UNL     1       6.219  14.976  17.513  0.00  0.00    +0.000 C 
ATOM     14  C   UNL     1       7.436  15.224  18.395  0.00  0.00    +0.000 C 
ATOM     15  C   UNL     1       7.691  16.752  18.446  0.00  0.00    +0.000 C 
ATOM     16  C   UNL     1       7.158  14.548  19.776  0.00  0.00    +0.000 C 
ATOM     17  C   UNL     1       8.526  14.468  20.392  0.00  0.00    +0.000 C 
ATOM     18  C   UNL     1       9.371  13.941  19.207  0.00  0.00    +0.000 C 
ATOM     19  C   UNL     1       8.693  14.473  17.895  0.00  0.00    +0.000 C 
ENDROOT
BRANCH   5  20
ATOM     20  N   UNL     1      -0.440  14.193  19.689  0.00  0.00    +0.000 N 
ATOM     21  C   UNL     1      -0.608  15.663  19.239  0.00  0.00    +0.000 C 
ATOM     22  C   UNL     1      -0.578  13.351  18.325  0.00  0.00    +0.000 C 
ATOM     23  C   UNL     1      -0.868  11.880  18.590  0.00  0.00    +0.000 C 
ATOM     24  O   UNL     1      -2.105  11.769  19.284  0.00  0.00    +0.000 OA
ATOM     25  C   UNL     1      -2.039  12.385  20.574  0.00  0.00    +0.000 C 
ATOM     26  C   UNL     1      -1.705  13.876  20.514  0.00  0.00    +0.000 C 
ENDBRANCH   5  20
BRANCH  18  27
ATOM     27  N   UNL     1      10.872  14.142  19.427  0.00  0.00    +0.000 N 
ATOM     28  C   UNL     1      11.204  15.571  19.863  0.00  0.00    +0.000 C 
ATOM     29  C   UNL     1      11.381  13.149  20.522  0.00  0.00    +0.000 C 
ATOM     30  C   UNL     1      11.319  11.691  20.033  0.00  0.00    +0.000 C 
ATOM     31  O   UNL     1      12.120  11.517  18.861  0.00  0.00    +0.000 OA
ATOM     32  C   UNL     1      11.702  12.347  17.779  0.00  0.00    +0.000 C 
ATOM     33  C   UNL     1      11.728  13.845  18.158  0.00  0.00    +0.000 C 
ENDBRANCH  18  27
BRANCH  19  34
ATOM     34  O   UNL     1       9.500  15.267  17.043  0.00  0.00    +0.000 OA
ATOM     35  H   UNL     1       9.442  16.192  17.356  0.00  0.00    +0.000 HD
ENDBRANCH  19  34
TORSDOF 3
ENDMDL
MODEL 2
REMARK VINA RESULT:      -6.0      0.983      1.350
REMARK  Name = 
REMARK  7 active torsions:
REMARK  status: ('A' for Active; 'I' for Inactive)
REMARK    1  A    between atoms: C_1  and  C_2
REMARK    2  A    between atoms: C_5  and  N_6
REMARK    3  A    between atoms: N_6  and  C_7
REMARK    4  A    between atoms: C_21  and  C_22
REMARK    5  A    between atoms: C_25  and  N_26
REMARK    6  A    between atoms: N_26  and  C_27
REMARK    7  A    between atoms: C_33  and  O_34
REMARK                            x       y       z     vdW  Elec       q    Type
REMARK                         _______ _______ _______ _____ _____    ______ ____
ROOT
ATOM      1  C   UNL     1       2.871  17.071  20.600  0.00  0.00    +0.000 C 
ATOM      2  C   UNL     1       2.945  15.538  20.402  0.00  0.00    +0.000 C 
ATOM      3  C   UNL     1       1.828  15.150  19.470  0.00  0.00    +0.000 C 
ATOM      4  C   UNL     1       1.626  13.642  19.586  0.00  0.00    +0.000 C 
ATOM      5  C   UNL     1       0.633  13.443  20.730  0.00  0.00    +0.000 C 
ATOM      6  C   UNL     1       1.133  14.445  21.940  0.00  0.00    +0.000 C 
ATOM      7  C   UNL     1       2.728  14.735  21.735  0.00  0.00    +0.000 C 
ATOM      8  C   UNL     1       3.787  15.258  22.735  0.00  0.00    +0.000 C 
ATOM      9  C   UNL     1       5.237  15.019  22.120  0.00  0.00    +0.000 C 
ATOM     10  C   UNL     1       5.459  15.482  20.636  0.00  0.00    +0.000 C 
ATOM     11  C   UNL     1       4.264  15.067  19.770  0.00  0.00    +0.000 C 
ATOM     12  C   UNL     1       4.369  15.374  18.252  0.00  0.00    +0.000 C 
ATOM     13  C   UNL     1       5.666  14.893  17.625  0.00  0.00    +0.000 C 
ATOM     14  C   UNL     1       6.844  15.406  18.445  0.00  0.00    +0.000 C 
ATOM     15  C   UNL     1       6.893  16.948  18.304  0.00  0.00    +0.000 C 
ATOM     16  C   UNL     1       6.666  14.874  19.902  0.00  0.00    +0.000 C 
ATOM     17  C   UNL     1       8.036  15.051  20.494  0.00  0.00    +0.000 C 
ATOM     18  C   UNL     1       8.938  14.498  19.363  0.00  0.00    +0.000 C 
ATOM     19  C   UNL     1       8.187  14.771  18.011  0.00  0.00    +0.000 C 
ENDROOT
BRANCH   5  20
ATOM     20  N   UNL     1      -0.816  13.512  20.026  0.00  0.00    +0.000 N 
ATOM     21  C   UNL     1      -0.807  13.376  18.486  0.00  0.00    +0.000 C 
ATOM     22  C   UNL     1      -1.707  12.267  20.522  0.00  0.00    +0.000 C 
ATOM     23  C   UNL     1      -2.195  12.450  21.952  0.00  0.00    +0.000 C 
ATOM     24  O   UNL     1      -3.015  13.610  22.018  0.00  0.00    +0.000 OA
ATOM     25  C   UNL     1      -2.272  14.795  21.713  0.00  0.00    +0.000 C 
ATOM     26  C   UNL     1      -1.654  14.776  20.314  0.00  0.00    +0.000 C 
ENDBRANCH   5  20
BRANCH  18  27
ATOM     27  N   UNL     1      10.400  14.921  19.524  0.00  0.00    +0.000 N 
ATOM     28  C   UNL     1      10.539  16.420  19.804  0.00  0.00    +0.000 C 
ATOM     29  C   UNL     1      11.051  14.125  20.702  0.00  0.00    +0.000 C 
ATOM     30  C   UNL     1      11.183  12.629  20.365  0.00  0.00    +0.000 C 
ATOM     31  O   UNL     1      11.987  12.444  19.198  0.00  0.00    +0.000 OA
ATOM     32  C   UNL     1      11.448  13.092  18.047  0.00  0.00    +0.000 C 
ATOM     33  C   UNL     1      11.274  14.611  18.271  0.00  0.00    +0.000 C 
ENDBRANCH  18  27
BRANCH  19  34
ATOM     34  O   UNL     1       8.876  15.553  17.052  0.00  0.00    +0.000 OA
ATOM     35  H   UNL     1       8.235  15.802  16.356  0.00  0.00    +0.000 HD
ENDBRANCH  19  34
TORSDOF 3
ENDMDL
MODEL 3
REMARK VINA RESULT:      -6.0      6.630      8.331
REMARK  Name = 
REMARK  7 active torsions:
REMARK  status: ('A' for Active; 'I' for Inactive)
REMARK    1  A    between atoms: C_1  and  C_2
REMARK    2  A    between atoms: C_5  and  N_6
REMARK    3  A    between atoms: N_6  and  C_7
REMARK    4  A    between atoms: C_21  and  C_22
REMARK    5  A    between atoms: C_25  and  N_26
REMARK    6  A    between atoms: N_26  and  C_27
REMARK    7  A    between atoms: C_33  and  O_34
REMARK                            x       y       z     vdW  Elec       q    Type
REMARK                         _______ _______ _______ _____ _____    ______ ____
ROOT
ATOM      1  C   UNL     1       0.173  13.045  21.595  0.00  0.00    +0.000 C 
ATOM      2  C   UNL     1      -1.020  12.146  21.189  0.00  0.00    +0.000 C 
ATOM      3  C   UNL     1      -1.988  13.004  20.419  0.00  0.00    +0.000 C 
ATOM      4  C   UNL     1      -3.325  12.270  20.370  0.00  0.00    +0.000 C 
ATOM      5  C   UNL     1      -4.077  12.693  21.631  0.00  0.00    +0.000 C 
ATOM      6  C   UNL     1      -2.979  12.616  22.858  0.00  0.00    +0.000 C 
ATOM      7  C   UNL     1      -1.802  11.568  22.423  0.00  0.00    +0.000 C 
ATOM      8  C   UNL     1      -0.760  10.820  23.287  0.00  0.00    +0.000 C 
ATOM      9  C   UNL     1      -0.093   9.670  22.408  0.00  0.00    +0.000 C 
ATOM     10  C   UNL     1       0.418  10.081  20.981  0.00  0.00    +0.000 C 
ATOM     11  C   UNL     1      -0.618  10.971  20.285  0.00  0.00    +0.000 C 
ATOM     12  C   UNL     1      -0.301  11.391  18.824  0.00  0.00    +0.000 C 
ATOM     13  C   UNL     1       0.079  10.225  17.928  0.00  0.00    +0.000 C 
ATOM     14  C   UNL     1       1.185   9.415  18.594  0.00  0.00    +0.000 C 
ATOM     15  C   UNL     1       2.459  10.295  18.650  0.00  0.00    +0.000 C 
ATOM     16  C   UNL     1       0.644   8.936  19.979  0.00  0.00    +0.000 C 
ATOM     17  C   UNL     1       1.593   7.830  20.346  0.00  0.00    +0.000 C 
ATOM     18  C   UNL     1       1.684   7.044  19.015  0.00  0.00    +0.000 C 
ATOM     19  C   UNL     1       1.467   8.083  17.859  0.00  0.00    +0.000 C 
ENDROOT
BRANCH   5  20
ATOM     20  N   UNL     1      -4.873  14.027  21.200  0.00  0.00    +0.000 N 
ATOM     21  C   UNL     1      -3.986  15.264  20.924  0.00  0.00    +0.000 C 
ATOM     22  C   UNL     1      -5.625  13.768  19.801  0.00  0.00    +0.000 C 
ATOM     23  C   UNL     1      -6.848  12.878  19.968  0.00  0.00    +0.000 C 
ATOM     24  O   UNL     1      -7.775  13.520  20.834  0.00  0.00    +0.000 OA
ATOM     25  C   UNL     1      -7.237  13.682  22.151  0.00  0.00    +0.000 C 
ATOM     26  C   UNL     1      -5.958  14.521  22.180  0.00  0.00    +0.000 C 
ENDBRANCH   5  20
BRANCH  18  27
ATOM     27  N   UNL     1       2.888   6.100  18.978  0.00  0.00    +0.000 N 
ATOM     28  C   UNL     1       4.215   6.860  18.896  0.00  0.00    +0.000 C 
ATOM     29  C   UNL     1       2.896   5.207  20.261  0.00  0.00    +0.000 C 
ATOM     30  C   UNL     1       1.713   4.222  20.269  0.00  0.00    +0.000 C 
ATOM     31  O   UNL     1       1.762   3.365  19.125  0.00  0.00    +0.000 OA
ATOM     32  C   UNL     1       1.707   4.085  17.895  0.00  0.00    +0.000 C 
ATOM     33  C   UNL     1       2.859   5.108  17.774  0.00  0.00    +0.000 C 
ENDBRANCH  18  27
BRANCH  19  34
ATOM     34  O   UNL     1       2.510   8.197  16.906  0.00  0.00    +0.000 OA
ATOM     35  H   UNL     1       2.311   7.580  16.173  0.00  0.00    +0.000 HD
ENDBRANCH  19  34
TORSDOF 3
ENDMDL
MODEL 4
REMARK VINA RESULT:      -6.0      6.125      7.988
REMARK  Name = 
REMARK  7 active torsions:
REMARK  status: ('A' for Active; 'I' for Inactive)
REMARK    1  A    between atoms: C_1  and  C_2
REMARK    2  A    between atoms: C_5  and  N_6
REMARK    3  A    between atoms: N_6  and  C_7
REMARK    4  A    between atoms: C_21  and  C_22
REMARK    5  A    between atoms: C_25  and  N_26
REMARK    6  A    between atoms: N_26  and  C_27
REMARK    7  A    between atoms: C_33  and  O_34
REMARK                            x       y       z     vdW  Elec       q    Type
REMARK                         _______ _______ _______ _____ _____    ______ ____
ROOT
ATOM      1  C   UNL     1      -1.079   9.719  18.374  0.00  0.00    +0.000 C 
ATOM      2  C   UNL     1      -0.064  10.103  19.478  0.00  0.00    +0.000 C 
ATOM      3  C   UNL     1      -0.831  10.231  20.768  0.00  0.00    +0.000 C 
ATOM      4  C   UNL     1       0.045  10.994  21.757  0.00  0.00    +0.000 C 
ATOM      5  C   UNL     1      -0.255  12.474  21.523  0.00  0.00    +0.000 C 
ATOM      6  C   UNL     1      -0.266  12.678  19.888  0.00  0.00    +0.000 C 
ATOM      7  C   UNL     1       0.631  11.487  19.219  0.00  0.00    +0.000 C 
ATOM      8  C   UNL     1       1.283  11.392  17.820  0.00  0.00    +0.000 C 
ATOM      9  C   UNL     1       2.327  10.188  17.819  0.00  0.00    +0.000 C 
ATOM     10  C   UNL     1       1.822   8.818  18.398  0.00  0.00    +0.000 C 
ATOM     11  C   UNL     1       1.033   9.050  19.692  0.00  0.00    +0.000 C 
ATOM     12  C   UNL     1       0.540   7.781  20.439  0.00  0.00    +0.000 C 
ATOM     13  C   UNL     1       1.630   6.749  20.664  0.00  0.00    +0.000 C 
ATOM     14  C   UNL     1       2.331   6.457  19.343  0.00  0.00    +0.000 C 
ATOM     15  C   UNL     1       1.317   5.753  18.406  0.00  0.00    +0.000 C 
ATOM     16  C   UNL     1       2.906   7.807  18.810  0.00  0.00    +0.000 C 
ATOM     17  C   UNL     1       3.909   7.363  17.783  0.00  0.00    +0.000 C 
ATOM     18  C   UNL     1       4.643   6.227  18.536  0.00  0.00    +0.000 C 
ATOM     19  C   UNL     1       3.602   5.593  19.525  0.00  0.00    +0.000 C 
ENDROOT
BRANCH   5  20
ATOM     20  N   UNL     1      -1.505  12.791  22.493  0.00  0.00    +0.000 N 
ATOM     21  C   UNL     1      -1.933  11.629  23.418  0.00  0.00    +0.000 C 
ATOM     22  C   UNL     1      -1.101  13.971  23.510  0.00  0.00    +0.000 C 
ATOM     23  C   UNL     1      -1.060  15.328  22.822  0.00  0.00    +0.000 C 
ATOM     24  O   UNL     1      -2.354  15.631  22.316  0.00  0.00    +0.000 OA
ATOM     25  C   UNL     1      -2.752  14.700  21.303  0.00  0.00    +0.000 C 
ATOM     26  C   UNL     1      -2.804  13.254  21.801  0.00  0.00    +0.000 C 
ENDBRANCH   5  20
BRANCH  18  27
ATOM     27  N   UNL     1       5.446   5.328  17.593  0.00  0.00    +0.000 N 
ATOM     28  C   UNL     1       4.549   4.364  16.811  0.00  0.00    +0.000 C 
ATOM     29  C   UNL     1       6.244   6.209  16.578  0.00  0.00    +0.000 C 
ATOM     30  C   UNL     1       7.353   7.013  17.281  0.00  0.00    +0.000 C 
ATOM     31  O   UNL     1       8.274   6.136  17.936  0.00  0.00    +0.000 OA
ATOM     32  C   UNL     1       7.649   5.319  18.925  0.00  0.00    +0.000 C 
ATOM     33  C   UNL     1       6.513   4.459  18.327  0.00  0.00    +0.000 C 
ENDBRANCH  18  27
BRANCH  19  34
ATOM     34  O   UNL     1       3.346   4.208  19.374  0.00  0.00    +0.000 OA
ATOM     35  H   UNL     1       4.193   3.772  19.147  0.00  0.00    +0.000 HD
ENDBRANCH  19  34
TORSDOF 3
ENDMDL
MODEL 5
REMARK VINA RESULT:      -6.0      4.117     11.639
REMARK  Name = 
REMARK  7 active torsions:
REMARK  status: ('A' for Active; 'I' for Inactive)
REMARK    1  A    between atoms: C_1  and  C_2
REMARK    2  A    between atoms: C_5  and  N_6
REMARK    3  A    between atoms: N_6  and  C_7
REMARK    4  A    between atoms: C_21  and  C_22
REMARK    5  A    between atoms: C_25  and  N_26
REMARK    6  A    between atoms: N_26  and  C_27
REMARK    7  A    between atoms: C_33  and  O_34
REMARK                            x       y       z     vdW  Elec       q    Type
REMARK                         _______ _______ _______ _____ _____    ______ ____
ROOT
ATOM      1  C   UNL     1      -0.117  17.513  22.824  0.00  0.00    +0.000 C 
ATOM      2  C   UNL     1       0.186  16.387  21.806  0.00  0.00    +0.000 C 
ATOM      3  C   UNL     1       1.497  15.762  22.203  0.00  0.00    +0.000 C 
ATOM      4  C   UNL     1       2.009  14.956  21.014  0.00  0.00    +0.000 C 
ATOM      5  C   UNL     1       2.822  15.933  20.168  0.00  0.00    +0.000 C 
ATOM      6  C   UNL     1       1.922  17.312  20.083  0.00  0.00    +0.000 C 
ATOM      7  C   UNL     1       0.357  16.915  20.337  0.00  0.00    +0.000 C 
ATOM      8  C   UNL     1      -0.938  17.690  19.999  0.00  0.00    +0.000 C 
ATOM      9  C   UNL     1      -2.180  16.701  20.139  0.00  0.00    +0.000 C 
ATOM     10  C   UNL     1      -2.256  15.847  21.454  0.00  0.00    +0.000 C 
ATOM     11  C   UNL     1      -0.874  15.275  21.793  0.00  0.00    +0.000 C 
ATOM     12  C   UNL     1      -0.799  14.329  23.022  0.00  0.00    +0.000 C 
ATOM     13  C   UNL     1      -1.836  13.221  22.999  0.00  0.00    +0.000 C 
ATOM     14  C   UNL     1      -3.216  13.825  22.765  0.00  0.00    +0.000 C 
ATOM     15  C   UNL     1      -3.584  14.677  24.007  0.00  0.00    +0.000 C 
ATOM     16  C   UNL     1      -3.162  14.605  21.413  0.00  0.00    +0.000 C 
ATOM     17  C   UNL     1      -4.615  14.780  21.069  0.00  0.00    +0.000 C 
ATOM     18  C   UNL     1      -5.175  13.365  21.351  0.00  0.00    +0.000 C 
ATOM     19  C   UNL     1      -4.295  12.749  22.496  0.00  0.00    +0.000 C 
ENDROOT
BRANCH   5  20
ATOM     20  N   UNL     1       4.314  15.852  20.776  0.00  0.00    +0.000 N 
ATOM     21  C   UNL     1       4.599  14.614  21.658  0.00  0.00    +0.000 C 
ATOM     22  C   UNL     1       5.372  15.721  19.570  0.00  0.00    +0.000 C 
ATOM     23  C   UNL     1       5.554  17.038  18.828  0.00  0.00    +0.000 C 
ATOM     24  O   UNL     1       6.059  18.014  19.731  0.00  0.00    +0.000 OA
ATOM     25  C   UNL     1       5.124  18.292  20.779  0.00  0.00    +0.000 C 
ATOM     26  C   UNL     1       4.775  17.061  21.617  0.00  0.00    +0.000 C 
ENDBRANCH   5  20
BRANCH  18  27
ATOM     27  N   UNL     1      -6.700  13.355  21.470  0.00  0.00    +0.000 N 
ATOM     28  C   UNL     1      -7.192  14.196  22.651  0.00  0.00    +0.000 C 
ATOM     29  C   UNL     1      -7.334  13.914  20.154  0.00  0.00    +0.000 C 
ATOM     30  C   UNL     1      -7.097  12.964  18.967  0.00  0.00    +0.000 C 
ATOM     31  O   UNL     1      -7.665  11.677  19.229  0.00  0.00    +0.000 OA
ATOM     32  C   UNL     1      -7.112  11.056  20.388  0.00  0.00    +0.000 C 
ATOM     33  C   UNL     1      -7.297  11.926  21.652  0.00  0.00    +0.000 C 
ENDBRANCH  18  27
BRANCH  19  34
ATOM     34  O   UNL     1      -4.976  12.354  23.674  0.00  0.00    +0.000 OA
ATOM     35  H   UNL     1      -4.783  13.018  24.366  0.00  0.00    +0.000 HD
ENDBRANCH  19  34
TORSDOF 3
ENDMDL
MODEL 6
REMARK VINA RESULT:      -5.9      5.459      8.392
REMARK  Name = 
REMARK  7 active torsions:
REMARK  status: ('A' for Active; 'I' for Inactive)
REMARK    1  A    between atoms: C_1  and  C_2
REMARK    2  A    between atoms: C_5  and  N_6
REMARK    3  A    between atoms: N_6  and  C_7
REMARK    4  A    between atoms: C_21  and  C_22
REMARK    5  A    between atoms: C_25  and  N_26
REMARK    6  A    between atoms: N_26  and  C_27
REMARK    7  A    between atoms: C_33  and  O_34
REMARK                            x       y       z     vdW  Elec       q    Type
REMARK                         _______ _______ _______ _____ _____    ______ ____
ROOT
ATOM      1  C   UNL     1      -0.547   9.255  18.765  0.00  0.00    +0.000 C 
ATOM      2  C   UNL     1       0.921   9.230  19.256  0.00  0.00    +0.000 C 
ATOM      3  C   UNL     1       1.720   8.450  18.247  0.00  0.00    +0.000 C 
ATOM      4  C   UNL     1       3.045   8.065  18.898  0.00  0.00    +0.000 C 
ATOM      5  C   UNL     1       2.790   6.736  19.606  0.00  0.00    +0.000 C 
ATOM      6  C   UNL     1       1.348   6.910  20.385  0.00  0.00    +0.000 C 
ATOM      7  C   UNL     1       1.095   8.504  20.638  0.00  0.00    +0.000 C 
ATOM      8  C   UNL     1       0.147   9.222  21.629  0.00  0.00    +0.000 C 
ATOM      9  C   UNL     1       0.553  10.761  21.705  0.00  0.00    +0.000 C 
ATOM     10  C   UNL     1       0.751  11.506  20.337  0.00  0.00    +0.000 C 
ATOM     11  C   UNL     1       1.550  10.627  19.368  0.00  0.00    +0.000 C 
ATOM     12  C   UNL     1       1.909  11.259  17.995  0.00  0.00    +0.000 C 
ATOM     13  C   UNL     1       2.546  12.632  18.109  0.00  0.00    +0.000 C 
ATOM     14  C   UNL     1       1.679  13.521  18.992  0.00  0.00    +0.000 C 
ATOM     15  C   UNL     1       0.340  13.773  18.254  0.00  0.00    +0.000 C 
ATOM     16  C   UNL     1       1.553  12.818  20.382  0.00  0.00    +0.000 C 
ATOM     17  C   UNL     1       1.076  13.927  21.277  0.00  0.00    +0.000 C 
ATOM     18  C   UNL     1       2.010  15.088  20.859  0.00  0.00    +0.000 C 
ATOM     19  C   UNL     1       2.372  14.858  19.348  0.00  0.00    +0.000 C 
ENDROOT
BRANCH   5  20
ATOM     20  N   UNL     1       3.095   5.615  18.487  0.00  0.00    +0.000 N 
ATOM     21  C   UNL     1       3.907   6.107  17.266  0.00  0.00    +0.000 C 
ATOM     22  C   UNL     1       4.017   4.462  19.128  0.00  0.00    +0.000 C 
ATOM     23  C   UNL     1       3.231   3.562  20.071  0.00  0.00    +0.000 C 
ATOM     24  O   UNL     1       2.194   2.918  19.341  0.00  0.00    +0.000 OA
ATOM     25  C   UNL     1       1.245   3.863  18.834  0.00  0.00    +0.000 C 
ATOM     26  C   UNL     1       1.868   4.895  17.891  0.00  0.00    +0.000 C 
ENDBRANCH   5  20
BRANCH  18  27
ATOM     27  N   UNL     1       1.489  16.451  21.320  0.00  0.00    +0.000 N 
ATOM     28  C   UNL     1       0.016  16.657  20.958  0.00  0.00    +0.000 C 
ATOM     29  C   UNL     1       1.650  16.578  22.870  0.00  0.00    +0.000 C 
ATOM     30  C   UNL     1       3.133  16.645  23.278  0.00  0.00    +0.000 C 
ATOM     31  O   UNL     1       3.775  17.766  22.666  0.00  0.00    +0.000 OA
ATOM     32  C   UNL     1       3.728  17.718  21.241  0.00  0.00    +0.000 C 
ATOM     33  C   UNL     1       2.277  17.652  20.714  0.00  0.00    +0.000 C 
ENDBRANCH  18  27
BRANCH  19  34
ATOM     34  O   UNL     1       2.036  15.902  18.451  0.00  0.00    +0.000 OA
ATOM     35  H   UNL     1       2.841  16.439  18.305  0.00  0.00    +0.000 HD
ENDBRANCH  19  34
TORSDOF 3
ENDMDL
MODEL 7
REMARK VINA RESULT:      -5.9      6.617      8.392
REMARK  Name = 
REMARK  7 active torsions:
REMARK  status: ('A' for Active; 'I' for Inactive)
REMARK    1  A    between atoms: C_1  and  C_2
REMARK    2  A    between atoms: C_5  and  N_6
REMARK    3  A    between atoms: N_6  and  C_7
REMARK    4  A    between atoms: C_21  and  C_22
REMARK    5  A    between atoms: C_25  and  N_26
REMARK    6  A    between atoms: N_26  and  C_27
REMARK    7  A    between atoms: C_33  and  O_34
REMARK                            x       y       z     vdW  Elec       q    Type
REMARK                         _______ _______ _______ _____ _____    ______ ____
ROOT
ATOM      1  C   UNL     1      -0.035  13.187  21.797  0.00  0.00    +0.000 C 
ATOM      2  C   UNL     1      -1.212  12.272  21.379  0.00  0.00    +0.000 C 
ATOM      3  C   UNL     1      -2.215  13.131  20.655  0.00  0.00    +0.000 C 
ATOM      4  C   UNL     1      -3.533  12.365  20.602  0.00  0.00    +0.000 C 
ATOM      5  C   UNL     1      -4.274  12.723  21.890  0.00  0.00    +0.000 C 
ATOM      6  C   UNL     1      -3.153  12.631  23.095  0.00  0.00    +0.000 C 
ATOM      7  C   UNL     1      -1.957  11.631  22.603  0.00  0.00    +0.000 C 
ATOM      8  C   UNL     1      -0.882  10.880  23.423  0.00  0.00    +0.000 C 
ATOM      9  C   UNL     1      -0.201   9.780  22.492  0.00  0.00    +0.000 C 
ATOM     10  C   UNL     1       0.274  10.254  21.073  0.00  0.00    +0.000 C 
ATOM     11  C   UNL     1      -0.796  11.141  20.426  0.00  0.00    +0.000 C 
ATOM     12  C   UNL     1      -0.515  11.621  18.976  0.00  0.00    +0.000 C 
ATOM     13  C   UNL     1      -0.121  10.498  18.033  0.00  0.00    +0.000 C 
ATOM     14  C   UNL     1       1.016   9.694  18.651  0.00  0.00    +0.000 C 
ATOM     15  C   UNL     1       2.268  10.604  18.717  0.00  0.00    +0.000 C 
ATOM     16  C   UNL     1       0.512   9.152  20.026  0.00  0.00    +0.000 C 
ATOM     17  C   UNL     1       1.495   8.059  20.338  0.00  0.00    +0.000 C 
ATOM     18  C   UNL     1       1.584   7.323  18.978  0.00  0.00    +0.000 C 
ATOM     19  C   UNL     1       1.320   8.397  17.864  0.00  0.00    +0.000 C 
ENDROOT
BRANCH   5  20
ATOM     20  N   UNL     1      -5.111  14.051  21.520  0.00  0.00    +0.000 N 
ATOM     21  C   UNL     1      -5.421  14.237  20.016  0.00  0.00    +0.000 C 
ATOM     22  C   UNL     1      -6.563  13.971  22.210  0.00  0.00    +0.000 C 
ATOM     23  C   UNL     1      -6.495  14.216  23.710  0.00  0.00    +0.000 C 
ATOM     24  O   UNL     1      -5.986  15.524  23.945  0.00  0.00    +0.000 OA
ATOM     25  C   UNL     1      -4.640  15.654  23.474  0.00  0.00    +0.000 C 
ATOM     26  C   UNL     1      -4.498  15.392  21.973  0.00  0.00    +0.000 C 
ENDBRANCH   5  20
BRANCH  18  27
ATOM     27  N   UNL     1       2.810   6.412  18.887  0.00  0.00    +0.000 N 
ATOM     28  C   UNL     1       4.094   7.200  18.614  0.00  0.00    +0.000 C 
ATOM     29  C   UNL     1       2.979   5.622  20.226  0.00  0.00    +0.000 C 
ATOM     30  C   UNL     1       1.839   4.608  20.428  0.00  0.00    +0.000 C 
ATOM     31  O   UNL     1       1.803   3.667  19.352  0.00  0.00    +0.000 OA
ATOM     32  C   UNL     1       1.599   4.288  18.084  0.00  0.00    +0.000 C 
ATOM     33  C   UNL     1       2.696   5.331  17.770  0.00  0.00    +0.000 C 
ENDBRANCH  18  27
BRANCH  19  34
ATOM     34  O   UNL     1       2.343   8.571  16.899  0.00  0.00    +0.000 OA
ATOM     35  H   UNL     1       2.156   9.401  16.415  0.00  0.00    +0.000 HD
ENDBRANCH  19  34
TORSDOF 3
ENDMDL
MODEL 8
REMARK VINA RESULT:      -5.8      1.068      1.149
REMARK  Name = 
REMARK  7 active torsions:
REMARK  status: ('A' for Active; 'I' for Inactive)
REMARK    1  A    between atoms: C_1  and  C_2
REMARK    2  A    between atoms: C_5  and  N_6
REMARK    3  A    between atoms: N_6  and  C_7
REMARK    4  A    between atoms: C_21  and  C_22
REMARK    5  A    between atoms: C_25  and  N_26
REMARK    6  A    between atoms: N_26  and  C_27
REMARK    7  A    between atoms: C_33  and  O_34
REMARK                            x       y       z     vdW  Elec       q    Type
REMARK                         _______ _______ _______ _____ _____    ______ ____
ROOT
ATOM      1  C   UNL     1       3.068  17.765  20.859  0.00  0.00    +0.000 C 
ATOM      2  C   UNL     1       2.884  16.230  20.762  0.00  0.00    +0.000 C 
ATOM      3  C   UNL     1       1.677  15.975  19.899  0.00  0.00    +0.000 C 
ATOM      4  C   UNL     1       1.240  14.531  20.124  0.00  0.00    +0.000 C 
ATOM      5  C   UNL     1       0.282  14.568  21.313  0.00  0.00    +0.000 C 
ATOM      6  C   UNL     1       0.993  15.545  22.434  0.00  0.00    +0.000 C 
ATOM      7  C   UNL     1       2.603  15.556  22.153  0.00  0.00    +0.000 C 
ATOM      8  C   UNL     1       3.777  15.958  23.077  0.00  0.00    +0.000 C 
ATOM      9  C   UNL     1       5.140  15.447  22.428  0.00  0.00    +0.000 C 
ATOM     10  C   UNL     1       5.363  15.777  20.909  0.00  0.00    +0.000 C 
ATOM     11  C   UNL     1       4.078  15.512  20.116  0.00  0.00    +0.000 C 
ATOM     12  C   UNL     1       4.161  15.706  18.578  0.00  0.00    +0.000 C 
ATOM     13  C   UNL     1       5.333  14.981  17.939  0.00  0.00    +0.000 C 
ATOM     14  C   UNL     1       6.615  15.342  18.679  0.00  0.00    +0.000 C 
ATOM     15  C   UNL     1       6.906  16.844  18.433  0.00  0.00    +0.000 C 
ATOM     16  C   UNL     1       6.422  14.936  20.175  0.00  0.00    +0.000 C 
ATOM     17  C   UNL     1       7.828  14.921  20.703  0.00  0.00    +0.000 C 
ATOM     18  C   UNL     1       8.575  14.160  19.580  0.00  0.00    +0.000 C 
ATOM     19  C   UNL     1       7.816  14.470  18.241  0.00  0.00    +0.000 C 
ENDROOT
BRANCH   5  20
ATOM     20  N   UNL     1      -1.168  14.831  20.659  0.00  0.00    +0.000 N 
ATOM     21  C   UNL     1      -1.350  16.217  19.997  0.00  0.00    +0.000 C 
ATOM     22  C   UNL     1      -1.404  13.791  19.453  0.00  0.00    +0.000 C 
ATOM     23  C   UNL     1      -1.691  12.386  19.962  0.00  0.00    +0.000 C 
ATOM     24  O   UNL     1      -2.881  12.408  20.740  0.00  0.00    +0.000 OA
ATOM     25  C   UNL     1      -2.726  13.215  21.913  0.00  0.00    +0.000 C 
ATOM     26  C   UNL     1      -2.381  14.672  21.600  0.00  0.00    +0.000 C 
ENDBRANCH   5  20
BRANCH  18  27
ATOM     27  N   UNL     1      10.092  14.346  19.660  0.00  0.00    +0.000 N 
ATOM     28  C   UNL     1      10.488  15.823  19.748  0.00  0.00    +0.000 C 
ATOM     29  C   UNL     1      10.649  13.598  20.915  0.00  0.00    +0.000 C 
ATOM     30  C   UNL     1      10.518  12.072  20.765  0.00  0.00    +0.000 C 
ATOM     31  O   UNL     1      11.234  11.615  19.615  0.00  0.00    +0.000 OA
ATOM     32  C   UNL     1      10.764  12.203  18.403  0.00  0.00    +0.000 C 
ATOM     33  C   UNL     1      10.853  13.745  18.439  0.00  0.00    +0.000 C 
ENDBRANCH  18  27
BRANCH  19  34
ATOM     34  O   UNL     1       8.577  15.069  17.207  0.00  0.00    +0.000 OA
ATOM     35  H   UNL     1       8.631  16.028  17.395  0.00  0.00    +0.000 HD
ENDBRANCH  19  34
TORSDOF 3
ENDMDL
MODEL 9
REMARK VINA RESULT:      -5.8      1.522      1.893
REMARK  Name = 
REMARK  7 active torsions:
REMARK  status: ('A' for Active; 'I' for Inactive)
REMARK    1  A    between atoms: C_1  and  C_2
REMARK    2  A    between atoms: C_5  and  N_6
REMARK    3  A    between atoms: N_6  and  C_7
REMARK    4  A    between atoms: C_21  and  C_22
REMARK    5  A    between atoms: C_25  and  N_26
REMARK    6  A    between atoms: N_26  and  C_27
REMARK    7  A    between atoms: C_33  and  O_34
REMARK                            x       y       z     vdW  Elec       q    Type
REMARK                         _______ _______ _______ _____ _____    ______ ____
ROOT
ATOM      1  C   UNL     1       3.903  17.999  21.370  0.00  0.00    +0.000 C 
ATOM      2  C   UNL     1       3.528  16.552  20.966  0.00  0.00    +0.000 C 
ATOM      3  C   UNL     1       2.303  16.632  20.094  0.00  0.00    +0.000 C 
ATOM      4  C   UNL     1       1.686  15.238  20.028  0.00  0.00    +0.000 C 
ATOM      5  C   UNL     1       0.735  15.147  21.220  0.00  0.00    +0.000 C 
ATOM      6  C   UNL     1       1.558  15.778  22.501  0.00  0.00    +0.000 C 
ATOM      7  C   UNL     1       3.157  15.646  22.194  0.00  0.00    +0.000 C 
ATOM      8  C   UNL     1       4.368  15.701  23.156  0.00  0.00    +0.000 C 
ATOM      9  C   UNL     1       5.659  15.169  22.388  0.00  0.00    +0.000 C 
ATOM     10  C   UNL     1       5.930  15.774  20.964  0.00  0.00    +0.000 C 
ATOM     11  C   UNL     1       4.626  15.839  20.161  0.00  0.00    +0.000 C 
ATOM     12  C   UNL     1       4.740  16.333  18.693  0.00  0.00    +0.000 C 
ATOM     13  C   UNL     1       5.814  15.616  17.895  0.00  0.00    +0.000 C 
ATOM     14  C   UNL     1       7.128  15.655  18.666  0.00  0.00    +0.000 C 
ATOM     15  C   UNL     1       7.606  17.127  18.727  0.00  0.00    +0.000 C 
ATOM     16  C   UNL     1       6.878  14.977  20.051  0.00  0.00    +0.000 C 
ATOM     17  C   UNL     1       8.269  14.679  20.535  0.00  0.00    +0.000 C 
ATOM     18  C   UNL     1       8.919  14.079  19.265  0.00  0.00    +0.000 C 
ATOM     19  C   UNL     1       8.212  14.749  18.034  0.00  0.00    +0.000 C 
ENDROOT
BRANCH   5  20
ATOM     20  N   UNL     1      -0.667  15.718  20.664  0.00  0.00    +0.000 N 
ATOM     21  C   UNL     1      -0.712  15.988  19.142  0.00  0.00    +0.000 C 
ATOM     22  C   UNL     1      -1.818  14.617  20.896  0.00  0.00    +0.000 C 
ATOM     23  C   UNL     1      -2.231  14.525  22.358  0.00  0.00    +0.000 C 
ATOM     24  O   UNL     1      -2.756  15.780  22.773  0.00  0.00    +0.000 OA
ATOM     25  C   UNL     1      -1.761  16.807  22.720  0.00  0.00    +0.000 C 
ATOM     26  C   UNL     1      -1.183  17.016  21.319  0.00  0.00    +0.000 C 
ENDBRANCH   5  20
BRANCH  18  27
ATOM     27  N   UNL     1      10.447  14.055  19.349  0.00  0.00    +0.000 N 
ATOM     28  C   UNL     1      11.037  15.457  19.529  0.00  0.00    +0.000 C 
ATOM     29  C   UNL     1      10.894  13.162  20.552  0.00  0.00    +0.000 C 
ATOM     30  C   UNL     1      10.561  11.680  20.306  0.00  0.00    +0.000 C 
ATOM     31  O   UNL     1      11.214  11.204  19.126  0.00  0.00    +0.000 OA
ATOM     32  C   UNL     1      10.831  11.925  17.956  0.00  0.00    +0.000 C 
ATOM     33  C   UNL     1      11.126  13.436  18.089  0.00  0.00    +0.000 C 
ENDBRANCH  18  27
BRANCH  19  34
ATOM     34  O   UNL     1       9.047  15.449  17.129  0.00  0.00    +0.000 OA
ATOM     35  H   UNL     1       9.583  16.083  17.647  0.00  0.00    +0.000 HD
ENDBRANCH  19  34
TORSDOF 3
ENDMDL
