MODEL 1
REMARK VINA RESULT:      -8.8      0.000      0.000
REMARK  Name = 
REMARK  14 active torsions:
REMARK  status: ('A' for Active; 'I' for Inactive)
REMARK    1  A    between atoms: C_1  and  C_2
REMARK    2  A    between atoms: C_6  and  N_7
REMARK    3  A    between atoms: N_7  and  C_8
REMARK    4  A    between atoms: C_8  and  C_9
REMARK    5  A    between atoms: C_8  and  C_10
REMARK    6  A    between atoms: C_8  and  C_11
REMARK    7  A    between atoms: C_11  and  C_12
REMARK    8  A    between atoms: C_12  and  C_13
REMARK    9  A    between atoms: C_12  and  C_14
REMARK   10  A    between atoms: C_12  and  C_15
REMARK   11  A    between atoms: C_16  and  C_17
REMARK   12  A    between atoms: C_22  and  O_23
REMARK   13  A    between atoms: O_23  and  C_24
REMARK   14  A    between atoms: C_24  and  C_26
REMARK                            x       y       z     vdW  Elec       q    Type
REMARK                         _______ _______ _______ _____ _____    ______ ____
ROOT
ATOM      1  C   UNL     1      -0.020  11.238  18.842  0.00  0.00    +0.000 C 
ATOM      2  C   UNL     1       0.836   9.996  18.910  0.00  0.00    +0.000 A 
ATOM      3  C   UNL     1       0.854   9.220  20.145  0.00  0.00    +0.000 A 
ATOM      4  C   UNL     1       1.590   8.093  20.203  0.00  0.00    +0.000 A 
ATOM      5  N   UNL     1       2.363   7.719  19.102  0.00  0.00    +0.000 N 
ATOM      6  C   UNL     1       3.187   6.588  18.905  0.00  0.00    +0.000 A 
ATOM      7  C   UNL     1       3.835   6.902  17.676  0.00  0.00    +0.000 A 
ATOM      8  N   UNL     1       3.305   8.027  17.090  0.00  0.00    +0.000 NA
ATOM      9  C   UNL     1       2.415   8.477  17.938  0.00  0.00    +0.000 A 
ATOM     10  C   UNL     1       1.577   9.621  17.845  0.00  0.00    +0.000 A 
ENDROOT
BRANCH   7  11
ATOM     11  C   UNL     1       4.944   6.207  17.004  0.00  0.00    +0.000 A 
ATOM     12  C   UNL     1       4.698   4.928  16.482  0.00  0.00    +0.000 A 
ATOM     13  C   UNL     1       5.608   4.278  15.642  0.00  0.00    +0.000 A 
ATOM     14  C   UNL     1       6.856   4.837  15.416  0.00  0.00    +0.000 A 
ATOM     15  C   UNL     1       7.185   6.042  16.027  0.00  0.00    +0.000 A 
ATOM     16  C   UNL     1       6.225   6.759  16.774  0.00  0.00    +0.000 A 
BRANCH  16  17
ATOM     17  O   UNL     1       6.633   8.016  17.285  0.00  0.00    +0.000 OA
BRANCH  17  18
ATOM     18  C   UNL     1       7.807   7.951  18.026  0.00  0.00    +0.000 C 
ATOM     19  O   UNL     1       8.306   6.934  18.499  0.00  0.00    +0.000 OA
BRANCH  18  20
ATOM     20  C   UNL     1       8.358   9.300  18.360  0.00  0.00    +0.000 A 
ATOM     21  C   UNL     1       9.314   9.530  19.372  0.00  0.00    +0.000 A 
ATOM     22  C   UNL     1       9.820  10.827  19.599  0.00  0.00    +0.000 A 
ATOM     23  C   UNL     1       9.379  11.854  18.788  0.00  0.00    +0.000 A 
ATOM     24  C   UNL     1       8.450  11.633  17.801  0.00  0.00    +0.000 A 
ATOM     25  C   UNL     1       7.915  10.383  17.572  0.00  0.00    +0.000 A 
ATOM     26  O   UNL     1       8.152  12.764  17.105  0.00  0.00    +0.000 OA
ATOM     27  C   UNL     1       9.125  13.674  17.656  0.00  0.00    +0.000 C 
ATOM     28  O   UNL     1       9.779  13.154  18.834  0.00  0.00    +0.000 OA
ENDBRANCH  18  20
ENDBRANCH  17  18
ENDBRANCH  16  17
ENDBRANCH   7  11
BRANCH   6  29
ATOM     29  N   UNL     1       3.139   5.536  19.830  0.00  0.00    +0.000 N 
ATOM     30  H   UNL     1       3.879   5.455  20.526  0.00  0.00    +0.000 HD
BRANCH  29  31
ATOM     31  C   UNL     1       2.219   4.354  19.826  0.00  0.00    +0.000 C 
ATOM     32  C   UNL     1       0.997   4.667  20.692  0.00  0.00    +0.000 C 
ATOM     33  C   UNL     1       1.984   3.985  18.343  0.00  0.00    +0.000 C 
BRANCH  31  34
ATOM     34  C   UNL     1       2.877   3.074  20.505  0.00  0.00    +0.000 C 
BRANCH  34  35
ATOM     35  C   UNL     1       4.073   2.292  19.767  0.00  0.00    +0.000 C 
ATOM     36  C   UNL     1       3.623   1.538  18.501  0.00  0.00    +0.000 C 
ATOM     37  C   UNL     1       5.118   3.344  19.327  0.00  0.00    +0.000 C 
ATOM     38  C   UNL     1       4.864   1.276  20.623  0.00  0.00    +0.000 C 
ENDBRANCH  34  35
ENDBRANCH  31  34
ENDBRANCH  29  31
ENDBRANCH   6  29
TORSDOF 8
ENDMDL
MODEL 2
REMARK VINA RESULT:      -8.4      0.726      1.307
REMARK  Name = 
REMARK  14 active torsions:
REMARK  status: ('A' for Active; 'I' for Inactive)
REMARK    1  A    between atoms: C_1  and  C_2
REMARK    2  A    between atoms: C_6  and  N_7
REMARK    3  A    between atoms: N_7  and  C_8
REMARK    4  A    between atoms: C_8  and  C_9
REMARK    5  A    between atoms: C_8  and  C_10
REMARK    6  A    between atoms: C_8  and  C_11
REMARK    7  A    between atoms: C_11  and  C_12
REMARK    8  A    between atoms: C_12  and  C_13
REMARK    9  A    between atoms: C_12  and  C_14
REMARK   10  A    between atoms: C_12  and  C_15
REMARK   11  A    between atoms: C_16  and  C_17
REMARK   12  A    between atoms: C_22  and  O_23
REMARK   13  A    between atoms: O_23  and  C_24
REMARK   14  A    between atoms: C_24  and  C_26
REMARK                            x       y       z     vdW  Elec       q    Type
REMARK                         _______ _______ _______ _____ _____    ______ ____
ROOT
ATOM      1  C   UNL     1      -0.377  11.120  18.657  0.00  0.00    +0.000 C 
ATOM      2  C   UNL     1       0.598   9.979  18.822  0.00  0.00    +0.000 A 
ATOM      3  C   UNL     1       0.767   9.382  20.142  0.00  0.00    +0.000 A 
ATOM      4  C   UNL     1       1.610   8.343  20.292  0.00  0.00    +0.000 A 
ATOM      5  N   UNL     1       2.346   7.891  19.194  0.00  0.00    +0.000 N 
ATOM      6  C   UNL     1       3.262   6.821  19.085  0.00  0.00    +0.000 A 
ATOM      7  C   UNL     1       3.799   7.019  17.781  0.00  0.00    +0.000 A 
ATOM      8  N   UNL     1       3.128   8.003  17.095  0.00  0.00    +0.000 NA
ATOM      9  C   UNL     1       2.253   8.485  17.941  0.00  0.00    +0.000 A 
ATOM     10  C   UNL     1       1.304   9.528  17.763  0.00  0.00    +0.000 A 
ENDROOT
BRANCH   7  11
ATOM     11  C   UNL     1       4.927   6.339  17.125  0.00  0.00    +0.000 A 
ATOM     12  C   UNL     1       4.687   5.087  16.537  0.00  0.00    +0.000 A 
ATOM     13  C   UNL     1       5.624   4.462  15.708  0.00  0.00    +0.000 A 
ATOM     14  C   UNL     1       6.887   5.013  15.557  0.00  0.00    +0.000 A 
ATOM     15  C   UNL     1       7.204   6.186  16.234  0.00  0.00    +0.000 A 
ATOM     16  C   UNL     1       6.223   6.883  16.971  0.00  0.00    +0.000 A 
BRANCH  16  17
ATOM     17  O   UNL     1       6.625   8.111  17.553  0.00  0.00    +0.000 OA
BRANCH  17  18
ATOM     18  C   UNL     1       7.876   8.048  18.154  0.00  0.00    +0.000 C 
ATOM     19  O   UNL     1       8.437   7.030  18.548  0.00  0.00    +0.000 OA
BRANCH  18  20
ATOM     20  C   UNL     1       8.447   9.399  18.449  0.00  0.00    +0.000 A 
ATOM     21  C   UNL     1       9.429   9.640  19.433  0.00  0.00    +0.000 A 
ATOM     22  C   UNL     1       9.951  10.935  19.623  0.00  0.00    +0.000 A 
ATOM     23  C   UNL     1       9.500  11.951  18.803  0.00  0.00    +0.000 A 
ATOM     24  C   UNL     1       8.545  11.720  17.843  0.00  0.00    +0.000 A 
ATOM     25  C   UNL     1       7.994  10.470  17.651  0.00  0.00    +0.000 A 
ATOM     26  O   UNL     1       8.240  12.839  17.133  0.00  0.00    +0.000 OA
ATOM     27  C   UNL     1       9.234  13.752  17.643  0.00  0.00    +0.000 C 
ATOM     28  O   UNL     1       9.912  13.248  18.815  0.00  0.00    +0.000 OA
ENDBRANCH  18  20
ENDBRANCH  17  18
ENDBRANCH  16  17
ENDBRANCH   7  11
BRANCH   6  29
ATOM     29  N   UNL     1       3.373   5.904  20.140  0.00  0.00    +0.000 N 
ATOM     30  H   UNL     1       3.777   6.213  21.023  0.00  0.00    +0.000 HD
BRANCH  29  31
ATOM     31  C   UNL     1       3.147   4.424  20.096  0.00  0.00    +0.000 C 
ATOM     32  C   UNL     1       4.489   3.717  19.902  0.00  0.00    +0.000 C 
ATOM     33  C   UNL     1       2.311   4.070  21.348  0.00  0.00    +0.000 C 
BRANCH  31  34
ATOM     34  C   UNL     1       2.274   3.984  18.839  0.00  0.00    +0.000 C 
BRANCH  34  35
ATOM     35  C   UNL     1       2.093   2.425  18.486  0.00  0.00    +0.000 C 
ATOM     36  C   UNL     1       0.657   1.910  18.702  0.00  0.00    +0.000 C 
ATOM     37  C   UNL     1       2.424   2.244  16.986  0.00  0.00    +0.000 C 
ATOM     38  C   UNL     1       3.027   1.438  19.224  0.00  0.00    +0.000 C 
ENDBRANCH  34  35
ENDBRANCH  31  34
ENDBRANCH  29  31
ENDBRANCH   6  29
TORSDOF 8
ENDMDL
MODEL 3
REMARK VINA RESULT:      -8.3      0.902      1.498
REMARK  Name = 
REMARK  14 active torsions:
REMARK  status: ('A' for Active; 'I' for Inactive)
REMARK    1  A    between atoms: C_1  and  C_2
REMARK    2  A    between atoms: C_6  and  N_7
REMARK    3  A    between atoms: N_7  and  C_8
REMARK    4  A    between atoms: C_8  and  C_9
REMARK    5  A    between atoms: C_8  and  C_10
REMARK    6  A    between atoms: C_8  and  C_11
REMARK    7  A    between atoms: C_11  and  C_12
REMARK    8  A    between atoms: C_12  and  C_13
REMARK    9  A    between atoms: C_12  and  C_14
REMARK   10  A    between atoms: C_12  and  C_15
REMARK   11  A    between atoms: C_16  and  C_17
REMARK   12  A    between atoms: C_22  and  O_23
REMARK   13  A    between atoms: O_23  and  C_24
REMARK   14  A    between atoms: C_24  and  C_26
REMARK                            x       y       z     vdW  Elec       q    Type
REMARK                         _______ _______ _______ _____ _____    ______ ____
ROOT
ATOM      1  C   UNL     1       0.531  10.741  19.298  0.00  0.00    +0.000 C 
ATOM      2  C   UNL     1       1.299   9.456  19.100  0.00  0.00    +0.000 A 
ATOM      3  C   UNL     1       1.207   8.416  20.118  0.00  0.00    +0.000 A 
ATOM      4  C   UNL     1       1.863   7.254  19.934  0.00  0.00    +0.000 A 
ATOM      5  N   UNL     1       2.661   7.088  18.799  0.00  0.00    +0.000 N 
ATOM      6  C   UNL     1       3.417   5.975  18.368  0.00  0.00    +0.000 A 
ATOM      7  C   UNL     1       4.142   6.514  17.268  0.00  0.00    +0.000 A 
ATOM      8  N   UNL     1       3.716   7.781  16.946  0.00  0.00    +0.000 NA
ATOM      9  C   UNL     1       2.818   8.089  17.848  0.00  0.00    +0.000 A 
ATOM     10  C   UNL     1       2.063   9.283  18.000  0.00  0.00    +0.000 A 
ENDROOT
BRANCH   7  11
ATOM     11  C   UNL     1       5.234   5.912  16.487  0.00  0.00    +0.000 A 
ATOM     12  C   UNL     1       5.019   4.643  15.928  0.00  0.00    +0.000 A 
ATOM     13  C   UNL     1       5.898   4.081  14.996  0.00  0.00    +0.000 A 
ATOM     14  C   UNL     1       7.093   4.719  14.704  0.00  0.00    +0.000 A 
ATOM     15  C   UNL     1       7.400   5.916  15.342  0.00  0.00    +0.000 A 
ATOM     16  C   UNL     1       6.461   6.547  16.188  0.00  0.00    +0.000 A 
BRANCH  16  17
ATOM     17  O   UNL     1       6.838   7.804  16.722  0.00  0.00    +0.000 OA
BRANCH  17  18
ATOM     18  C   UNL     1       7.721   7.702  17.791  0.00  0.00    +0.000 C 
ATOM     19  O   UNL     1       7.965   6.684  18.430  0.00  0.00    +0.000 OA
BRANCH  18  20
ATOM     20  C   UNL     1       8.255   9.029  18.230  0.00  0.00    +0.000 A 
ATOM     21  C   UNL     1       9.139   9.199  19.316  0.00  0.00    +0.000 A 
ATOM     22  C   UNL     1       9.635  10.478  19.642  0.00  0.00    +0.000 A 
ATOM     23  C   UNL     1       9.257  11.548  18.856  0.00  0.00    +0.000 A 
ATOM     24  C   UNL     1       8.397  11.386  17.798  0.00  0.00    +0.000 A 
ATOM     25  C   UNL     1       7.873  10.153  17.469  0.00  0.00    +0.000 A 
ATOM     26  O   UNL     1       8.154  12.552  17.141  0.00  0.00    +0.000 OA
ATOM     27  C   UNL     1       9.091  13.426  17.803  0.00  0.00    +0.000 C 
ATOM     28  O   UNL     1       9.659  12.841  18.996  0.00  0.00    +0.000 OA
ENDBRANCH  18  20
ENDBRANCH  17  18
ENDBRANCH  16  17
ENDBRANCH   7  11
BRANCH   6  29
ATOM     29  N   UNL     1       3.255   4.744  19.020  0.00  0.00    +0.000 N 
ATOM     30  H   UNL     1       3.859   4.520  19.810  0.00  0.00    +0.000 HD
BRANCH  29  31
ATOM     31  C   UNL     1       2.415   3.582  18.587  0.00  0.00    +0.000 C 
ATOM     32  C   UNL     1       1.413   4.052  17.532  0.00  0.00    +0.000 C 
ATOM     33  C   UNL     1       3.397   2.449  18.204  0.00  0.00    +0.000 C 
BRANCH  31  34
ATOM     34  C   UNL     1       1.518   3.011  19.771  0.00  0.00    +0.000 C 
BRANCH  34  35
ATOM     35  C   UNL     1       2.088   2.978  21.275  0.00  0.00    +0.000 C 
ATOM     36  C   UNL     1       1.193   2.192  22.253  0.00  0.00    +0.000 C 
ATOM     37  C   UNL     1       3.461   2.269  21.238  0.00  0.00    +0.000 C 
ATOM     38  C   UNL     1       2.362   4.348  21.938  0.00  0.00    +0.000 C 
ENDBRANCH  34  35
ENDBRANCH  31  34
ENDBRANCH  29  31
ENDBRANCH   6  29
TORSDOF 8
ENDMDL
MODEL 4
REMARK VINA RESULT:      -8.0      4.771      9.626
REMARK  Name = 
REMARK  14 active torsions:
REMARK  status: ('A' for Active; 'I' for Inactive)
REMARK    1  A    between atoms: C_1  and  C_2
REMARK    2  A    between atoms: C_6  and  N_7
REMARK    3  A    between atoms: N_7  and  C_8
REMARK    4  A    between atoms: C_8  and  C_9
REMARK    5  A    between atoms: C_8  and  C_10
REMARK    6  A    between atoms: C_8  and  C_11
REMARK    7  A    between atoms: C_11  and  C_12
REMARK    8  A    between atoms: C_12  and  C_13
REMARK    9  A    between atoms: C_12  and  C_14
REMARK   10  A    between atoms: C_12  and  C_15
REMARK   11  A    between atoms: C_16  and  C_17
REMARK   12  A    between atoms: C_22  and  O_23
REMARK   13  A    between atoms: O_23  and  C_24
REMARK   14  A    between atoms: C_24  and  C_26
REMARK                            x       y       z     vdW  Elec       q    Type
REMARK                         _______ _______ _______ _____ _____    ______ ____
ROOT
ATOM      1  C   UNL     1      -7.157  11.253  18.489  0.00  0.00    +0.000 C 
ATOM      2  C   UNL     1      -5.805  11.669  19.015  0.00  0.00    +0.000 A 
ATOM      3  C   UNL     1      -5.730  12.367  20.293  0.00  0.00    +0.000 A 
ATOM      4  C   UNL     1      -4.526  12.712  20.786  0.00  0.00    +0.000 A 
ATOM      5  N   UNL     1      -3.375  12.445  20.039  0.00  0.00    +0.000 N 
ATOM      6  C   UNL     1      -2.015  12.680  20.339  0.00  0.00    +0.000 A 
ATOM      7  C   UNL     1      -1.379  12.371  19.104  0.00  0.00    +0.000 A 
ATOM      8  N   UNL     1      -2.255  11.815  18.202  0.00  0.00    +0.000 NA
ATOM      9  C   UNL     1      -3.425  11.842  18.788  0.00  0.00    +0.000 A 
ATOM     10  C   UNL     1      -4.687  11.404  18.305  0.00  0.00    +0.000 A 
ENDROOT
BRANCH   7  11
ATOM     11  C   UNL     1       0.022  12.572  18.701  0.00  0.00    +0.000 A 
ATOM     12  C   UNL     1       0.503  13.889  18.633  0.00  0.00    +0.000 A 
ATOM     13  C   UNL     1       1.862  14.178  18.475  0.00  0.00    +0.000 A 
ATOM     14  C   UNL     1       2.763  13.150  18.241  0.00  0.00    +0.000 A 
ATOM     15  C   UNL     1       2.299  11.841  18.169  0.00  0.00    +0.000 A 
ATOM     16  C   UNL     1       0.950  11.535  18.450  0.00  0.00    +0.000 A 
BRANCH  16  17
ATOM     17  O   UNL     1       0.597  10.163  18.432  0.00  0.00    +0.000 OA
BRANCH  17  18
ATOM     18  C   UNL     1       1.128   9.447  19.498  0.00  0.00    +0.000 C 
ATOM     19  O   UNL     1       1.065   9.764  20.682  0.00  0.00    +0.000 OA
BRANCH  18  20
ATOM     20  C   UNL     1       1.966   8.289  19.060  0.00  0.00    +0.000 A 
ATOM     21  C   UNL     1       2.741   8.281  17.881  0.00  0.00    +0.000 A 
ATOM     22  C   UNL     1       3.542   7.167  17.557  0.00  0.00    +0.000 A 
ATOM     23  C   UNL     1       3.569   6.101  18.435  0.00  0.00    +0.000 A 
ATOM     24  C   UNL     1       2.817   6.106  19.584  0.00  0.00    +0.000 A 
ATOM     25  C   UNL     1       2.002   7.168  19.916  0.00  0.00    +0.000 A 
ATOM     26  O   UNL     1       2.986   4.975  20.321  0.00  0.00    +0.000 OA
ATOM     27  C   UNL     1       4.056   4.343  19.590  0.00  0.00    +0.000 C 
ATOM     28  O   UNL     1       4.305   4.964  18.309  0.00  0.00    +0.000 OA
ENDBRANCH  18  20
ENDBRANCH  17  18
ENDBRANCH  16  17
ENDBRANCH   7  11
BRANCH   6  29
ATOM     29  N   UNL     1      -1.658  13.069  21.638  0.00  0.00    +0.000 N 
ATOM     30  H   UNL     1      -1.956  12.494  22.426  0.00  0.00    +0.000 HD
BRANCH  29  31
ATOM     31  C   UNL     1      -1.036  14.361  22.070  0.00  0.00    +0.000 C 
ATOM     32  C   UNL     1       0.485  14.200  22.099  0.00  0.00    +0.000 C 
ATOM     33  C   UNL     1      -1.634  15.461  21.162  0.00  0.00    +0.000 C 
BRANCH  31  34
ATOM     34  C   UNL     1      -1.429  14.752  23.561  0.00  0.00    +0.000 C 
BRANCH  34  35
ATOM     35  C   UNL     1      -2.976  14.843  23.993  0.00  0.00    +0.000 C 
ATOM     36  C   UNL     1      -3.588  13.480  24.371  0.00  0.00    +0.000 C 
ATOM     37  C   UNL     1      -3.060  15.746  25.245  0.00  0.00    +0.000 C 
ATOM     38  C   UNL     1      -3.941  15.486  22.970  0.00  0.00    +0.000 C 
ENDBRANCH  34  35
ENDBRANCH  31  34
ENDBRANCH  29  31
ENDBRANCH   6  29
TORSDOF 8
ENDMDL
MODEL 5
REMARK VINA RESULT:      -7.9      4.814      9.631
REMARK  Name = 
REMARK  14 active torsions:
REMARK  status: ('A' for Active; 'I' for Inactive)
REMARK    1  A    between atoms: C_1  and  C_2
REMARK    2  A    between atoms: C_6  and  N_7
REMARK    3  A    between atoms: N_7  and  C_8
REMARK    4  A    between atoms: C_8  and  C_9
REMARK    5  A    between atoms: C_8  and  C_10
REMARK    6  A    between atoms: C_8  and  C_11
REMARK    7  A    between atoms: C_11  and  C_12
REMARK    8  A    between atoms: C_12  and  C_13
REMARK    9  A    between atoms: C_12  and  C_14
REMARK   10  A    between atoms: C_12  and  C_15
REMARK   11  A    between atoms: C_16  and  C_17
REMARK   12  A    between atoms: C_22  and  O_23
REMARK   13  A    between atoms: O_23  and  C_24
REMARK   14  A    between atoms: C_24  and  C_26
REMARK                            x       y       z     vdW  Elec       q    Type
REMARK                         _______ _______ _______ _____ _____    ______ ____
ROOT
ATOM      1  C   UNL     1       3.581  17.117  20.823  0.00  0.00    +0.000 C 
ATOM      2  C   UNL     1       2.349  16.246  20.862  0.00  0.00    +0.000 A 
ATOM      3  C   UNL     1       1.511  16.264  22.056  0.00  0.00    +0.000 A 
ATOM      4  C   UNL     1       0.393  15.515  22.088  0.00  0.00    +0.000 A 
ATOM      5  N   UNL     1       0.084  14.694  21.001  0.00  0.00    +0.000 N 
ATOM      6  C   UNL     1      -1.024  13.846  20.781  0.00  0.00    +0.000 A 
ATOM      7  C   UNL     1      -0.641  13.155  19.596  0.00  0.00    +0.000 A 
ATOM      8  N   UNL     1       0.506  13.678  19.046  0.00  0.00    +0.000 NA
ATOM      9  C   UNL     1       0.901  14.607  19.879  0.00  0.00    +0.000 A 
ATOM     10  C   UNL     1       2.037  15.458  19.811  0.00  0.00    +0.000 A 
ENDROOT
BRANCH   7  11
ATOM     11  C   UNL     1      -1.286  12.009  18.935  0.00  0.00    +0.000 A 
ATOM     12  C   UNL     1      -2.660  12.097  18.664  0.00  0.00    +0.000 A 
ATOM     13  C   UNL     1      -3.320  11.168  17.852  0.00  0.00    +0.000 A 
ATOM     14  C   UNL     1      -2.645  10.044  17.403  0.00  0.00    +0.000 A 
ATOM     15  C   UNL     1      -1.315   9.857  17.765  0.00  0.00    +0.000 A 
ATOM     16  C   UNL     1      -0.614  10.853  18.480  0.00  0.00    +0.000 A 
BRANCH  16  17
ATOM     17  O   UNL     1       0.759  10.603  18.726  0.00  0.00    +0.000 OA
BRANCH  17  18
ATOM     18  C   UNL     1       0.974   9.614  19.678  0.00  0.00    +0.000 C 
ATOM     19  O   UNL     1       0.668   9.676  20.865  0.00  0.00    +0.000 OA
BRANCH  18  20
ATOM     20  C   UNL     1       1.794   8.476  19.158  0.00  0.00    +0.000 A 
ATOM     21  C   UNL     1       2.473   8.497  17.922  0.00  0.00    +0.000 A 
ATOM     22  C   UNL     1       3.265   7.402  17.520  0.00  0.00    +0.000 A 
ATOM     23  C   UNL     1       3.381   6.327  18.379  0.00  0.00    +0.000 A 
ATOM     24  C   UNL     1       2.722   6.303  19.583  0.00  0.00    +0.000 A 
ATOM     25  C   UNL     1       1.919   7.346  19.993  0.00  0.00    +0.000 A 
ATOM     26  O   UNL     1       2.970   5.167  20.290  0.00  0.00    +0.000 OA
ATOM     27  C   UNL     1       3.989   4.564  19.467  0.00  0.00    +0.000 C 
ATOM     28  O   UNL     1       4.123   5.204  18.178  0.00  0.00    +0.000 OA
ENDBRANCH  18  20
ENDBRANCH  17  18
ENDBRANCH  16  17
ENDBRANCH   7  11
BRANCH   6  29
ATOM     29  N   UNL     1      -2.122  13.914  21.649  0.00  0.00    +0.000 N 
ATOM     30  H   UNL     1      -2.811  14.654  21.518  0.00  0.00    +0.000 HD
BRANCH  29  31
ATOM     31  C   UNL     1      -2.341  13.140  22.913  0.00  0.00    +0.000 C 
ATOM     32  C   UNL     1      -1.311  12.013  22.995  0.00  0.00    +0.000 C 
ATOM     33  C   UNL     1      -2.380  14.175  24.061  0.00  0.00    +0.000 C 
BRANCH  31  34
ATOM     34  C   UNL     1      -3.751  12.401  22.931  0.00  0.00    +0.000 C 
BRANCH  34  35
ATOM     35  C   UNL     1      -5.059  13.140  22.358  0.00  0.00    +0.000 C 
ATOM     36  C   UNL     1      -5.485  12.640  20.965  0.00  0.00    +0.000 C 
ATOM     37  C   UNL     1      -6.226  12.843  23.329  0.00  0.00    +0.000 C 
ATOM     38  C   UNL     1      -4.996  14.683  22.269  0.00  0.00    +0.000 C 
ENDBRANCH  34  35
ENDBRANCH  31  34
ENDBRANCH  29  31
ENDBRANCH   6  29
TORSDOF 8
ENDMDL
MODEL 6
REMARK VINA RESULT:      -7.8      4.449      9.274
REMARK  Name = 
REMARK  14 active torsions:
REMARK  status: ('A' for Active; 'I' for Inactive)
REMARK    1  A    between atoms: C_1  and  C_2
REMARK    2  A    between atoms: C_6  and  N_7
REMARK    3  A    between atoms: N_7  and  C_8
REMARK    4  A    between atoms: C_8  and  C_9
REMARK    5  A    between atoms: C_8  and  C_10
REMARK    6  A    between atoms: C_8  and  C_11
REMARK    7  A    between atoms: C_11  and  C_12
REMARK    8  A    between atoms: C_12  and  C_13
REMARK    9  A    between atoms: C_12  and  C_14
REMARK   10  A    between atoms: C_12  and  C_15
REMARK   11  A    between atoms: C_16  and  C_17
REMARK   12  A    between atoms: C_22  and  O_23
REMARK   13  A    between atoms: O_23  and  C_24
REMARK   14  A    between atoms: C_24  and  C_26
REMARK                            x       y       z     vdW  Elec       q    Type
REMARK                         _______ _______ _______ _____ _____    ______ ____
ROOT
ATOM      1  C   UNL     1       4.558  16.825  20.524  0.00  0.00    +0.000 C 
ATOM      2  C   UNL     1       3.292  16.004  20.569  0.00  0.00    +0.000 A 
ATOM      3  C   UNL     1       2.471  16.040  21.774  0.00  0.00    +0.000 A 
ATOM      4  C   UNL     1       1.324  15.337  21.811  0.00  0.00    +0.000 A 
ATOM      5  N   UNL     1       0.968  14.543  20.718  0.00  0.00    +0.000 N 
ATOM      6  C   UNL     1      -0.176  13.744  20.502  0.00  0.00    +0.000 A 
ATOM      7  C   UNL     1       0.164  13.054  19.303  0.00  0.00    +0.000 A 
ATOM      8  N   UNL     1       1.323  13.538  18.745  0.00  0.00    +0.000 NA
ATOM      9  C   UNL     1       1.766  14.439  19.585  0.00  0.00    +0.000 A 
ATOM     10  C   UNL     1       2.935  15.244  19.512  0.00  0.00    +0.000 A 
ENDROOT
BRANCH   7  11
ATOM     11  C   UNL     1      -0.536  11.945  18.636  0.00  0.00    +0.000 A 
ATOM     12  C   UNL     1      -1.807  12.200  18.097  0.00  0.00    +0.000 A 
ATOM     13  C   UNL     1      -2.458  11.287  17.261  0.00  0.00    +0.000 A 
ATOM     14  C   UNL     1      -1.911  10.030  17.055  0.00  0.00    +0.000 A 
ATOM     15  C   UNL     1      -0.717   9.695  17.684  0.00  0.00    +0.000 A 
ATOM     16  C   UNL     1       0.003  10.655  18.428  0.00  0.00    +0.000 A 
BRANCH  16  17
ATOM     17  O   UNL     1       1.250  10.238  18.957  0.00  0.00    +0.000 OA
BRANCH  17  18
ATOM     18  C   UNL     1       1.173   9.043  19.663  0.00  0.00    +0.000 C 
ATOM     19  O   UNL     1       0.549   8.859  20.703  0.00  0.00    +0.000 OA
BRANCH  18  20
ATOM     20  C   UNL     1       2.085   7.989  19.120  0.00  0.00    +0.000 A 
ATOM     21  C   UNL     1       2.834   8.133  17.933  0.00  0.00    +0.000 A 
ATOM     22  C   UNL     1       3.708   7.111  17.509  0.00  0.00    +0.000 A 
ATOM     23  C   UNL     1       3.833   5.986  18.299  0.00  0.00    +0.000 A 
ATOM     24  C   UNL     1       3.107   5.843  19.456  0.00  0.00    +0.000 A 
ATOM     25  C   UNL     1       2.223   6.811  19.884  0.00  0.00    +0.000 A 
ATOM     26  O   UNL     1       3.376   4.674  20.099  0.00  0.00    +0.000 OA
ATOM     27  C   UNL     1       4.474   4.185  19.303  0.00  0.00    +0.000 C 
ATOM     28  O   UNL     1       4.648   4.920  18.071  0.00  0.00    +0.000 OA
ENDBRANCH  18  20
ENDBRANCH  17  18
ENDBRANCH  16  17
ENDBRANCH   7  11
BRANCH   6  29
ATOM     29  N   UNL     1      -1.259  13.846  21.386  0.00  0.00    +0.000 N 
ATOM     30  H   UNL     1      -1.914  14.620  21.279  0.00  0.00    +0.000 HD
BRANCH  29  31
ATOM     31  C   UNL     1      -1.500  13.055  22.635  0.00  0.00    +0.000 C 
ATOM     32  C   UNL     1      -0.711  11.747  22.560  0.00  0.00    +0.000 C 
ATOM     33  C   UNL     1      -1.218  14.008  23.819  0.00  0.00    +0.000 C 
BRANCH  31  34
ATOM     34  C   UNL     1      -3.019  12.602  22.780  0.00  0.00    +0.000 C 
BRANCH  34  35
ATOM     35  C   UNL     1      -4.170  13.350  21.940  0.00  0.00    +0.000 C 
ATOM     36  C   UNL     1      -3.889  14.848  21.714  0.00  0.00    +0.000 C 
ATOM     37  C   UNL     1      -4.241  12.681  20.548  0.00  0.00    +0.000 C 
ATOM     38  C   UNL     1      -5.606  13.255  22.504  0.00  0.00    +0.000 C 
ENDBRANCH  34  35
ENDBRANCH  31  34
ENDBRANCH  29  31
ENDBRANCH   6  29
TORSDOF 8
ENDMDL
MODEL 7
REMARK VINA RESULT:      -7.7      4.491      9.418
REMARK  Name = 
REMARK  14 active torsions:
REMARK  status: ('A' for Active; 'I' for Inactive)
REMARK    1  A    between atoms: C_1  and  C_2
REMARK    2  A    between atoms: C_6  and  N_7
REMARK    3  A    between atoms: N_7  and  C_8
REMARK    4  A    between atoms: C_8  and  C_9
REMARK    5  A    between atoms: C_8  and  C_10
REMARK    6  A    between atoms: C_8  and  C_11
REMARK    7  A    between atoms: C_11  and  C_12
REMARK    8  A    between atoms: C_12  and  C_13
REMARK    9  A    between atoms: C_12  and  C_14
REMARK   10  A    between atoms: C_12  and  C_15
REMARK   11  A    between atoms: C_16  and  C_17
REMARK   12  A    between atoms: C_22  and  O_23
REMARK   13  A    between atoms: O_23  and  C_24
REMARK   14  A    between atoms: C_24  and  C_26
REMARK                            x       y       z     vdW  Elec       q    Type
REMARK                         _______ _______ _______ _____ _____    ______ ____
ROOT
ATOM      1  C   UNL     1       5.205  16.557  18.801  0.00  0.00    +0.000 C 
ATOM      2  C   UNL     1       4.073  15.675  19.269  0.00  0.00    +0.000 A 
ATOM      3  C   UNL     1       3.876  15.481  20.701  0.00  0.00    +0.000 A 
ATOM      4  C   UNL     1       2.849  14.722  21.127  0.00  0.00    +0.000 A 
ATOM      5  N   UNL     1       2.025  14.091  20.192  0.00  0.00    +0.000 N 
ATOM      6  C   UNL     1       0.885  13.278  20.379  0.00  0.00    +0.000 A 
ATOM      7  C   UNL     1       0.639  12.801  19.060  0.00  0.00    +0.000 A 
ATOM      8  N   UNL     1       1.440  13.425  18.132  0.00  0.00    +0.000 NA
ATOM      9  C   UNL     1       2.232  14.206  18.822  0.00  0.00    +0.000 A 
ATOM     10  C   UNL     1       3.264  15.071  18.371  0.00  0.00    +0.000 A 
ENDROOT
BRANCH   7  11
ATOM     11  C   UNL     1      -0.311  11.775  18.602  0.00  0.00    +0.000 A 
ATOM     12  C   UNL     1      -1.618  12.181  18.294  0.00  0.00    +0.000 A 
ATOM     13  C   UNL     1      -2.528  11.337  17.649  0.00  0.00    +0.000 A 
ATOM     14  C   UNL     1      -2.195  10.011  17.420  0.00  0.00    +0.000 A 
ATOM     15  C   UNL     1      -0.954   9.539  17.835  0.00  0.00    +0.000 A 
ATOM     16  C   UNL     1       0.011  10.418  18.373  0.00  0.00    +0.000 A 
BRANCH  16  17
ATOM     17  O   UNL     1       1.274   9.854  18.685  0.00  0.00    +0.000 OA
BRANCH  17  18
ATOM     18  C   UNL     1       1.280   9.159  19.888  0.00  0.00    +0.000 C 
ATOM     19  O   UNL     1       1.017   9.625  20.992  0.00  0.00    +0.000 OA
BRANCH  18  20
ATOM     20  C   UNL     1       1.818   7.769  19.752  0.00  0.00    +0.000 A 
ATOM     21  C   UNL     1       1.584   6.741  20.689  0.00  0.00    +0.000 A 
ATOM     22  C   UNL     1       2.088   5.443  20.469  0.00  0.00    +0.000 A 
ATOM     23  C   UNL     1       2.787   5.200  19.303  0.00  0.00    +0.000 A 
ATOM     24  C   UNL     1       3.016   6.198  18.389  0.00  0.00    +0.000 A 
ATOM     25  C   UNL     1       2.560   7.484  18.587  0.00  0.00    +0.000 A 
ATOM     26  O   UNL     1       3.711   5.761  17.304  0.00  0.00    +0.000 OA
ATOM     27  C   UNL     1       3.741   4.343  17.566  0.00  0.00    +0.000 C 
ATOM     28  O   UNL     1       3.314   4.010  18.906  0.00  0.00    +0.000 OA
ENDBRANCH  18  20
ENDBRANCH  17  18
ENDBRANCH  16  17
ENDBRANCH   7  11
BRANCH   6  29
ATOM     29  N   UNL     1       0.312  13.185  21.655  0.00  0.00    +0.000 N 
ATOM     30  H   UNL     1       0.845  12.747  22.405  0.00  0.00    +0.000 HD
BRANCH  29  31
ATOM     31  C   UNL     1      -1.103  13.478  22.047  0.00  0.00    +0.000 C 
ATOM     32  C   UNL     1      -1.661  14.572  21.135  0.00  0.00    +0.000 C 
ATOM     33  C   UNL     1      -1.839  12.118  22.085  0.00  0.00    +0.000 C 
BRANCH  31  34
ATOM     34  C   UNL     1      -1.210  14.083  23.516  0.00  0.00    +0.000 C 
BRANCH  34  35
ATOM     35  C   UNL     1      -2.638  14.530  24.105  0.00  0.00    +0.000 C 
ATOM     36  C   UNL     1      -2.575  15.008  25.568  0.00  0.00    +0.000 C 
ATOM     37  C   UNL     1      -3.143  15.719  23.255  0.00  0.00    +0.000 C 
ATOM     38  C   UNL     1      -3.771  13.479  24.037  0.00  0.00    +0.000 C 
ENDBRANCH  34  35
ENDBRANCH  31  34
ENDBRANCH  29  31
ENDBRANCH   6  29
TORSDOF 8
ENDMDL
MODEL 8
REMARK VINA RESULT:      -7.6      5.095      9.938
REMARK  Name = 
REMARK  14 active torsions:
REMARK  status: ('A' for Active; 'I' for Inactive)
REMARK    1  A    between atoms: C_1  and  C_2
REMARK    2  A    between atoms: C_6  and  N_7
REMARK    3  A    between atoms: N_7  and  C_8
REMARK    4  A    between atoms: C_8  and  C_9
REMARK    5  A    between atoms: C_8  and  C_10
REMARK    6  A    between atoms: C_8  and  C_11
REMARK    7  A    between atoms: C_11  and  C_12
REMARK    8  A    between atoms: C_12  and  C_13
REMARK    9  A    between atoms: C_12  and  C_14
REMARK   10  A    between atoms: C_12  and  C_15
REMARK   11  A    between atoms: C_16  and  C_17
REMARK   12  A    between atoms: C_22  and  O_23
REMARK   13  A    between atoms: O_23  and  C_24
REMARK   14  A    between atoms: C_24  and  C_26
REMARK                            x       y       z     vdW  Elec       q    Type
REMARK                         _______ _______ _______ _____ _____    ______ ____
ROOT
ATOM      1  C   UNL     1      -3.716  10.159  14.357  0.00  0.00    +0.000 C 
ATOM      2  C   UNL     1      -3.566  10.719  15.751  0.00  0.00    +0.000 A 
ATOM      3  C   UNL     1      -4.743  10.799  16.609  0.00  0.00    +0.000 A 
ATOM      4  C   UNL     1      -4.612  11.267  17.864  0.00  0.00    +0.000 A 
ATOM      5  N   UNL     1      -3.365  11.717  18.304  0.00  0.00    +0.000 N 
ATOM      6  C   UNL     1      -2.966  12.221  19.562  0.00  0.00    +0.000 A 
ATOM      7  C   UNL     1      -1.644  12.679  19.295  0.00  0.00    +0.000 A 
ATOM      8  N   UNL     1      -1.218  12.308  18.042  0.00  0.00    +0.000 NA
ATOM      9  C   UNL     1      -2.242  11.714  17.484  0.00  0.00    +0.000 A 
ATOM     10  C   UNL     1      -2.361  11.146  16.188  0.00  0.00    +0.000 A 
ENDROOT
BRANCH   7  11
ATOM     11  C   UNL     1      -0.739  13.462  20.150  0.00  0.00    +0.000 A 
ATOM     12  C   UNL     1      -1.237  14.639  20.730  0.00  0.00    +0.000 A 
ATOM     13  C   UNL     1      -0.539  15.334  21.723  0.00  0.00    +0.000 A 
ATOM     14  C   UNL     1       0.746  14.943  22.063  0.00  0.00    +0.000 A 
ATOM     15  C   UNL     1       1.324  13.859  21.411  0.00  0.00    +0.000 A 
ATOM     16  C   UNL     1       0.577  13.082  20.498  0.00  0.00    +0.000 A 
BRANCH  16  17
ATOM     17  O   UNL     1       1.230  11.949  19.952  0.00  0.00    +0.000 OA
BRANCH  17  18
ATOM     18  C   UNL     1       0.828  10.752  20.534  0.00  0.00    +0.000 C 
ATOM     19  O   UNL     1       0.265  10.630  21.617  0.00  0.00    +0.000 OA
BRANCH  18  20
ATOM     20  C   UNL     1       1.304   9.552  19.778  0.00  0.00    +0.000 A 
ATOM     21  C   UNL     1       1.621   9.563  18.404  0.00  0.00    +0.000 A 
ATOM     22  C   UNL     1       2.107   8.400  17.771  0.00  0.00    +0.000 A 
ATOM     23  C   UNL     1       2.292   7.266  18.536  0.00  0.00    +0.000 A 
ATOM     24  C   UNL     1       1.986   7.252  19.875  0.00  0.00    +0.000 A 
ATOM     25  C   UNL     1       1.483   8.363  20.517  0.00  0.00    +0.000 A 
ATOM     26  O   UNL     1       2.246   6.049  20.456  0.00  0.00    +0.000 OA
ATOM     27  C   UNL     1       2.907   5.371  19.368  0.00  0.00    +0.000 C 
ATOM     28  O   UNL     1       2.781   6.070  18.110  0.00  0.00    +0.000 OA
ENDBRANCH  18  20
ENDBRANCH  17  18
ENDBRANCH  16  17
ENDBRANCH   7  11
BRANCH   6  29
ATOM     29  N   UNL     1      -3.844  12.118  20.650  0.00  0.00    +0.000 N 
ATOM     30  H   UNL     1      -3.867  11.251  21.187  0.00  0.00    +0.000 HD
BRANCH  29  31
ATOM     31  C   UNL     1      -4.933  13.069  21.042  0.00  0.00    +0.000 C 
ATOM     32  C   UNL     1      -4.458  14.503  20.802  0.00  0.00    +0.000 C 
ATOM     33  C   UNL     1      -6.212  12.594  20.314  0.00  0.00    +0.000 C 
BRANCH  31  34
ATOM     34  C   UNL     1      -5.257  13.007  22.599  0.00  0.00    +0.000 C 
BRANCH  34  35
ATOM     35  C   UNL     1      -4.067  13.094  23.678  0.00  0.00    +0.000 C 
ATOM     36  C   UNL     1      -4.446  12.521  25.057  0.00  0.00    +0.000 C 
ATOM     37  C   UNL     1      -2.886  12.253  23.140  0.00  0.00    +0.000 C 
ATOM     38  C   UNL     1      -3.473  14.498  23.937  0.00  0.00    +0.000 C 
ENDBRANCH  34  35
ENDBRANCH  31  34
ENDBRANCH  29  31
ENDBRANCH   6  29
TORSDOF 8
ENDMDL
MODEL 9
REMARK VINA RESULT:      -7.5      5.814      9.813
REMARK  Name = 
REMARK  14 active torsions:
REMARK  status: ('A' for Active; 'I' for Inactive)
REMARK    1  A    between atoms: C_1  and  C_2
REMARK    2  A    between atoms: C_6  and  N_7
REMARK    3  A    between atoms: N_7  and  C_8
REMARK    4  A    between atoms: C_8  and  C_9
REMARK    5  A    between atoms: C_8  and  C_10
REMARK    6  A    between atoms: C_8  and  C_11
REMARK    7  A    between atoms: C_11  and  C_12
REMARK    8  A    between atoms: C_12  and  C_13
REMARK    9  A    between atoms: C_12  and  C_14
REMARK   10  A    between atoms: C_12  and  C_15
REMARK   11  A    between atoms: C_16  and  C_17
REMARK   12  A    between atoms: C_22  and  O_23
REMARK   13  A    between atoms: O_23  and  C_24
REMARK   14  A    between atoms: C_24  and  C_26
REMARK                            x       y       z     vdW  Elec       q    Type
REMARK                         _______ _______ _______ _____ _____    ______ ____
ROOT
ATOM      1  C   UNL     1       1.839  17.729  20.042  0.00  0.00    +0.000 C 
ATOM      2  C   UNL     1       1.271  16.394  19.627  0.00  0.00    +0.000 A 
ATOM      3  C   UNL     1      -0.099  16.334  19.131  0.00  0.00    +0.000 A 
ATOM      4  C   UNL     1      -0.603  15.152  18.728  0.00  0.00    +0.000 A 
ATOM      5  N   UNL     1       0.175  13.998  18.843  0.00  0.00    +0.000 N 
ATOM      6  C   UNL     1      -0.108  12.664  18.474  0.00  0.00    +0.000 A 
ATOM      7  C   UNL     1       0.996  11.959  19.032  0.00  0.00    +0.000 A 
ATOM      8  N   UNL     1       1.954  12.814  19.524  0.00  0.00    +0.000 NA
ATOM      9  C   UNL     1       1.459  14.017  19.374  0.00  0.00    +0.000 A 
ATOM     10  C   UNL     1       2.021  15.275  19.724  0.00  0.00    +0.000 A 
ENDROOT
BRANCH   7  11
ATOM     11  C   UNL     1       1.216  10.508  19.144  0.00  0.00    +0.000 A 
ATOM     12  C   UNL     1       1.393   9.778  17.959  0.00  0.00    +0.000 A 
ATOM     13  C   UNL     1       1.821   8.446  17.961  0.00  0.00    +0.000 A 
ATOM     14  C   UNL     1       1.948   7.766  19.162  0.00  0.00    +0.000 A 
ATOM     15  C   UNL     1       1.650   8.422  20.352  0.00  0.00    +0.000 A 
ATOM     16  C   UNL     1       1.338   9.799  20.360  0.00  0.00    +0.000 A 
BRANCH  16  17
ATOM     17  O   UNL     1       1.134  10.392  21.631  0.00  0.00    +0.000 OA
BRANCH  17  18
ATOM     18  C   UNL     1      -0.112  10.105  22.175  0.00  0.00    +0.000 C 
ATOM     19  O   UNL     1      -0.617   8.991  22.271  0.00  0.00    +0.000 OA
BRANCH  18  20
ATOM     20  C   UNL     1      -0.900  11.333  22.503  0.00  0.00    +0.000 A 
ATOM     21  C   UNL     1      -0.512  12.638  22.131  0.00  0.00    +0.000 A 
ATOM     22  C   UNL     1      -1.331  13.744  22.437  0.00  0.00    +0.000 A 
ATOM     23  C   UNL     1      -2.531  13.513  23.080  0.00  0.00    +0.000 A 
ATOM     24  C   UNL     1      -2.912  12.244  23.442  0.00  0.00    +0.000 A 
ATOM     25  C   UNL     1      -2.121  11.145  23.182  0.00  0.00    +0.000 A 
ATOM     26  O   UNL     1      -4.127  12.221  24.054  0.00  0.00    +0.000 OA
ATOM     27  C   UNL     1      -4.535  13.593  23.879  0.00  0.00    +0.000 C 
ATOM     28  O   UNL     1      -3.461  14.445  23.423  0.00  0.00    +0.000 OA
ENDBRANCH  18  20
ENDBRANCH  17  18
ENDBRANCH  16  17
ENDBRANCH   7  11
BRANCH   6  29
ATOM     29  N   UNL     1      -1.245  12.394  17.699  0.00  0.00    +0.000 N 
ATOM     30  H   UNL     1      -1.359  12.871  16.806  0.00  0.00    +0.000 HD
BRANCH  29  31
ATOM     31  C   UNL     1      -2.461  11.615  18.097  0.00  0.00    +0.000 C 
ATOM     32  C   UNL     1      -3.388  11.480  16.888  0.00  0.00    +0.000 C 
ATOM     33  C   UNL     1      -1.951  10.320  18.772  0.00  0.00    +0.000 C 
BRANCH  31  34
ATOM     34  C   UNL     1      -3.332  12.374  19.192  0.00  0.00    +0.000 C 
BRANCH  34  35
ATOM     35  C   UNL     1      -4.922  12.138  19.267  0.00  0.00    +0.000 C 
ATOM     36  C   UNL     1      -5.731  13.146  18.429  0.00  0.00    +0.000 C 
ATOM     37  C   UNL     1      -5.212  10.729  18.697  0.00  0.00    +0.000 C 
ATOM     38  C   UNL     1      -5.553  12.137  20.679  0.00  0.00    +0.000 C 
ENDBRANCH  34  35
ENDBRANCH  31  34
ENDBRANCH  29  31
ENDBRANCH   6  29
TORSDOF 8
ENDMDL
