MODEL 1
REMARK VINA RESULT:      -6.2      0.000      0.000
REMARK  Name = 
REMARK  8 active torsions:
REMARK  status: ('A' for Active; 'I' for Inactive)
REMARK    1  A    between atoms: C_1  and  N_2
REMARK    2  A    between atoms: N_2  and  C_3
REMARK    3  A    between atoms: C_3  and  C_4
REMARK    4  A    between atoms: C_10  and  C_12
REMARK    5  A    between atoms: C_12  and  N_13
REMARK    6  A    between atoms: N_16  and  C_17
REMARK    7  A    between atoms: C_17  and  C_18
REMARK    8  A    between atoms: C_23  and  C_24
REMARK                            x       y       z     vdW  Elec       q    Type
REMARK                         _______ _______ _______ _____ _____    ______ ____
ROOT
ATOM      1  N   UNL     1      -1.811  11.078  18.687  0.00  0.00    +0.000 N 
ATOM      2  C   UNL     1      -1.880  10.241  17.564  0.00  0.00    +0.000 A 
ATOM      3  O   UNL     1      -0.976   9.589  17.072  0.00  0.00    +0.000 OA
ATOM      4  N   UNL     1      -3.198  10.338  17.079  0.00  0.00    +0.000 N 
ATOM      5  C   UNL     1      -3.906  11.196  17.923  0.00  0.00    +0.000 A 
ATOM      6  C   UNL     1      -5.174  11.677  17.925  0.00  0.00    +0.000 A 
ATOM      7  N   UNL     1      -5.573  12.572  18.856  0.00  0.00    +0.000 NA
ATOM      8  C   UNL     1      -4.664  12.966  19.795  0.00  0.00    +0.000 A 
ATOM      9  N   UNL     1      -3.381  12.544  19.855  0.00  0.00    +0.000 NA
ATOM     10  C   UNL     1      -3.060  11.657  18.913  0.00  0.00    +0.000 A 
ENDROOT
BRANCH   8  11
ATOM     11  C   UNL     1      -5.114  13.943  20.810  0.00  0.00    +0.000 A 
ATOM     12  C   UNL     1      -4.359  15.096  21.107  0.00  0.00    +0.000 A 
ATOM     13  C   UNL     1      -4.781  16.018  22.070  0.00  0.00    +0.000 A 
ATOM     14  C   UNL     1      -5.971  15.812  22.761  0.00  0.00    +0.000 A 
ATOM     15  C   UNL     1      -6.739  14.686  22.488  0.00  0.00    +0.000 A 
ATOM     16  C   UNL     1      -6.315  13.764  21.524  0.00  0.00    +0.000 A 
ENDBRANCH   8  11
BRANCH   1  17
ATOM     17  C   UNL     1      -0.613  11.376  19.420  0.00  0.00    +0.000 C 
BRANCH  17  20
ATOM     18  C   UNL     1      -0.419  10.155  23.055  0.00  0.00    +0.000 C 
ATOM     19  N   UNL     1      -0.583  11.029  21.902  0.00  0.00    +0.000 N 
ATOM     20  C   UNL     1      -0.442  10.456  20.635  0.00  0.00    +0.000 C 
ATOM     21  O   UNL     1      -0.246   9.244  20.498  0.00  0.00    +0.000 OA
BRANCH  19  22
ATOM     22  C   UNL     1      -0.672  12.469  22.157  0.00  0.00    +0.000 C 
BRANCH  22  23
ATOM     23  C   UNL     1      -1.740  12.928  23.128  0.00  0.00    +0.000 A 
ATOM     24  C   UNL     1      -2.944  12.247  23.347  0.00  0.00    +0.000 A 
ATOM     25  C   UNL     1      -3.919  12.772  24.202  0.00  0.00    +0.000 A 
ATOM     26  C   UNL     1      -3.700  13.977  24.863  0.00  0.00    +0.000 A 
ATOM     27  C   UNL     1      -2.494  14.649  24.691  0.00  0.00    +0.000 A 
ATOM     28  C   UNL     1      -1.522  14.127  23.833  0.00  0.00    +0.000 A 
ENDBRANCH  22  23
ENDBRANCH  19  22
ENDBRANCH  17  20
ENDBRANCH   1  17
BRANCH   4  29
ATOM     29  C   UNL     1      -3.685   9.719  15.870  0.00  0.00    +0.000 C 
BRANCH  29  30
ATOM     30  C   UNL     1      -3.302  10.475  14.609  0.00  0.00    +0.000 C 
ATOM     31  F   UNL     1      -2.422   9.726  13.890  0.00  0.00    +0.000 F 
ENDBRANCH  29  30
ENDBRANCH   4  29
TORSDOF 7
ENDMDL
MODEL 2
REMARK VINA RESULT:      -6.0      7.195     10.551
REMARK  Name = 
REMARK  8 active torsions:
REMARK  status: ('A' for Active; 'I' for Inactive)
REMARK    1  A    between atoms: C_1  and  N_2
REMARK    2  A    between atoms: N_2  and  C_3
REMARK    3  A    between atoms: C_3  and  C_4
REMARK    4  A    between atoms: C_10  and  C_12
REMARK    5  A    between atoms: C_12  and  N_13
REMARK    6  A    between atoms: N_16  and  C_17
REMARK    7  A    between atoms: C_17  and  C_18
REMARK    8  A    between atoms: C_23  and  C_24
REMARK                            x       y       z     vdW  Elec       q    Type
REMARK                         _______ _______ _______ _____ _____    ______ ____
ROOT
ATOM      1  N   UNL     1       2.699   6.033  19.133  0.00  0.00    +0.000 N 
ATOM      2  C   UNL     1       1.819   5.372  20.003  0.00  0.00    +0.000 A 
ATOM      3  O   UNL     1       1.192   5.857  20.928  0.00  0.00    +0.000 OA
ATOM      4  N   UNL     1       1.838   4.015  19.629  0.00  0.00    +0.000 N 
ATOM      5  C   UNL     1       2.692   3.882  18.532  0.00  0.00    +0.000 A 
ATOM      6  C   UNL     1       3.114   2.826  17.792  0.00  0.00    +0.000 A 
ATOM      7  N   UNL     1       4.022   2.992  16.805  0.00  0.00    +0.000 NA
ATOM      8  C   UNL     1       4.492   4.252  16.574  0.00  0.00    +0.000 A 
ATOM      9  N   UNL     1       4.132   5.353  17.272  0.00  0.00    +0.000 NA
ATOM     10  C   UNL     1       3.227   5.117  18.222  0.00  0.00    +0.000 A 
ENDROOT
BRANCH   8  11
ATOM     11  C   UNL     1       5.483   4.421  15.488  0.00  0.00    +0.000 A 
ATOM     12  C   UNL     1       5.309   3.806  14.232  0.00  0.00    +0.000 A 
ATOM     13  C   UNL     1       6.248   3.960  13.206  0.00  0.00    +0.000 A 
ATOM     14  C   UNL     1       7.385   4.735  13.411  0.00  0.00    +0.000 A 
ATOM     15  C   UNL     1       7.583   5.357  14.639  0.00  0.00    +0.000 A 
ATOM     16  C   UNL     1       6.643   5.200  15.664  0.00  0.00    +0.000 A 
ENDBRANCH   8  11
BRANCH   1  17
ATOM     17  C   UNL     1       3.078   7.414  19.236  0.00  0.00    +0.000 C 
BRANCH  17  20
ATOM     18  C   UNL     1       0.362  10.011  18.448  0.00  0.00    +0.000 C 
ATOM     19  N   UNL     1       1.266   9.144  19.191  0.00  0.00    +0.000 N 
ATOM     20  C   UNL     1       2.128   8.328  18.453  0.00  0.00    +0.000 C 
ATOM     21  O   UNL     1       2.163   8.384  17.221  0.00  0.00    +0.000 OA
BRANCH  19  22
ATOM     22  C   UNL     1       1.057   9.039  20.638  0.00  0.00    +0.000 C 
BRANCH  22  23
ATOM     23  C   UNL     1       0.342  10.191  21.313  0.00  0.00    +0.000 A 
ATOM     24  C   UNL     1       0.551  11.538  20.991  0.00  0.00    +0.000 A 
ATOM     25  C   UNL     1      -0.088  12.553  21.712  0.00  0.00    +0.000 A 
ATOM     26  C   UNL     1      -0.956  12.239  22.753  0.00  0.00    +0.000 A 
ATOM     27  C   UNL     1      -1.208  10.906  23.061  0.00  0.00    +0.000 A 
ATOM     28  C   UNL     1      -0.567   9.891  22.345  0.00  0.00    +0.000 A 
ENDBRANCH  22  23
ENDBRANCH  19  22
ENDBRANCH  17  20
ENDBRANCH   1  17
BRANCH   4  29
ATOM     29  C   UNL     1       1.153   2.952  20.325  0.00  0.00    +0.000 C 
BRANCH  29  30
ATOM     30  C   UNL     1       1.829   2.551  21.626  0.00  0.00    +0.000 C 
ATOM     31  F   UNL     1       0.876   2.314  22.569  0.00  0.00    +0.000 F 
ENDBRANCH  29  30
ENDBRANCH   4  29
TORSDOF 7
ENDMDL
MODEL 3
REMARK VINA RESULT:      -6.0      3.334      7.621
REMARK  Name = 
REMARK  8 active torsions:
REMARK  status: ('A' for Active; 'I' for Inactive)
REMARK    1  A    between atoms: C_1  and  N_2
REMARK    2  A    between atoms: N_2  and  C_3
REMARK    3  A    between atoms: C_3  and  C_4
REMARK    4  A    between atoms: C_10  and  C_12
REMARK    5  A    between atoms: C_12  and  N_13
REMARK    6  A    between atoms: N_16  and  C_17
REMARK    7  A    between atoms: C_17  and  C_18
REMARK    8  A    between atoms: C_23  and  C_24
REMARK                            x       y       z     vdW  Elec       q    Type
REMARK                         _______ _______ _______ _____ _____    ______ ____
ROOT
ATOM      1  N   UNL     1      -4.510  13.758  21.675  0.00  0.00    +0.000 N 
ATOM      2  C   UNL     1      -4.887  14.512  22.796  0.00  0.00    +0.000 A 
ATOM      3  O   UNL     1      -5.946  15.085  22.979  0.00  0.00    +0.000 OA
ATOM      4  N   UNL     1      -3.773  14.522  23.658  0.00  0.00    +0.000 N 
ATOM      5  C   UNL     1      -2.765  13.756  23.068  0.00  0.00    +0.000 A 
ATOM      6  C   UNL     1      -1.490  13.452  23.419  0.00  0.00    +0.000 A 
ATOM      7  N   UNL     1      -0.703  12.724  22.596  0.00  0.00    +0.000 NA
ATOM      8  C   UNL     1      -1.232  12.302  21.411  0.00  0.00    +0.000 A 
ATOM      9  N   UNL     1      -2.487  12.573  20.984  0.00  0.00    +0.000 NA
ATOM     10  C   UNL     1      -3.209  13.285  21.849  0.00  0.00    +0.000 A 
ENDROOT
BRANCH   8  11
ATOM     11  C   UNL     1      -0.360  11.504  20.521  0.00  0.00    +0.000 A 
ATOM     12  C   UNL     1      -0.139  10.130  20.748  0.00  0.00    +0.000 A 
ATOM     13  C   UNL     1       0.689   9.375  19.910  0.00  0.00    +0.000 A 
ATOM     14  C   UNL     1       1.316   9.975  18.823  0.00  0.00    +0.000 A 
ATOM     15  C   UNL     1       1.114  11.328  18.572  0.00  0.00    +0.000 A 
ATOM     16  C   UNL     1       0.286  12.082  19.412  0.00  0.00    +0.000 A 
ENDBRANCH   8  11
BRANCH   1  17
ATOM     17  C   UNL     1      -5.303  13.592  20.490  0.00  0.00    +0.000 C 
BRANCH  17  20
ATOM     18  C   UNL     1      -6.691  10.233  19.251  0.00  0.00    +0.000 C 
ATOM     19  N   UNL     1      -6.005  11.517  19.272  0.00  0.00    +0.000 N 
ATOM     20  C   UNL     1      -6.025  12.239  20.468  0.00  0.00    +0.000 C 
ATOM     21  O   UNL     1      -6.552  11.778  21.485  0.00  0.00    +0.000 OA
BRANCH  19  22
ATOM     22  C   UNL     1      -5.531  12.047  17.990  0.00  0.00    +0.000 C 
BRANCH  22  23
ATOM     23  C   UNL     1      -4.361  11.335  17.344  0.00  0.00    +0.000 A 
ATOM     24  C   UNL     1      -4.227  11.143  15.963  0.00  0.00    +0.000 A 
ATOM     25  C   UNL     1      -3.157  10.406  15.443  0.00  0.00    +0.000 A 
ATOM     26  C   UNL     1      -2.197   9.863  16.292  0.00  0.00    +0.000 A 
ATOM     27  C   UNL     1      -2.290  10.077  17.663  0.00  0.00    +0.000 A 
ATOM     28  C   UNL     1      -3.361  10.809  18.184  0.00  0.00    +0.000 A 
ENDBRANCH  22  23
ENDBRANCH  19  22
ENDBRANCH  17  20
ENDBRANCH   1  17
BRANCH   4  29
ATOM     29  C   UNL     1      -3.682  15.270  24.888  0.00  0.00    +0.000 C 
BRANCH  29  30
ATOM     30  C   UNL     1      -3.433  16.754  24.675  0.00  0.00    +0.000 C 
ATOM     31  F   UNL     1      -2.622  16.918  23.594  0.00  0.00    +0.000 F 
ENDBRANCH  29  30
ENDBRANCH   4  29
TORSDOF 7
ENDMDL
MODEL 4
REMARK VINA RESULT:      -6.0      7.877     10.966
REMARK  Name = 
REMARK  8 active torsions:
REMARK  status: ('A' for Active; 'I' for Inactive)
REMARK    1  A    between atoms: C_1  and  N_2
REMARK    2  A    between atoms: N_2  and  C_3
REMARK    3  A    between atoms: C_3  and  C_4
REMARK    4  A    between atoms: C_10  and  C_12
REMARK    5  A    between atoms: C_12  and  N_13
REMARK    6  A    between atoms: N_16  and  C_17
REMARK    7  A    between atoms: C_17  and  C_18
REMARK    8  A    between atoms: C_23  and  C_24
REMARK                            x       y       z     vdW  Elec       q    Type
REMARK                         _______ _______ _______ _____ _____    ______ ____
ROOT
ATOM      1  N   UNL     1       3.699   5.357  17.983  0.00  0.00    +0.000 N 
ATOM      2  C   UNL     1       3.798   3.993  18.293  0.00  0.00    +0.000 A 
ATOM      3  O   UNL     1       4.400   3.136  17.670  0.00  0.00    +0.000 OA
ATOM      4  N   UNL     1       3.018   3.791  19.447  0.00  0.00    +0.000 N 
ATOM      5  C   UNL     1       2.491   5.026  19.833  0.00  0.00    +0.000 A 
ATOM      6  C   UNL     1       1.658   5.423  20.827  0.00  0.00    +0.000 A 
ATOM      7  N   UNL     1       1.255   6.710  20.918  0.00  0.00    +0.000 NA
ATOM      8  C   UNL     1       1.717   7.593  19.985  0.00  0.00    +0.000 A 
ATOM      9  N   UNL     1       2.538   7.276  18.959  0.00  0.00    +0.000 NA
ATOM     10  C   UNL     1       2.903   5.994  18.937  0.00  0.00    +0.000 A 
ENDROOT
BRANCH   8  11
ATOM     11  C   UNL     1       1.270   8.999  20.098  0.00  0.00    +0.000 A 
ATOM     12  C   UNL     1       0.835   9.536  21.327  0.00  0.00    +0.000 A 
ATOM     13  C   UNL     1       0.407  10.863  21.434  0.00  0.00    +0.000 A 
ATOM     14  C   UNL     1       0.405  11.689  20.314  0.00  0.00    +0.000 A 
ATOM     15  C   UNL     1       0.832  11.189  19.090  0.00  0.00    +0.000 A 
ATOM     16  C   UNL     1       1.259   9.860  18.984  0.00  0.00    +0.000 A 
ENDBRANCH   8  11
BRANCH   1  17
ATOM     17  C   UNL     1       4.241   5.977  16.807  0.00  0.00    +0.000 C 
BRANCH  17  20
ATOM     18  C   UNL     1       7.886   7.149  17.099  0.00  0.00    +0.000 C 
ATOM     19  N   UNL     1       6.723   6.329  16.791  0.00  0.00    +0.000 N 
ATOM     20  C   UNL     1       5.467   6.841  17.130  0.00  0.00    +0.000 C 
ATOM     21  O   UNL     1       5.346   7.970  17.615  0.00  0.00    +0.000 OA
BRANCH  19  22
ATOM     22  C   UNL     1       6.967   4.953  16.349  0.00  0.00    +0.000 C 
BRANCH  22  23
ATOM     23  C   UNL     1       6.874   4.685  14.861  0.00  0.00    +0.000 A 
ATOM     24  C   UNL     1       5.973   3.781  14.284  0.00  0.00    +0.000 A 
ATOM     25  C   UNL     1       5.998   3.525  12.909  0.00  0.00    +0.000 A 
ATOM     26  C   UNL     1       6.911   4.179  12.087  0.00  0.00    +0.000 A 
ATOM     27  C   UNL     1       7.787   5.111  12.635  0.00  0.00    +0.000 A 
ATOM     28  C   UNL     1       7.766   5.363  14.010  0.00  0.00    +0.000 A 
ENDBRANCH  22  23
ENDBRANCH  19  22
ENDBRANCH  17  20
ENDBRANCH   1  17
BRANCH   4  29
ATOM     29  C   UNL     1       2.753   2.511  20.057  0.00  0.00    +0.000 C 
BRANCH  29  30
ATOM     30  C   UNL     1       1.474   1.859  19.558  0.00  0.00    +0.000 C 
ATOM     31  F   UNL     1       1.011   2.552  18.481  0.00  0.00    +0.000 F 
ENDBRANCH  29  30
ENDBRANCH   4  29
TORSDOF 7
ENDMDL
MODEL 5
REMARK VINA RESULT:      -6.0      3.214      6.380
REMARK  Name = 
REMARK  8 active torsions:
REMARK  status: ('A' for Active; 'I' for Inactive)
REMARK    1  A    between atoms: C_1  and  N_2
REMARK    2  A    between atoms: N_2  and  C_3
REMARK    3  A    between atoms: C_3  and  C_4
REMARK    4  A    between atoms: C_10  and  C_12
REMARK    5  A    between atoms: C_12  and  N_13
REMARK    6  A    between atoms: N_16  and  C_17
REMARK    7  A    between atoms: C_17  and  C_18
REMARK    8  A    between atoms: C_23  and  C_24
REMARK                            x       y       z     vdW  Elec       q    Type
REMARK                         _______ _______ _______ _____ _____    ______ ____
ROOT
ATOM      1  N   UNL     1      -3.822  13.532  22.076  0.00  0.00    +0.000 N 
ATOM      2  C   UNL     1      -4.862  14.053  22.859  0.00  0.00    +0.000 A 
ATOM      3  O   UNL     1      -4.772  14.570  23.958  0.00  0.00    +0.000 OA
ATOM      4  N   UNL     1      -6.052  13.817  22.144  0.00  0.00    +0.000 N 
ATOM      5  C   UNL     1      -5.716  13.195  20.940  0.00  0.00    +0.000 A 
ATOM      6  C   UNL     1      -6.438  12.713  19.898  0.00  0.00    +0.000 A 
ATOM      7  N   UNL     1      -5.829  12.081  18.869  0.00  0.00    +0.000 NA
ATOM      8  C   UNL     1      -4.471  11.952  18.911  0.00  0.00    +0.000 A 
ATOM      9  N   UNL     1      -3.682  12.393  19.917  0.00  0.00    +0.000 NA
ATOM     10  C   UNL     1      -4.347  13.013  20.891  0.00  0.00    +0.000 A 
ENDROOT
BRANCH   8  11
ATOM     11  C   UNL     1      -3.818  11.261  17.777  0.00  0.00    +0.000 A 
ATOM     12  C   UNL     1      -2.613  10.551  17.945  0.00  0.00    +0.000 A 
ATOM     13  C   UNL     1      -1.991   9.901  16.874  0.00  0.00    +0.000 A 
ATOM     14  C   UNL     1      -2.561   9.945  15.606  0.00  0.00    +0.000 A 
ATOM     15  C   UNL     1      -3.751  10.635  15.409  0.00  0.00    +0.000 A 
ATOM     16  C   UNL     1      -4.371  11.285  16.482  0.00  0.00    +0.000 A 
ENDBRANCH   8  11
BRANCH   1  17
ATOM     17  C   UNL     1      -2.448  13.448  22.481  0.00  0.00    +0.000 C 
BRANCH  17  20
ATOM     18  C   UNL     1      -0.472  10.226  23.162  0.00  0.00    +0.000 C 
ATOM     19  N   UNL     1      -0.815  11.557  22.679  0.00  0.00    +0.000 N 
ATOM     20  C   UNL     1      -2.086  12.048  22.991  0.00  0.00    +0.000 C 
ATOM     21  O   UNL     1      -2.865  11.403  23.700  0.00  0.00    +0.000 OA
BRANCH  19  22
ATOM     22  C   UNL     1       0.109  12.187  21.733  0.00  0.00    +0.000 C 
BRANCH  22  23
ATOM     23  C   UNL     1       0.522  11.366  20.528  0.00  0.00    +0.000 A 
ATOM     24  C   UNL     1       0.532   9.965  20.502  0.00  0.00    +0.000 A 
ATOM     25  C   UNL     1       1.002   9.274  19.381  0.00  0.00    +0.000 A 
ATOM     26  C   UNL     1       1.453   9.969  18.262  0.00  0.00    +0.000 A 
ATOM     27  C   UNL     1       1.413  11.359  18.253  0.00  0.00    +0.000 A 
ATOM     28  C   UNL     1       0.949  12.051  19.375  0.00  0.00    +0.000 A 
ENDBRANCH  22  23
ENDBRANCH  19  22
ENDBRANCH  17  20
ENDBRANCH   1  17
BRANCH   4  29
ATOM     29  C   UNL     1      -7.382  14.100  22.629  0.00  0.00    +0.000 C 
BRANCH  29  30
ATOM     30  C   UNL     1      -7.850  13.132  23.702  0.00  0.00    +0.000 C 
ATOM     31  F   UNL     1      -7.916  13.787  24.894  0.00  0.00    +0.000 F 
ENDBRANCH  29  30
ENDBRANCH   4  29
TORSDOF 7
ENDMDL
MODEL 6
REMARK VINA RESULT:      -5.9      7.947     11.097
REMARK  Name = 
REMARK  8 active torsions:
REMARK  status: ('A' for Active; 'I' for Inactive)
REMARK    1  A    between atoms: C_1  and  N_2
REMARK    2  A    between atoms: N_2  and  C_3
REMARK    3  A    between atoms: C_3  and  C_4
REMARK    4  A    between atoms: C_10  and  C_12
REMARK    5  A    between atoms: C_12  and  N_13
REMARK    6  A    between atoms: N_16  and  C_17
REMARK    7  A    between atoms: C_17  and  C_18
REMARK    8  A    between atoms: C_23  and  C_24
REMARK                            x       y       z     vdW  Elec       q    Type
REMARK                         _______ _______ _______ _____ _____    ______ ____
ROOT
ATOM      1  N   UNL     1       3.565   5.228  17.990  0.00  0.00    +0.000 N 
ATOM      2  C   UNL     1       3.599   3.868  18.331  0.00  0.00    +0.000 A 
ATOM      3  O   UNL     1       4.166   2.971  17.734  0.00  0.00    +0.000 OA
ATOM      4  N   UNL     1       2.799   3.729  19.481  0.00  0.00    +0.000 N 
ATOM      5  C   UNL     1       2.327   4.996  19.834  0.00  0.00    +0.000 A 
ATOM      6  C   UNL     1       1.504   5.453  20.810  0.00  0.00    +0.000 A 
ATOM      7  N   UNL     1       1.159   6.759  20.868  0.00  0.00    +0.000 NA
ATOM      8  C   UNL     1       1.671   7.598  19.921  0.00  0.00    +0.000 A 
ATOM      9  N   UNL     1       2.486   7.220  18.910  0.00  0.00    +0.000 NA
ATOM     10  C   UNL     1       2.791   5.922  18.921  0.00  0.00    +0.000 A 
ENDROOT
BRANCH   8  11
ATOM     11  C   UNL     1       1.289   9.025  19.997  0.00  0.00    +0.000 A 
ATOM     12  C   UNL     1       0.813   9.596  21.195  0.00  0.00    +0.000 A 
ATOM     13  C   UNL     1       0.446  10.943  21.269  0.00  0.00    +0.000 A 
ATOM     14  C   UNL     1       0.547  11.756  20.144  0.00  0.00    +0.000 A 
ATOM     15  C   UNL     1       1.016  11.223  18.949  0.00  0.00    +0.000 A 
ATOM     16  C   UNL     1       1.382   9.874  18.878  0.00  0.00    +0.000 A 
ENDBRANCH   8  11
BRANCH   1  17
ATOM     17  C   UNL     1       4.147   5.795  16.806  0.00  0.00    +0.000 C 
BRANCH  17  20
ATOM     18  C   UNL     1       7.733   7.134  17.115  0.00  0.00    +0.000 C 
ATOM     19  N   UNL     1       6.610   6.261  16.802  0.00  0.00    +0.000 N 
ATOM     20  C   UNL     1       5.330   6.715  17.134  0.00  0.00    +0.000 C 
ATOM     21  O   UNL     1       5.155   7.836  17.619  0.00  0.00    +0.000 OA
BRANCH  19  22
ATOM     22  C   UNL     1       6.920   4.899  16.360  0.00  0.00    +0.000 C 
BRANCH  22  23
ATOM     23  C   UNL     1       6.963   4.656  14.865  0.00  0.00    +0.000 A 
ATOM     24  C   UNL     1       7.832   5.319  13.990  0.00  0.00    +0.000 A 
ATOM     25  C   UNL     1       7.762   5.101  12.609  0.00  0.00    +0.000 A 
ATOM     26  C   UNL     1       6.833   4.207  12.084  0.00  0.00    +0.000 A 
ATOM     27  C   UNL     1       5.988   3.508  12.941  0.00  0.00    +0.000 A 
ATOM     28  C   UNL     1       6.055   3.729  14.319  0.00  0.00    +0.000 A 
ENDBRANCH  22  23
ENDBRANCH  19  22
ENDBRANCH  17  20
ENDBRANCH   1  17
BRANCH   4  29
ATOM     29  C   UNL     1       2.469   2.476  20.117  0.00  0.00    +0.000 C 
BRANCH  29  30
ATOM     30  C   UNL     1       2.533   2.535  21.633  0.00  0.00    +0.000 C 
ATOM     31  F   UNL     1       1.272   2.438  22.137  0.00  0.00    +0.000 F 
ENDBRANCH  29  30
ENDBRANCH   4  29
TORSDOF 7
ENDMDL
MODEL 7
REMARK VINA RESULT:      -5.9      9.330     12.897
REMARK  Name = 
REMARK  8 active torsions:
REMARK  status: ('A' for Active; 'I' for Inactive)
REMARK    1  A    between atoms: C_1  and  N_2
REMARK    2  A    between atoms: N_2  and  C_3
REMARK    3  A    between atoms: C_3  and  C_4
REMARK    4  A    between atoms: C_10  and  C_12
REMARK    5  A    between atoms: C_12  and  N_13
REMARK    6  A    between atoms: N_16  and  C_17
REMARK    7  A    between atoms: C_17  and  C_18
REMARK    8  A    between atoms: C_23  and  C_24
REMARK                            x       y       z     vdW  Elec       q    Type
REMARK                         _______ _______ _______ _____ _____    ______ ____
ROOT
ATOM      1  N   UNL     1       5.193   4.231  17.663  0.00  0.00    +0.000 N 
ATOM      2  C   UNL     1       5.873   5.073  18.555  0.00  0.00    +0.000 A 
ATOM      3  O   UNL     1       5.625   5.257  19.733  0.00  0.00    +0.000 OA
ATOM      4  N   UNL     1       6.881   5.710  17.806  0.00  0.00    +0.000 N 
ATOM      5  C   UNL     1       6.817   5.227  16.497  0.00  0.00    +0.000 A 
ATOM      6  C   UNL     1       7.501   5.503  15.359  0.00  0.00    +0.000 A 
ATOM      7  N   UNL     1       7.166   4.912  14.190  0.00  0.00    +0.000 NA
ATOM      8  C   UNL     1       6.127   4.026  14.196  0.00  0.00    +0.000 A 
ATOM      9  N   UNL     1       5.389   3.706  15.283  0.00  0.00    +0.000 NA
ATOM     10  C   UNL     1       5.781   4.319  16.400  0.00  0.00    +0.000 A 
ENDROOT
BRANCH   8  11
ATOM     11  C   UNL     1       5.773   3.384  12.911  0.00  0.00    +0.000 A 
ATOM     12  C   UNL     1       6.661   2.504  12.259  0.00  0.00    +0.000 A 
ATOM     13  C   UNL     1       6.330   1.900  11.042  0.00  0.00    +0.000 A 
ATOM     14  C   UNL     1       5.100   2.160  10.445  0.00  0.00    +0.000 A 
ATOM     15  C   UNL     1       4.202   3.021  11.066  0.00  0.00    +0.000 A 
ATOM     16  C   UNL     1       4.536   3.626  12.283  0.00  0.00    +0.000 A 
ENDBRANCH   8  11
BRANCH   1  17
ATOM     17  C   UNL     1       4.010   3.481  17.977  0.00  0.00    +0.000 C 
BRANCH  17  20
ATOM     18  C   UNL     1       2.795   2.788  21.553  0.00  0.00    +0.000 C 
ATOM     19  N   UNL     1       2.810   3.218  20.162  0.00  0.00    +0.000 N 
ATOM     20  C   UNL     1       3.993   3.027  19.442  0.00  0.00    +0.000 C 
ATOM     21  O   UNL     1       4.966   2.461  19.949  0.00  0.00    +0.000 OA
BRANCH  19  22
ATOM     22  C   UNL     1       1.667   4.004  19.689  0.00  0.00    +0.000 C 
BRANCH  22  23
ATOM     23  C   UNL     1       1.802   5.512  19.744  0.00  0.00    +0.000 A 
ATOM     24  C   UNL     1       1.476   6.285  20.865  0.00  0.00    +0.000 A 
ATOM     25  C   UNL     1       1.551   7.682  20.818  0.00  0.00    +0.000 A 
ATOM     26  C   UNL     1       1.967   8.326  19.656  0.00  0.00    +0.000 A 
ATOM     27  C   UNL     1       2.334   7.573  18.545  0.00  0.00    +0.000 A 
ATOM     28  C   UNL     1       2.255   6.178  18.590  0.00  0.00    +0.000 A 
ENDBRANCH  22  23
ENDBRANCH  19  22
ENDBRANCH  17  20
ENDBRANCH   1  17
BRANCH   4  29
ATOM     29  C   UNL     1       7.758   6.743  18.303  0.00  0.00    +0.000 C 
BRANCH  29  30
ATOM     30  C   UNL     1       7.572   8.079  17.605  0.00  0.00    +0.000 C 
ATOM     31  F   UNL     1       8.215   9.047  18.314  0.00  0.00    +0.000 F 
ENDBRANCH  29  30
ENDBRANCH   4  29
TORSDOF 7
ENDMDL
MODEL 8
REMARK VINA RESULT:      -5.9      3.511      7.677
REMARK  Name = 
REMARK  8 active torsions:
REMARK  status: ('A' for Active; 'I' for Inactive)
REMARK    1  A    between atoms: C_1  and  N_2
REMARK    2  A    between atoms: N_2  and  C_3
REMARK    3  A    between atoms: C_3  and  C_4
REMARK    4  A    between atoms: C_10  and  C_12
REMARK    5  A    between atoms: C_12  and  N_13
REMARK    6  A    between atoms: N_16  and  C_17
REMARK    7  A    between atoms: C_17  and  C_18
REMARK    8  A    between atoms: C_23  and  C_24
REMARK                            x       y       z     vdW  Elec       q    Type
REMARK                         _______ _______ _______ _____ _____    ______ ____
ROOT
ATOM      1  N   UNL     1      -4.605  13.775  21.472  0.00  0.00    +0.000 N 
ATOM      2  C   UNL     1      -5.047  14.845  22.263  0.00  0.00    +0.000 A 
ATOM      3  O   UNL     1      -6.040  15.530  22.091  0.00  0.00    +0.000 OA
ATOM      4  N   UNL     1      -4.086  15.011  23.278  0.00  0.00    +0.000 N 
ATOM      5  C   UNL     1      -3.106  14.030  23.108  0.00  0.00    +0.000 A 
ATOM      6  C   UNL     1      -1.949  13.736  23.753  0.00  0.00    +0.000 A 
ATOM      7  N   UNL     1      -1.146  12.742  23.311  0.00  0.00    +0.000 NA
ATOM      8  C   UNL     1      -1.539  12.044  22.207  0.00  0.00    +0.000 A 
ATOM      9  N   UNL     1      -2.669  12.282  21.502  0.00  0.00    +0.000 NA
ATOM     10  C   UNL     1      -3.416  13.267  21.999  0.00  0.00    +0.000 A 
ENDROOT
BRANCH   8  11
ATOM     11  C   UNL     1      -0.652  10.958  21.736  0.00  0.00    +0.000 A 
ATOM     12  C   UNL     1      -0.116  10.007  22.629  0.00  0.00    +0.000 A 
ATOM     13  C   UNL     1       0.726   8.982  22.187  0.00  0.00    +0.000 A 
ATOM     14  C   UNL     1       1.055   8.881  20.838  0.00  0.00    +0.000 A 
ATOM     15  C   UNL     1       0.539   9.802  19.933  0.00  0.00    +0.000 A 
ATOM     16  C   UNL     1      -0.303  10.827  20.378  0.00  0.00    +0.000 A 
ENDBRANCH   8  11
BRANCH   1  17
ATOM     17  C   UNL     1      -5.223  13.342  20.251  0.00  0.00    +0.000 C 
BRANCH  17  20
ATOM     18  C   UNL     1      -7.007  10.022  19.519  0.00  0.00    +0.000 C 
ATOM     19  N   UNL     1      -6.226  11.238  19.333  0.00  0.00    +0.000 N 
ATOM     20  C   UNL     1      -6.043  12.062  20.447  0.00  0.00    +0.000 C 
ATOM     21  O   UNL     1      -6.476  11.741  21.558  0.00  0.00    +0.000 OA
BRANCH  19  22
ATOM     22  C   UNL     1      -5.875  11.608  17.959  0.00  0.00    +0.000 C 
BRANCH  22  23
ATOM     23  C   UNL     1      -4.605  11.008  17.391  0.00  0.00    +0.000 A 
ATOM     24  C   UNL     1      -3.672  10.289  18.149  0.00  0.00    +0.000 A 
ATOM     25  C   UNL     1      -2.482   9.832  17.574  0.00  0.00    +0.000 A 
ATOM     26  C   UNL     1      -2.213  10.070  16.229  0.00  0.00    +0.000 A 
ATOM     27  C   UNL     1      -3.146  10.746  15.449  0.00  0.00    +0.000 A 
ATOM     28  C   UNL     1      -4.332  11.208  16.025  0.00  0.00    +0.000 A 
ENDBRANCH  22  23
ENDBRANCH  19  22
ENDBRANCH  17  20
ENDBRANCH   1  17
BRANCH   4  29
ATOM     29  C   UNL     1      -4.088  16.069  24.259  0.00  0.00    +0.000 C 
BRANCH  29  30
ATOM     30  C   UNL     1      -3.445  17.353  23.762  0.00  0.00    +0.000 C 
ATOM     31  F   UNL     1      -4.403  18.312  23.639  0.00  0.00    +0.000 F 
ENDBRANCH  29  30
ENDBRANCH   4  29
TORSDOF 7
ENDMDL
MODEL 9
REMARK VINA RESULT:      -5.9      9.116     12.715
REMARK  Name = 
REMARK  8 active torsions:
REMARK  status: ('A' for Active; 'I' for Inactive)
REMARK    1  A    between atoms: C_1  and  N_2
REMARK    2  A    between atoms: N_2  and  C_3
REMARK    3  A    between atoms: C_3  and  C_4
REMARK    4  A    between atoms: C_10  and  C_12
REMARK    5  A    between atoms: C_12  and  N_13
REMARK    6  A    between atoms: N_16  and  C_17
REMARK    7  A    between atoms: C_17  and  C_18
REMARK    8  A    between atoms: C_23  and  C_24
REMARK                            x       y       z     vdW  Elec       q    Type
REMARK                         _______ _______ _______ _____ _____    ______ ____
ROOT
ATOM      1  N   UNL     1       5.918   4.260  18.034  0.00  0.00    +0.000 N 
ATOM      2  C   UNL     1       6.598   5.200  18.821  0.00  0.00    +0.000 A 
ATOM      3  O   UNL     1       6.553   5.320  20.033  0.00  0.00    +0.000 OA
ATOM      4  N   UNL     1       7.313   6.021  17.929  0.00  0.00    +0.000 N 
ATOM      5  C   UNL     1       7.084   5.551  16.633  0.00  0.00    +0.000 A 
ATOM      6  C   UNL     1       7.476   5.963  15.401  0.00  0.00    +0.000 A 
ATOM      7  N   UNL     1       7.031   5.336  14.290  0.00  0.00    +0.000 NA
ATOM      8  C   UNL     1       6.187   4.275  14.447  0.00  0.00    +0.000 A 
ATOM      9  N   UNL     1       5.740   3.811  15.637  0.00  0.00    +0.000 NA
ATOM     10  C   UNL     1       6.226   4.470  16.689  0.00  0.00    +0.000 A 
ENDROOT
BRANCH   8  11
ATOM     11  C   UNL     1       5.710   3.596  13.222  0.00  0.00    +0.000 A 
ATOM     12  C   UNL     1       6.479   2.599  12.588  0.00  0.00    +0.000 A 
ATOM     13  C   UNL     1       6.033   1.959  11.427  0.00  0.00    +0.000 A 
ATOM     14  C   UNL     1       4.804   2.300  10.871  0.00  0.00    +0.000 A 
ATOM     15  C   UNL     1       4.021   3.277  11.475  0.00  0.00    +0.000 A 
ATOM     16  C   UNL     1       4.471   3.917  12.636  0.00  0.00    +0.000 A 
ENDBRANCH   8  11
BRANCH   1  17
ATOM     17  C   UNL     1       4.970   3.303  18.528  0.00  0.00    +0.000 C 
BRANCH  17  20
ATOM     18  C   UNL     1       1.539   4.756  17.597  0.00  0.00    +0.000 C 
ATOM     19  N   UNL     1       2.847   4.598  18.220  0.00  0.00    +0.000 N 
ATOM     20  C   UNL     1       3.594   3.469  17.872  0.00  0.00    +0.000 C 
ATOM     21  O   UNL     1       3.186   2.668  17.026  0.00  0.00    +0.000 OA
BRANCH  19  22
ATOM     22  C   UNL     1       3.187   5.515  19.311  0.00  0.00    +0.000 C 
BRANCH  22  23
ATOM     23  C   UNL     1       2.584   6.904  19.252  0.00  0.00    +0.000 A 
ATOM     24  C   UNL     1       1.829   7.474  20.285  0.00  0.00    +0.000 A 
ATOM     25  C   UNL     1       1.237   8.732  20.129  0.00  0.00    +0.000 A 
ATOM     26  C   UNL     1       1.403   9.447  18.946  0.00  0.00    +0.000 A 
ATOM     27  C   UNL     1       2.183   8.916  17.924  0.00  0.00    +0.000 A 
ATOM     28  C   UNL     1       2.771   7.657  18.077  0.00  0.00    +0.000 A 
ENDBRANCH  22  23
ENDBRANCH  19  22
ENDBRANCH  17  20
ENDBRANCH   1  17
BRANCH   4  29
ATOM     29  C   UNL     1       8.072   7.190  18.302  0.00  0.00    +0.000 C 
BRANCH  29  30
ATOM     30  C   UNL     1       7.590   8.463  17.626  0.00  0.00    +0.000 C 
ATOM     31  F   UNL     1       8.101   9.539  18.286  0.00  0.00    +0.000 F 
ENDBRANCH  29  30
ENDBRANCH   4  29
TORSDOF 7
ENDMDL
