MODEL 1
REMARK VINA RESULT:      -7.5      0.000      0.000
REMARK  Name = 
REMARK  7 active torsions:
REMARK  status: ('A' for Active; 'I' for Inactive)
REMARK    1  A    between atoms: C_1  and  C_2
REMARK    2  A    between atoms: C_2  and  C_3
REMARK    3  A    between atoms: C_7  and  C_8
REMARK    4  A    between atoms: C_9  and  N_10
REMARK    5  A    between atoms: N_13  and  C_14
REMARK    6  A    between atoms: C_17  and  N_18
REMARK    7  A    between atoms: C_22  and  O_23
REMARK                            x       y       z     vdW  Elec       q    Type
REMARK                         _______ _______ _______ _____ _____    ______ ____
ROOT
ATOM      1  N   UNL     1       9.643  10.062  19.592  0.00  0.00    +0.000 N 
ATOM      2  C   UNL     1       8.736   9.392  18.773  0.00  0.00    +0.000 C 
ATOM      3  O   UNL     1       8.020   9.915  17.927  0.00  0.00    +0.000 OA
ATOM      4  N   UNL     1       8.701   8.028  19.085  0.00  0.00    +0.000 N 
ATOM      5  H   UNL     1       9.877   9.531  20.415  0.00  0.00    +0.000 HD
ATOM      6  H   UNL     1       8.830   7.797  20.063  0.00  0.00    +0.000 HD
ENDROOT
BRANCH   1  13
ATOM      7  C   UNL     1      10.299  12.363  18.832  0.00  0.00    +0.000 A 
ATOM      8  C   UNL     1      10.369  13.742  19.141  0.00  0.00    +0.000 A 
ATOM      9  C   UNL     1       9.916  14.244  20.357  0.00  0.00    +0.000 A 
ATOM     10  C   UNL     1       9.369  13.372  21.287  0.00  0.00    +0.000 A 
ATOM     11  C   UNL     1       9.255  11.997  21.008  0.00  0.00    +0.000 A 
ATOM     12  C   UNL     1       8.607  11.134  22.060  0.00  0.00    +0.000 C 
ATOM     13  C   UNL     1       9.705  11.477  19.765  0.00  0.00    +0.000 A 
BRANCH   7  15
ATOM     14  C   UNL     1      11.723  13.067  16.836  0.00  0.00    +0.000 C 
ATOM     15  C   UNL     1      11.037  11.934  17.583  0.00  0.00    +0.000 C 
ENDBRANCH   7  15
ENDBRANCH   1  13
BRANCH   4  16
ATOM     16  C   UNL     1       7.903   7.072  18.405  0.00  0.00    +0.000 A 
ATOM     17  C   UNL     1       7.436   7.273  17.102  0.00  0.00    +0.000 A 
ATOM     18  C   UNL     1       6.666   6.285  16.466  0.00  0.00    +0.000 A 
ATOM     19  C   UNL     1       6.349   5.101  17.146  0.00  0.00    +0.000 A 
ATOM     20  C   UNL     1       6.818   4.879  18.448  0.00  0.00    +0.000 A 
ATOM     21  C   UNL     1       7.610   5.859  19.053  0.00  0.00    +0.000 A 
BRANCH  19  22
ATOM     22  N   UNL     1       5.521   4.082  16.497  0.00  0.00    +0.000 N 
ATOM     23  O   UNL     1       6.028   3.413  15.576  0.00  0.00    +0.000 OA
ATOM     24  O   UNL     1       4.360   3.935  16.903  0.00  0.00    +0.000 OA
ENDBRANCH  19  22
BRANCH  21  25
ATOM     25  O   UNL     1       8.092   5.663  20.323  0.00  0.00    +0.000 OA
ATOM     26  H   UNL     1       7.629   6.266  20.932  0.00  0.00    +0.000 HD
ENDBRANCH  21  25
ENDBRANCH   4  16
TORSDOF 5
ENDMDL
MODEL 2
REMARK VINA RESULT:      -7.4      7.230     10.607
REMARK  Name = 
REMARK  7 active torsions:
REMARK  status: ('A' for Active; 'I' for Inactive)
REMARK    1  A    between atoms: C_1  and  C_2
REMARK    2  A    between atoms: C_2  and  C_3
REMARK    3  A    between atoms: C_7  and  C_8
REMARK    4  A    between atoms: C_9  and  N_10
REMARK    5  A    between atoms: N_13  and  C_14
REMARK    6  A    between atoms: C_17  and  N_18
REMARK    7  A    between atoms: C_22  and  O_23
REMARK                            x       y       z     vdW  Elec       q    Type
REMARK                         _______ _______ _______ _____ _____    ______ ____
ROOT
ATOM      1  N   UNL     1       3.122   5.841  20.079  0.00  0.00    +0.000 N 
ATOM      2  C   UNL     1       1.944   6.503  20.423  0.00  0.00    +0.000 C 
ATOM      3  O   UNL     1       0.820   6.014  20.398  0.00  0.00    +0.000 OA
ATOM      4  N   UNL     1       2.203   7.838  20.750  0.00  0.00    +0.000 N 
ATOM      5  H   UNL     1       3.865   6.481  19.850  0.00  0.00    +0.000 HD
ATOM      6  H   UNL     1       2.948   8.283  20.226  0.00  0.00    +0.000 HD
ENDROOT
BRANCH   1  13
ATOM      7  C   UNL     1       2.913   3.341  20.015  0.00  0.00    +0.000 A 
ATOM      8  C   UNL     1       3.086   2.151  19.268  0.00  0.00    +0.000 A 
ATOM      9  C   UNL     1       3.575   2.171  17.965  0.00  0.00    +0.000 A 
ATOM     10  C   UNL     1       3.887   3.387  17.378  0.00  0.00    +0.000 A 
ATOM     11  C   UNL     1       3.702   4.595  18.076  0.00  0.00    +0.000 A 
ATOM     12  C   UNL     1       4.027   5.871  17.342  0.00  0.00    +0.000 C 
ATOM     13  C   UNL     1       3.194   4.587  19.403  0.00  0.00    +0.000 A 
BRANCH   7  15
ATOM     14  C   UNL     1       1.192   2.651  21.768  0.00  0.00    +0.000 C 
ATOM     15  C   UNL     1       2.600   3.151  21.484  0.00  0.00    +0.000 C 
ENDBRANCH   7  15
ENDBRANCH   1  13
BRANCH   4  16
ATOM     16  C   UNL     1       1.216   8.763  21.176  0.00  0.00    +0.000 A 
ATOM     17  C   UNL     1       0.841   8.899  22.516  0.00  0.00    +0.000 A 
ATOM     18  C   UNL     1      -0.127   9.845  22.888  0.00  0.00    +0.000 A 
ATOM     19  C   UNL     1      -0.735  10.645  21.910  0.00  0.00    +0.000 A 
ATOM     20  C   UNL     1      -0.363  10.530  20.564  0.00  0.00    +0.000 A 
ATOM     21  C   UNL     1       0.627   9.606  20.217  0.00  0.00    +0.000 A 
BRANCH  19  22
ATOM     22  N   UNL     1      -1.767  11.612  22.290  0.00  0.00    +0.000 N 
ATOM     23  O   UNL     1      -2.206  11.573  23.456  0.00  0.00    +0.000 OA
ATOM     24  O   UNL     1      -2.146  12.421  21.433  0.00  0.00    +0.000 OA
ENDBRANCH  19  22
BRANCH  21  25
ATOM     25  O   UNL     1       1.018   9.480  18.907  0.00  0.00    +0.000 OA
ATOM     26  H   UNL     1       1.595  10.231  18.677  0.00  0.00    +0.000 HD
ENDBRANCH  21  25
ENDBRANCH   4  16
TORSDOF 5
ENDMDL
MODEL 3
REMARK VINA RESULT:      -7.3      7.594     10.858
REMARK  Name = 
REMARK  7 active torsions:
REMARK  status: ('A' for Active; 'I' for Inactive)
REMARK    1  A    between atoms: C_1  and  C_2
REMARK    2  A    between atoms: C_2  and  C_3
REMARK    3  A    between atoms: C_7  and  C_8
REMARK    4  A    between atoms: C_9  and  N_10
REMARK    5  A    between atoms: N_13  and  C_14
REMARK    6  A    between atoms: C_17  and  N_18
REMARK    7  A    between atoms: C_22  and  O_23
REMARK                            x       y       z     vdW  Elec       q    Type
REMARK                         _______ _______ _______ _____ _____    ______ ____
ROOT
ATOM      1  N   UNL     1       2.655   6.714  20.357  0.00  0.00    +0.000 N 
ATOM      2  C   UNL     1       1.485   7.355  20.762  0.00  0.00    +0.000 C 
ATOM      3  O   UNL     1       0.354   6.890  20.680  0.00  0.00    +0.000 OA
ATOM      4  N   UNL     1       1.764   8.646  21.226  0.00  0.00    +0.000 N 
ATOM      5  H   UNL     1       3.409   7.362  20.199  0.00  0.00    +0.000 HD
ATOM      6  H   UNL     1       2.518   9.129  20.755  0.00  0.00    +0.000 HD
ENDROOT
BRANCH   1  13
ATOM      7  C   UNL     1       2.433   4.234  20.040  0.00  0.00    +0.000 A 
ATOM      8  C   UNL     1       2.590   3.127  19.172  0.00  0.00    +0.000 A 
ATOM      9  C   UNL     1       3.060   3.279  17.871  0.00  0.00    +0.000 A 
ATOM     10  C   UNL     1       3.370   4.548  17.407  0.00  0.00    +0.000 A 
ATOM     11  C   UNL     1       3.200   5.678  18.228  0.00  0.00    +0.000 A 
ATOM     12  C   UNL     1       3.520   7.021  17.624  0.00  0.00    +0.000 C 
ATOM     13  C   UNL     1       2.711   5.536  19.554  0.00  0.00    +0.000 A 
BRANCH   7  15
ATOM     14  C   UNL     1       1.384   2.591  21.686  0.00  0.00    +0.000 C 
ATOM     15  C   UNL     1       2.141   3.895  21.486  0.00  0.00    +0.000 C 
ENDBRANCH   7  15
ENDBRANCH   1  13
BRANCH   4  16
ATOM     16  C   UNL     1       0.789   9.538  21.741  0.00  0.00    +0.000 A 
ATOM     17  C   UNL     1       0.119   9.305  22.946  0.00  0.00    +0.000 A 
ATOM     18  C   UNL     1      -0.824  10.231  23.422  0.00  0.00    +0.000 A 
ATOM     19  C   UNL     1      -1.108  11.385  22.677  0.00  0.00    +0.000 A 
ATOM     20  C   UNL     1      -0.438  11.639  21.474  0.00  0.00    +0.000 A 
ATOM     21  C   UNL     1       0.521  10.722  21.032  0.00  0.00    +0.000 A 
BRANCH  19  22
ATOM     22  N   UNL     1      -2.113  12.338  23.155  0.00  0.00    +0.000 N 
ATOM     23  O   UNL     1      -3.305  11.976  23.168  0.00  0.00    +0.000 OA
ATOM     24  O   UNL     1      -1.722  13.452  23.528  0.00  0.00    +0.000 OA
ENDBRANCH  19  22
BRANCH  21  25
ATOM     25  O   UNL     1       1.200  10.951  19.861  0.00  0.00    +0.000 OA
ATOM     26  H   UNL     1       2.156  10.873  20.032  0.00  0.00    +0.000 HD
ENDBRANCH  21  25
ENDBRANCH   4  16
TORSDOF 5
ENDMDL
MODEL 4
REMARK VINA RESULT:      -7.2      0.408      2.490
REMARK  Name = 
REMARK  7 active torsions:
REMARK  status: ('A' for Active; 'I' for Inactive)
REMARK    1  A    between atoms: C_1  and  C_2
REMARK    2  A    between atoms: C_2  and  C_3
REMARK    3  A    between atoms: C_7  and  C_8
REMARK    4  A    between atoms: C_9  and  N_10
REMARK    5  A    between atoms: N_13  and  C_14
REMARK    6  A    between atoms: C_17  and  N_18
REMARK    7  A    between atoms: C_22  and  O_23
REMARK                            x       y       z     vdW  Elec       q    Type
REMARK                         _______ _______ _______ _____ _____    ______ ____
ROOT
ATOM      1  N   UNL     1       9.729   9.979  19.647  0.00  0.00    +0.000 N 
ATOM      2  C   UNL     1       8.760   9.356  18.861  0.00  0.00    +0.000 C 
ATOM      3  O   UNL     1       7.975   9.928  18.113  0.00  0.00    +0.000 OA
ATOM      4  N   UNL     1       8.757   7.974  19.082  0.00  0.00    +0.000 N 
ATOM      5  H   UNL     1      10.031   9.396  20.411  0.00  0.00    +0.000 HD
ATOM      6  H   UNL     1       8.966   7.680  20.028  0.00  0.00    +0.000 HD
ENDROOT
BRANCH   1  13
ATOM      7  C   UNL     1       9.246  11.997  21.060  0.00  0.00    +0.000 A 
ATOM      8  C   UNL     1       9.311  13.405  21.183  0.00  0.00    +0.000 A 
ATOM      9  C   UNL     1       9.857  14.203  20.182  0.00  0.00    +0.000 A 
ATOM     10  C   UNL     1      10.363  13.603  19.039  0.00  0.00    +0.000 A 
ATOM     11  C   UNL     1      10.344  12.203  18.889  0.00  0.00    +0.000 A 
ATOM     12  C   UNL     1      10.956  11.638  17.633  0.00  0.00    +0.000 C 
ATOM     13  C   UNL     1       9.799  11.379  19.910  0.00  0.00    +0.000 A 
BRANCH   7  15
ATOM     14  C   UNL     1       7.943  12.177  23.246  0.00  0.00    +0.000 C 
ATOM     15  C   UNL     1       8.422  11.285  22.111  0.00  0.00    +0.000 C 
ENDBRANCH   7  15
ENDBRANCH   1  13
BRANCH   4  16
ATOM     16  C   UNL     1       7.910   7.058  18.406  0.00  0.00    +0.000 A 
ATOM     17  C   UNL     1       7.438   7.287  17.110  0.00  0.00    +0.000 A 
ATOM     18  C   UNL     1       6.618   6.338  16.478  0.00  0.00    +0.000 A 
ATOM     19  C   UNL     1       6.257   5.164  17.155  0.00  0.00    +0.000 A 
ATOM     20  C   UNL     1       6.730   4.915  18.449  0.00  0.00    +0.000 A 
ATOM     21  C   UNL     1       7.572   5.855  19.051  0.00  0.00    +0.000 A 
BRANCH  19  22
ATOM     22  N   UNL     1       5.377   4.187  16.510  0.00  0.00    +0.000 N 
ATOM     23  O   UNL     1       4.182   4.151  16.862  0.00  0.00    +0.000 OA
ATOM     24  O   UNL     1       5.868   3.450  15.644  0.00  0.00    +0.000 OA
ENDBRANCH  19  22
BRANCH  21  25
ATOM     25  O   UNL     1       8.059   5.631  20.314  0.00  0.00    +0.000 OA
ATOM     26  H   UNL     1       9.018   5.801  20.317  0.00  0.00    +0.000 HD
ENDBRANCH  21  25
ENDBRANCH   4  16
TORSDOF 5
ENDMDL
MODEL 5
REMARK VINA RESULT:      -7.1      7.175     10.326
REMARK  Name = 
REMARK  7 active torsions:
REMARK  status: ('A' for Active; 'I' for Inactive)
REMARK    1  A    between atoms: C_1  and  C_2
REMARK    2  A    between atoms: C_2  and  C_3
REMARK    3  A    between atoms: C_7  and  C_8
REMARK    4  A    between atoms: C_9  and  N_10
REMARK    5  A    between atoms: N_13  and  C_14
REMARK    6  A    between atoms: C_17  and  N_18
REMARK    7  A    between atoms: C_22  and  O_23
REMARK                            x       y       z     vdW  Elec       q    Type
REMARK                         _______ _______ _______ _____ _____    ______ ____
ROOT
ATOM      1  N   UNL     1       2.923   5.842  20.394  0.00  0.00    +0.000 N 
ATOM      2  C   UNL     1       1.756   6.578  20.594  0.00  0.00    +0.000 C 
ATOM      3  O   UNL     1       0.619   6.190  20.350  0.00  0.00    +0.000 OA
ATOM      4  N   UNL     1       2.055   7.864  21.060  0.00  0.00    +0.000 N 
ATOM      5  H   UNL     1       3.739   6.430  20.338  0.00  0.00    +0.000 HD
ATOM      6  H   UNL     1       2.907   8.275  20.698  0.00  0.00    +0.000 HD
ENDROOT
BRANCH   1  13
ATOM      7  C   UNL     1       3.423   4.571  18.288  0.00  0.00    +0.000 A 
ATOM      8  C   UNL     1       3.407   3.324  17.620  0.00  0.00    +0.000 A 
ATOM      9  C   UNL     1       2.953   2.166  18.243  0.00  0.00    +0.000 A 
ATOM     10  C   UNL     1       2.517   2.231  19.557  0.00  0.00    +0.000 A 
ATOM     11  C   UNL     1       2.543   3.446  20.267  0.00  0.00    +0.000 A 
ATOM     12  C   UNL     1       2.091   3.412  21.705  0.00  0.00    +0.000 C 
ATOM     13  C   UNL     1       3.014   4.632  19.644  0.00  0.00    +0.000 A 
BRANCH   7  15
ATOM     14  C   UNL     1       4.873   5.584  16.450  0.00  0.00    +0.000 C 
ATOM     15  C   UNL     1       3.718   5.775  17.420  0.00  0.00    +0.000 C 
ENDBRANCH   7  15
ENDBRANCH   1  13
BRANCH   4  16
ATOM     16  C   UNL     1       1.081   8.840  21.391  0.00  0.00    +0.000 A 
ATOM     17  C   UNL     1       0.561   8.975  22.682  0.00  0.00    +0.000 A 
ATOM     18  C   UNL     1      -0.387   9.973  22.962  0.00  0.00    +0.000 A 
ATOM     19  C   UNL     1      -0.828  10.826  21.940  0.00  0.00    +0.000 A 
ATOM     20  C   UNL     1      -0.309  10.711  20.644  0.00  0.00    +0.000 A 
ATOM     21  C   UNL     1       0.658   9.734  20.391  0.00  0.00    +0.000 A 
BRANCH  19  22
ATOM     22  N   UNL     1      -1.839  11.847  22.221  0.00  0.00    +0.000 N 
ATOM     23  O   UNL     1      -2.287  11.925  23.382  0.00  0.00    +0.000 OA
ATOM     24  O   UNL     1      -2.190  12.585  21.291  0.00  0.00    +0.000 OA
ENDBRANCH  19  22
BRANCH  21  25
ATOM     25  O   UNL     1       1.192   9.606  19.133  0.00  0.00    +0.000 OA
ATOM     26  H   UNL     1       2.162   9.673  19.193  0.00  0.00    +0.000 HD
ENDBRANCH  21  25
ENDBRANCH   4  16
TORSDOF 5
ENDMDL
MODEL 6
REMARK VINA RESULT:      -6.9      6.686     10.014
REMARK  Name = 
REMARK  7 active torsions:
REMARK  status: ('A' for Active; 'I' for Inactive)
REMARK    1  A    between atoms: C_1  and  C_2
REMARK    2  A    between atoms: C_2  and  C_3
REMARK    3  A    between atoms: C_7  and  C_8
REMARK    4  A    between atoms: C_9  and  N_10
REMARK    5  A    between atoms: N_13  and  C_14
REMARK    6  A    between atoms: C_17  and  N_18
REMARK    7  A    between atoms: C_22  and  O_23
REMARK                            x       y       z     vdW  Elec       q    Type
REMARK                         _______ _______ _______ _____ _____    ______ ____
ROOT
ATOM      1  N   UNL     1       2.982   7.011  17.740  0.00  0.00    +0.000 N 
ATOM      2  C   UNL     1       2.457   7.455  18.953  0.00  0.00    +0.000 C 
ATOM      3  O   UNL     1       2.613   6.908  20.038  0.00  0.00    +0.000 OA
ATOM      4  N   UNL     1       1.666   8.594  18.763  0.00  0.00    +0.000 N 
ATOM      5  H   UNL     1       2.485   7.388  16.949  0.00  0.00    +0.000 HD
ATOM      6  H   UNL     1       1.143   8.626  17.896  0.00  0.00    +0.000 HD
ENDROOT
BRANCH   1  13
ATOM      7  C   UNL     1       2.838   4.510  17.587  0.00  0.00    +0.000 A 
ATOM      8  C   UNL     1       3.529   3.287  17.417  0.00  0.00    +0.000 A 
ATOM      9  C   UNL     1       4.908   3.246  17.233  0.00  0.00    +0.000 A 
ATOM     10  C   UNL     1       5.622   4.434  17.201  0.00  0.00    +0.000 A 
ATOM     11  C   UNL     1       4.969   5.673  17.337  0.00  0.00    +0.000 A 
ATOM     12  C   UNL     1       5.821   6.913  17.245  0.00  0.00    +0.000 C 
ATOM     13  C   UNL     1       3.561   5.727  17.515  0.00  0.00    +0.000 A 
BRANCH   7  15
ATOM     14  C   UNL     1       1.176   3.668  19.331  0.00  0.00    +0.000 C 
ATOM     15  C   UNL     1       1.389   4.389  18.009  0.00  0.00    +0.000 C 
ENDBRANCH   7  15
ENDBRANCH   1  13
BRANCH   4  16
ATOM     16  C   UNL     1       1.022   9.303  19.808  0.00  0.00    +0.000 A 
ATOM     17  C   UNL     1       1.055   8.876  21.139  0.00  0.00    +0.000 A 
ATOM     18  C   UNL     1       0.418   9.627  22.140  0.00  0.00    +0.000 A 
ATOM     19  C   UNL     1      -0.271  10.801  21.802  0.00  0.00    +0.000 A 
ATOM     20  C   UNL     1      -0.305  11.249  20.475  0.00  0.00    +0.000 A 
ATOM     21  C   UNL     1       0.363  10.506  19.497  0.00  0.00    +0.000 A 
BRANCH  19  22
ATOM     22  N   UNL     1      -0.963  11.570  22.839  0.00  0.00    +0.000 N 
ATOM     23  O   UNL     1      -1.964  11.060  23.378  0.00  0.00    +0.000 OA
ATOM     24  O   UNL     1      -0.512  12.686  23.129  0.00  0.00    +0.000 OA
ENDBRANCH  19  22
BRANCH  21  25
ATOM     25  O   UNL     1       0.355  10.928  18.191  0.00  0.00    +0.000 OA
ATOM     26  H   UNL     1      -0.333  10.438  17.705  0.00  0.00    +0.000 HD
ENDBRANCH  21  25
ENDBRANCH   4  16
TORSDOF 5
ENDMDL
MODEL 7
REMARK VINA RESULT:      -6.7      6.579      9.587
REMARK  Name = 
REMARK  7 active torsions:
REMARK  status: ('A' for Active; 'I' for Inactive)
REMARK    1  A    between atoms: C_1  and  C_2
REMARK    2  A    between atoms: C_2  and  C_3
REMARK    3  A    between atoms: C_7  and  C_8
REMARK    4  A    between atoms: C_9  and  N_10
REMARK    5  A    between atoms: N_13  and  C_14
REMARK    6  A    between atoms: C_17  and  N_18
REMARK    7  A    between atoms: C_22  and  O_23
REMARK                            x       y       z     vdW  Elec       q    Type
REMARK                         _______ _______ _______ _____ _____    ______ ____
ROOT
ATOM      1  N   UNL     1       2.919   7.034  17.763  0.00  0.00    +0.000 N 
ATOM      2  C   UNL     1       2.457   7.544  18.976  0.00  0.00    +0.000 C 
ATOM      3  O   UNL     1       2.773   7.133  20.087  0.00  0.00    +0.000 OA
ATOM      4  N   UNL     1       1.524   8.564  18.761  0.00  0.00    +0.000 N 
ATOM      5  H   UNL     1       2.312   7.271  16.995  0.00  0.00    +0.000 HD
ATOM      6  H   UNL     1       0.926   8.449  17.952  0.00  0.00    +0.000 HD
ENDROOT
BRANCH   1  13
ATOM      7  C   UNL     1       5.021   5.711  17.399  0.00  0.00    +0.000 A 
ATOM      8  C   UNL     1       5.603   4.440  17.179  0.00  0.00    +0.000 A 
ATOM      9  C   UNL     1       4.831   3.285  17.106  0.00  0.00    +0.000 A 
ATOM     10  C   UNL     1       3.457   3.378  17.266  0.00  0.00    +0.000 A 
ATOM     11  C   UNL     1       2.841   4.619  17.515  0.00  0.00    +0.000 A 
ATOM     12  C   UNL     1       1.348   4.617  17.720  0.00  0.00    +0.000 C 
ATOM     13  C   UNL     1       3.622   5.803  17.602  0.00  0.00    +0.000 A 
BRANCH   7  15
ATOM     14  C   UNL     1       7.387   6.636  17.640  0.00  0.00    +0.000 C 
ATOM     15  C   UNL     1       5.948   6.895  17.222  0.00  0.00    +0.000 C 
ENDBRANCH   7  15
ENDBRANCH   1  13
BRANCH   4  16
ATOM     16  C   UNL     1       0.898   9.306  19.796  0.00  0.00    +0.000 A 
ATOM     17  C   UNL     1       0.551   8.737  21.024  0.00  0.00    +0.000 A 
ATOM     18  C   UNL     1      -0.049   9.521  22.023  0.00  0.00    +0.000 A 
ATOM     19  C   UNL     1      -0.318  10.876  21.781  0.00  0.00    +0.000 A 
ATOM     20  C   UNL     1       0.034  11.464  20.560  0.00  0.00    +0.000 A 
ATOM     21  C   UNL     1       0.660  10.676  19.590  0.00  0.00    +0.000 A 
BRANCH  19  22
ATOM     22  N   UNL     1      -0.971  11.689  22.810  0.00  0.00    +0.000 N 
ATOM     23  O   UNL     1      -0.467  12.793  23.092  0.00  0.00    +0.000 OA
ATOM     24  O   UNL     1      -1.994  11.237  23.341  0.00  0.00    +0.000 OA
ENDBRANCH  19  22
BRANCH  21  25
ATOM     25  O   UNL     1       1.026  11.230  18.388  0.00  0.00    +0.000 OA
ATOM     26  H   UNL     1       1.998  11.270  18.342  0.00  0.00    +0.000 HD
ENDBRANCH  21  25
ENDBRANCH   4  16
TORSDOF 5
ENDMDL
MODEL 8
REMARK VINA RESULT:      -6.6      5.947      8.687
REMARK  Name = 
REMARK  7 active torsions:
REMARK  status: ('A' for Active; 'I' for Inactive)
REMARK    1  A    between atoms: C_1  and  C_2
REMARK    2  A    between atoms: C_2  and  C_3
REMARK    3  A    between atoms: C_7  and  C_8
REMARK    4  A    between atoms: C_9  and  N_10
REMARK    5  A    between atoms: N_13  and  C_14
REMARK    6  A    between atoms: C_17  and  N_18
REMARK    7  A    between atoms: C_22  and  O_23
REMARK                            x       y       z     vdW  Elec       q    Type
REMARK                         _______ _______ _______ _____ _____    ______ ____
ROOT
ATOM      1  N   UNL     1       4.065   5.958  18.410  0.00  0.00    +0.000 N 
ATOM      2  C   UNL     1       3.118   6.949  18.154  0.00  0.00    +0.000 C 
ATOM      3  O   UNL     1       2.759   7.320  17.042  0.00  0.00    +0.000 OA
ATOM      4  N   UNL     1       2.663   7.519  19.348  0.00  0.00    +0.000 N 
ATOM      5  H   UNL     1       4.451   6.031  19.337  0.00  0.00    +0.000 HD
ATOM      6  H   UNL     1       3.350   7.597  20.088  0.00  0.00    +0.000 HD
ENDROOT
BRANCH   1  13
ATOM      7  C   UNL     1       6.153   6.021  17.019  0.00  0.00    +0.000 A 
ATOM      8  C   UNL     1       6.922   5.410  16.000  0.00  0.00    +0.000 A 
ATOM      9  C   UNL     1       6.504   4.242  15.369  0.00  0.00    +0.000 A 
ATOM     10  C   UNL     1       5.310   3.654  15.756  0.00  0.00    +0.000 A 
ATOM     11  C   UNL     1       4.530   4.213  16.785  0.00  0.00    +0.000 A 
ATOM     12  C   UNL     1       3.270   3.479  17.169  0.00  0.00    +0.000 C 
ATOM     13  C   UNL     1       4.953   5.399  17.444  0.00  0.00    +0.000 A 
BRANCH   7  15
ATOM     14  C   UNL     1       7.972   7.428  18.124  0.00  0.00    +0.000 C 
ATOM     15  C   UNL     1       6.610   7.399  17.447  0.00  0.00    +0.000 C 
ENDBRANCH   7  15
ENDBRANCH   1  13
BRANCH   4  16
ATOM     16  C   UNL     1       1.670   8.530  19.424  0.00  0.00    +0.000 A 
ATOM     17  C   UNL     1       1.212   9.219  18.297  0.00  0.00    +0.000 A 
ATOM     18  C   UNL     1       0.212  10.198  18.424  0.00  0.00    +0.000 A 
ATOM     19  C   UNL     1      -0.316  10.497  19.688  0.00  0.00    +0.000 A 
ATOM     20  C   UNL     1       0.124   9.808  20.826  0.00  0.00    +0.000 A 
ATOM     21  C   UNL     1       1.096   8.815  20.676  0.00  0.00    +0.000 A 
BRANCH  19  22
ATOM     22  N   UNL     1      -1.337  11.538  19.829  0.00  0.00    +0.000 N 
ATOM     23  O   UNL     1      -1.840  12.010  18.791  0.00  0.00    +0.000 OA
ATOM     24  O   UNL     1      -1.650  11.891  20.974  0.00  0.00    +0.000 OA
ENDBRANCH  19  22
BRANCH  21  25
ATOM     25  O   UNL     1       1.538   8.116  21.771  0.00  0.00    +0.000 OA
ATOM     26  H   UNL     1       2.414   7.739  21.573  0.00  0.00    +0.000 HD
ENDBRANCH  21  25
ENDBRANCH   4  16
TORSDOF 5
ENDMDL
MODEL 9
REMARK VINA RESULT:      -6.6      6.617      9.809
REMARK  Name = 
REMARK  7 active torsions:
REMARK  status: ('A' for Active; 'I' for Inactive)
REMARK    1  A    between atoms: C_1  and  C_2
REMARK    2  A    between atoms: C_2  and  C_3
REMARK    3  A    between atoms: C_7  and  C_8
REMARK    4  A    between atoms: C_9  and  N_10
REMARK    5  A    between atoms: N_13  and  C_14
REMARK    6  A    between atoms: C_17  and  N_18
REMARK    7  A    between atoms: C_22  and  O_23
REMARK                            x       y       z     vdW  Elec       q    Type
REMARK                         _______ _______ _______ _____ _____    ______ ____
ROOT
ATOM      1  N   UNL     1       2.538   5.490  20.579  0.00  0.00    +0.000 N 
ATOM      2  C   UNL     1       2.039   6.600  19.901  0.00  0.00    +0.000 C 
ATOM      3  O   UNL     1       1.755   6.638  18.709  0.00  0.00    +0.000 OA
ATOM      4  N   UNL     1       1.957   7.707  20.754  0.00  0.00    +0.000 N 
ATOM      5  H   UNL     1       3.006   5.744  21.433  0.00  0.00    +0.000 HD
ATOM      6  H   UNL     1       2.685   7.775  21.455  0.00  0.00    +0.000 HD
ENDROOT
BRANCH   1  13
ATOM      7  C   UNL     1       4.317   4.212  19.354  0.00  0.00    +0.000 A 
ATOM      8  C   UNL     1       4.684   3.008  18.707  0.00  0.00    +0.000 A 
ATOM      9  C   UNL     1       3.806   1.933  18.607  0.00  0.00    +0.000 A 
ATOM     10  C   UNL     1       2.542   2.038  19.168  0.00  0.00    +0.000 A 
ATOM     11  C   UNL     1       2.148   3.207  19.845  0.00  0.00    +0.000 A 
ATOM     12  C   UNL     1       0.772   3.213  20.461  0.00  0.00    +0.000 C 
ATOM     13  C   UNL     1       3.041   4.306  19.962  0.00  0.00    +0.000 A 
BRANCH   7  15
ATOM     14  C   UNL     1       5.173   6.081  17.843  0.00  0.00    +0.000 C 
ATOM     15  C   UNL     1       5.279   5.367  19.182  0.00  0.00    +0.000 C 
ENDBRANCH   7  15
ENDBRANCH   1  13
BRANCH   4  16
ATOM     16  C   UNL     1       1.455   8.977  20.371  0.00  0.00    +0.000 A 
ATOM     17  C   UNL     1       1.323   9.361  19.033  0.00  0.00    +0.000 A 
ATOM     18  C   UNL     1       0.800  10.623  18.707  0.00  0.00    +0.000 A 
ATOM     19  C   UNL     1       0.426  11.509  19.727  0.00  0.00    +0.000 A 
ATOM     20  C   UNL     1       0.542  11.136  21.072  0.00  0.00    +0.000 A 
ATOM     21  C   UNL     1       1.033   9.863  21.377  0.00  0.00    +0.000 A 
BRANCH  19  22
ATOM     22  N   UNL     1      -0.091  12.838  19.391  0.00  0.00    +0.000 N 
ATOM     23  O   UNL     1       0.186  13.784  20.154  0.00  0.00    +0.000 OA
ATOM     24  O   UNL     1      -0.771  12.951  18.363  0.00  0.00    +0.000 OA
ENDBRANCH  19  22
BRANCH  21  25
ATOM     25  O   UNL     1       1.147   9.468  22.687  0.00  0.00    +0.000 OA
ATOM     26  H   UNL     1       0.560  10.019  23.235  0.00  0.00    +0.000 HD
ENDBRANCH  21  25
ENDBRANCH   4  16
TORSDOF 5
ENDMDL
