MODEL 1
REMARK VINA RESULT:      -8.3      0.000      0.000
REMARK  Name = 
REMARK  4 active torsions:
REMARK  status: ('A' for Active; 'I' for Inactive)
REMARK    1  A    between atoms: C_1  and  C_2
REMARK    2  A    between atoms: C_5  and  C_7
REMARK    3  A    between atoms: N_21  and  C_22
REMARK    4  A    between atoms: C_27  and  N_28
REMARK                            x       y       z     vdW  Elec       q    Type
REMARK                         _______ _______ _______ _____ _____    ______ ____
ROOT
ATOM      1  C   UNL     1       1.778   5.047  18.905  0.00  0.00    +0.000 C 
ATOM      2  C   UNL     1       2.438   6.338  19.408  0.00  0.00    +0.000 C 
ATOM      3  C   UNL     1       3.984   6.198  19.464  0.00  0.00    +0.000 C 
ATOM      4  N   UNL     1       4.577   6.134  18.118  0.00  0.00    +0.000 N 
ATOM      5  C   UNL     1       5.157   4.932  17.692  0.00  0.00    +0.000 C 
ATOM      6  O   UNL     1       5.171   3.955  18.445  0.00  0.00    +0.000 OA
ATOM      7  C   UNL     1       4.199   7.260  17.249  0.00  0.00    +0.000 C 
ATOM      8  C   UNL     1       2.675   7.421  17.187  0.00  0.00    +0.000 C 
ATOM      9  N   UNL     1       2.089   7.488  18.538  0.00  0.00    +0.000 N 
ATOM     10  C   UNL     1       1.516   8.694  18.898  0.00  0.00    +0.000 C 
ATOM     11  O   UNL     1       1.510   9.623  18.083  0.00  0.00    +0.000 OA
ATOM     12  N   UNL     1       0.964   8.800  20.155  0.00  0.00    +0.000 N 
ATOM     13  H   UNL     1       1.321   8.190  20.881  0.00  0.00    +0.000 HD
ENDROOT
BRANCH   5  14
ATOM     14  C   UNL     1       5.686   4.821  16.344  0.00  0.00    +0.000 A 
ATOM     15  C   UNL     1       6.812   5.408  15.793  0.00  0.00    +0.000 A 
ATOM     16  C   UNL     1       6.922   4.935  14.462  0.00  0.00    +0.000 A 
ATOM     17  C   UNL     1       7.845   5.087  13.414  0.00  0.00    +0.000 A 
ATOM     18  C   UNL     1       7.604   4.419  12.204  0.00  0.00    +0.000 A 
ATOM     19  C   UNL     1       6.466   3.625  12.033  0.00  0.00    +0.000 A 
ATOM     20  C   UNL     1       5.531   3.469  13.063  0.00  0.00    +0.000 A 
ATOM     21  C   UNL     1       5.805   4.138  14.255  0.00  0.00    +0.000 A 
ATOM     22  O   UNL     1       5.037   4.098  15.378  0.00  0.00    +0.000 OA
ENDBRANCH   5  14
BRANCH  12  23
ATOM     23  C   UNL     1       0.206   9.929  20.613  0.00  0.00    +0.000 A 
ATOM     24  C   UNL     1      -0.556  10.679  19.700  0.00  0.00    +0.000 A 
ATOM     25  C   UNL     1      -1.266  11.820  20.075  0.00  0.00    +0.000 A 
ATOM     26  C   UNL     1      -1.286  12.221  21.400  0.00  0.00    +0.000 A 
ATOM     27  C   UNL     1      -0.589  11.477  22.350  0.00  0.00    +0.000 A 
ATOM     28  C   UNL     1       0.159  10.341  21.964  0.00  0.00    +0.000 A 
BRANCH  28  29
ATOM     29  N   UNL     1       0.911   9.646  23.021  0.00  0.00    +0.000 N 
ATOM     30  O   UNL     1       0.358   9.489  24.123  0.00  0.00    +0.000 OA
ATOM     31  O   UNL     1       2.059   9.256  22.761  0.00  0.00    +0.000 OA
ENDBRANCH  28  29
ENDBRANCH  12  23
TORSDOF 3
ENDMDL
MODEL 2
REMARK VINA RESULT:      -8.3      0.551      1.227
REMARK  Name = 
REMARK  4 active torsions:
REMARK  status: ('A' for Active; 'I' for Inactive)
REMARK    1  A    between atoms: C_1  and  C_2
REMARK    2  A    between atoms: C_5  and  C_7
REMARK    3  A    between atoms: N_21  and  C_22
REMARK    4  A    between atoms: C_27  and  N_28
REMARK                            x       y       z     vdW  Elec       q    Type
REMARK                         _______ _______ _______ _____ _____    ______ ____
ROOT
ATOM      1  C   UNL     1       1.934   4.997  19.079  0.00  0.00    +0.000 C 
ATOM      2  C   UNL     1       2.595   6.328  19.460  0.00  0.00    +0.000 C 
ATOM      3  C   UNL     1       4.143   6.211  19.466  0.00  0.00    +0.000 C 
ATOM      4  N   UNL     1       4.684   6.055  18.105  0.00  0.00    +0.000 N 
ATOM      5  C   UNL     1       5.265   4.833  17.744  0.00  0.00    +0.000 C 
ATOM      6  O   UNL     1       5.322   3.913  18.565  0.00  0.00    +0.000 OA
ATOM      7  C   UNL     1       4.257   7.111  17.172  0.00  0.00    +0.000 C 
ATOM      8  C   UNL     1       2.730   7.249  17.160  0.00  0.00    +0.000 C 
ATOM      9  N   UNL     1       2.196   7.408  18.525  0.00  0.00    +0.000 N 
ATOM     10  C   UNL     1       1.620   8.631  18.818  0.00  0.00    +0.000 C 
ATOM     11  O   UNL     1       1.569   9.498  17.939  0.00  0.00    +0.000 OA
ATOM     12  N   UNL     1       1.116   8.822  20.086  0.00  0.00    +0.000 N 
ATOM     13  H   UNL     1       1.509   8.270  20.839  0.00  0.00    +0.000 HD
ENDROOT
BRANCH   5  14
ATOM     14  C   UNL     1       5.742   4.630  16.388  0.00  0.00    +0.000 A 
ATOM     15  C   UNL     1       5.317   3.719  15.436  0.00  0.00    +0.000 A 
ATOM     16  C   UNL     1       6.060   3.966  14.257  0.00  0.00    +0.000 A 
ATOM     17  C   UNL     1       6.071   3.456  12.948  0.00  0.00    +0.000 A 
ATOM     18  C   UNL     1       6.979   3.993  12.024  0.00  0.00    +0.000 A 
ATOM     19  C   UNL     1       7.866   5.009  12.392  0.00  0.00    +0.000 A 
ATOM     20  C   UNL     1       7.876   5.524  13.693  0.00  0.00    +0.000 A 
ATOM     21  C   UNL     1       6.955   4.976  14.584  0.00  0.00    +0.000 A 
ATOM     22  O   UNL     1       6.790   5.352  15.881  0.00  0.00    +0.000 OA
ENDBRANCH   5  14
BRANCH  12  23
ATOM     23  C   UNL     1       0.360   9.972  20.491  0.00  0.00    +0.000 A 
ATOM     24  C   UNL     1      -0.317  10.741  19.527  0.00  0.00    +0.000 A 
ATOM     25  C   UNL     1      -1.018  11.903  19.853  0.00  0.00    +0.000 A 
ATOM     26  C   UNL     1      -1.117  12.307  21.174  0.00  0.00    +0.000 A 
ATOM     27  C   UNL     1      -0.507  11.546  22.169  0.00  0.00    +0.000 A 
ATOM     28  C   UNL     1       0.234  10.389  21.835  0.00  0.00    +0.000 A 
BRANCH  28  29
ATOM     29  N   UNL     1       0.891   9.676  22.941  0.00  0.00    +0.000 N 
ATOM     30  O   UNL     1       2.031   9.220  22.747  0.00  0.00    +0.000 OA
ATOM     31  O   UNL     1       0.274   9.562  24.012  0.00  0.00    +0.000 OA
ENDBRANCH  28  29
ENDBRANCH  12  23
TORSDOF 3
ENDMDL
MODEL 3
REMARK VINA RESULT:      -8.1      2.933     10.349
REMARK  Name = 
REMARK  4 active torsions:
REMARK  status: ('A' for Active; 'I' for Inactive)
REMARK    1  A    between atoms: C_1  and  C_2
REMARK    2  A    between atoms: C_5  and  C_7
REMARK    3  A    between atoms: N_21  and  C_22
REMARK    4  A    between atoms: C_27  and  N_28
REMARK                            x       y       z     vdW  Elec       q    Type
REMARK                         _______ _______ _______ _____ _____    ______ ____
ROOT
ATOM      1  C   UNL     1      -0.553   9.720  17.707  0.00  0.00    +0.000 C 
ATOM      2  C   UNL     1       0.930   9.752  18.099  0.00  0.00    +0.000 C 
ATOM      3  C   UNL     1       1.369  11.177  18.534  0.00  0.00    +0.000 C 
ATOM      4  N   UNL     1       0.772  11.563  19.823  0.00  0.00    +0.000 N 
ATOM      5  C   UNL     1      -0.187  12.583  19.845  0.00  0.00    +0.000 C 
ATOM      6  O   UNL     1      -0.511  13.144  18.795  0.00  0.00    +0.000 OA
ATOM      7  C   UNL     1       1.024  10.599  20.907  0.00  0.00    +0.000 C 
ATOM      8  C   UNL     1       0.606   9.183  20.492  0.00  0.00    +0.000 C 
ATOM      9  N   UNL     1       1.210   8.802  19.203  0.00  0.00    +0.000 N 
ATOM     10  C   UNL     1       2.139   7.778  19.241  0.00  0.00    +0.000 C 
ATOM     11  O   UNL     1       2.395   7.238  20.323  0.00  0.00    +0.000 OA
ATOM     12  N   UNL     1       2.733   7.398  18.058  0.00  0.00    +0.000 N 
ATOM     13  H   UNL     1       2.788   8.084  17.315  0.00  0.00    +0.000 HD
ENDROOT
BRANCH   5  14
ATOM     14  C   UNL     1      -0.843  12.934  21.092  0.00  0.00    +0.000 A 
ATOM     15  C   UNL     1      -0.453  13.841  22.063  0.00  0.00    +0.000 A 
ATOM     16  C   UNL     1      -1.466  13.858  23.053  0.00  0.00    +0.000 A 
ATOM     17  C   UNL     1      -1.709  14.583  24.230  0.00  0.00    +0.000 A 
ATOM     18  C   UNL     1      -2.878  14.312  24.957  0.00  0.00    +0.000 A 
ATOM     19  C   UNL     1      -3.783  13.336  24.530  0.00  0.00    +0.000 A 
ATOM     20  C   UNL     1      -3.553  12.597  23.364  0.00  0.00    +0.000 A 
ATOM     21  C   UNL     1      -2.388  12.897  22.660  0.00  0.00    +0.000 A 
ATOM     22  O   UNL     1      -1.995  12.312  21.496  0.00  0.00    +0.000 OA
ENDBRANCH   5  14
BRANCH  12  23
ATOM     23  C   UNL     1       3.596   6.260  17.915  0.00  0.00    +0.000 A 
ATOM     24  C   UNL     1       4.978   6.447  17.737  0.00  0.00    +0.000 A 
ATOM     25  C   UNL     1       5.858   5.383  17.533  0.00  0.00    +0.000 A 
ATOM     26  C   UNL     1       5.390   4.080  17.560  0.00  0.00    +0.000 A 
ATOM     27  C   UNL     1       4.036   3.845  17.788  0.00  0.00    +0.000 A 
ATOM     28  C   UNL     1       3.138   4.924  17.958  0.00  0.00    +0.000 A 
BRANCH  28  29
ATOM     29  N   UNL     1       1.717   4.588  18.137  0.00  0.00    +0.000 N 
ATOM     30  O   UNL     1       1.327   4.289  19.279  0.00  0.00    +0.000 OA
ATOM     31  O   UNL     1       0.980   4.616  17.139  0.00  0.00    +0.000 OA
ENDBRANCH  28  29
ENDBRANCH  12  23
TORSDOF 3
ENDMDL
MODEL 4
REMARK VINA RESULT:      -8.0      3.157      6.020
REMARK  Name = 
REMARK  4 active torsions:
REMARK  status: ('A' for Active; 'I' for Inactive)
REMARK    1  A    between atoms: C_1  and  C_2
REMARK    2  A    between atoms: C_5  and  C_7
REMARK    3  A    between atoms: N_21  and  C_22
REMARK    4  A    between atoms: C_27  and  N_28
REMARK                            x       y       z     vdW  Elec       q    Type
REMARK                         _______ _______ _______ _____ _____    ______ ____
ROOT
ATOM      1  C   UNL     1       2.122  12.484  19.950  0.00  0.00    +0.000 C 
ATOM      2  C   UNL     1       0.623  12.175  20.068  0.00  0.00    +0.000 C 
ATOM      3  C   UNL     1       0.162  11.181  18.968  0.00  0.00    +0.000 C 
ATOM      4  N   UNL     1       0.703   9.830  19.189  0.00  0.00    +0.000 N 
ATOM      5  C   UNL     1       1.658   9.330  18.295  0.00  0.00    +0.000 C 
ATOM      6  O   UNL     1       2.024  10.018  17.338  0.00  0.00    +0.000 OA
ATOM      7  C   UNL     1       0.409   9.284  20.525  0.00  0.00    +0.000 C 
ATOM      8  C   UNL     1       0.849  10.256  21.625  0.00  0.00    +0.000 C 
ATOM      9  N   UNL     1       0.300  11.605  21.399  0.00  0.00    +0.000 N 
ATOM     10  C   UNL     1      -0.627  12.052  22.324  0.00  0.00    +0.000 C 
ATOM     11  O   UNL     1      -0.925  11.323  23.276  0.00  0.00    +0.000 OA
ATOM     12  N   UNL     1      -1.169  13.305  22.143  0.00  0.00    +0.000 N 
ATOM     13  H   UNL     1      -1.195  13.678  21.202  0.00  0.00    +0.000 HD
ENDROOT
BRANCH   5  14
ATOM     14  C   UNL     1       2.260   8.030  18.530  0.00  0.00    +0.000 A 
ATOM     15  C   UNL     1       2.241   7.249  19.673  0.00  0.00    +0.000 A 
ATOM     16  C   UNL     1       2.924   6.045  19.370  0.00  0.00    +0.000 A 
ATOM     17  C   UNL     1       3.194   4.845  20.047  0.00  0.00    +0.000 A 
ATOM     18  C   UNL     1       3.913   3.843  19.378  0.00  0.00    +0.000 A 
ATOM     19  C   UNL     1       4.363   4.031  18.067  0.00  0.00    +0.000 A 
ATOM     20  C   UNL     1       4.111   5.224  17.380  0.00  0.00    +0.000 A 
ATOM     21  C   UNL     1       3.386   6.194  18.070  0.00  0.00    +0.000 A 
ATOM     22  O   UNL     1       3.019   7.408  17.574  0.00  0.00    +0.000 OA
ENDBRANCH   5  14
BRANCH  12  23
ATOM     23  C   UNL     1      -2.022  13.962  23.093  0.00  0.00    +0.000 A 
ATOM     24  C   UNL     1      -1.459  14.756  24.108  0.00  0.00    +0.000 A 
ATOM     25  C   UNL     1      -2.232  15.370  25.095  0.00  0.00    +0.000 A 
ATOM     26  C   UNL     1      -3.612  15.259  25.064  0.00  0.00    +0.000 A 
ATOM     27  C   UNL     1      -4.217  14.527  24.044  0.00  0.00    +0.000 A 
ATOM     28  C   UNL     1      -3.432  13.875  23.066  0.00  0.00    +0.000 A 
BRANCH  28  29
ATOM     29  N   UNL     1      -4.148  13.077  22.058  0.00  0.00    +0.000 N 
ATOM     30  O   UNL     1      -5.026  12.290  22.453  0.00  0.00    +0.000 OA
ATOM     31  O   UNL     1      -3.837  13.226  20.867  0.00  0.00    +0.000 OA
ENDBRANCH  28  29
ENDBRANCH  12  23
TORSDOF 3
ENDMDL
MODEL 5
REMARK VINA RESULT:      -7.9      3.450      6.148
REMARK  Name = 
REMARK  4 active torsions:
REMARK  status: ('A' for Active; 'I' for Inactive)
REMARK    1  A    between atoms: C_1  and  C_2
REMARK    2  A    between atoms: C_5  and  C_7
REMARK    3  A    between atoms: N_21  and  C_22
REMARK    4  A    between atoms: C_27  and  N_28
REMARK                            x       y       z     vdW  Elec       q    Type
REMARK                         _______ _______ _______ _____ _____    ______ ____
ROOT
ATOM      1  C   UNL     1       2.224  12.511  20.075  0.00  0.00    +0.000 C 
ATOM      2  C   UNL     1       0.714  12.245  20.137  0.00  0.00    +0.000 C 
ATOM      3  C   UNL     1       0.256  11.313  18.982  0.00  0.00    +0.000 C 
ATOM      4  N   UNL     1       0.749   9.937  19.161  0.00  0.00    +0.000 N 
ATOM      5  C   UNL     1       1.714   9.445  18.274  0.00  0.00    +0.000 C 
ATOM      6  O   UNL     1       2.130  10.161  17.358  0.00  0.00    +0.000 OA
ATOM      7  C   UNL     1       0.398   9.345  20.463  0.00  0.00    +0.000 C 
ATOM      8  C   UNL     1       0.834  10.256  21.616  0.00  0.00    +0.000 C 
ATOM      9  N   UNL     1       0.334  11.630  21.433  0.00  0.00    +0.000 N 
ATOM     10  C   UNL     1      -0.606  12.067  22.348  0.00  0.00    +0.000 C 
ATOM     11  O   UNL     1      -0.955  11.309  23.259  0.00  0.00    +0.000 OA
ATOM     12  N   UNL     1      -1.104  13.343  22.206  0.00  0.00    +0.000 N 
ATOM     13  H   UNL     1      -1.091  13.756  21.281  0.00  0.00    +0.000 HD
ENDROOT
BRANCH   5  14
ATOM     14  C   UNL     1       2.269   8.117  18.470  0.00  0.00    +0.000 A 
ATOM     15  C   UNL     1       3.232   7.452  17.732  0.00  0.00    +0.000 A 
ATOM     16  C   UNL     1       3.465   6.209  18.370  0.00  0.00    +0.000 A 
ATOM     17  C   UNL     1       4.338   5.126  18.175  0.00  0.00    +0.000 A 
ATOM     18  C   UNL     1       4.274   4.042  19.064  0.00  0.00    +0.000 A 
ATOM     19  C   UNL     1       3.356   4.028  20.118  0.00  0.00    +0.000 A 
ATOM     20  C   UNL     1       2.472   5.093  20.322  0.00  0.00    +0.000 A 
ATOM     21  C   UNL     1       2.568   6.158  19.429  0.00  0.00    +0.000 A 
ATOM     22  O   UNL     1       1.819   7.293  19.468  0.00  0.00    +0.000 OA
ENDBRANCH   5  14
BRANCH  12  23
ATOM     23  C   UNL     1      -1.965  13.986  23.158  0.00  0.00    +0.000 A 
ATOM     24  C   UNL     1      -1.410  14.749  24.201  0.00  0.00    +0.000 A 
ATOM     25  C   UNL     1      -2.191  15.347  25.190  0.00  0.00    +0.000 A 
ATOM     26  C   UNL     1      -3.572  15.254  25.135  0.00  0.00    +0.000 A 
ATOM     27  C   UNL     1      -4.168  14.553  24.088  0.00  0.00    +0.000 A 
ATOM     28  C   UNL     1      -3.375  13.916  23.107  0.00  0.00    +0.000 A 
BRANCH  28  29
ATOM     29  N   UNL     1      -4.084  13.152  22.069  0.00  0.00    +0.000 N 
ATOM     30  O   UNL     1      -4.970  12.358  22.430  0.00  0.00    +0.000 OA
ATOM     31  O   UNL     1      -3.760  13.335  20.885  0.00  0.00    +0.000 OA
ENDBRANCH  28  29
ENDBRANCH  12  23
TORSDOF 3
ENDMDL
MODEL 6
REMARK VINA RESULT:      -7.7      2.908      5.548
REMARK  Name = 
REMARK  4 active torsions:
REMARK  status: ('A' for Active; 'I' for Inactive)
REMARK    1  A    between atoms: C_1  and  C_2
REMARK    2  A    between atoms: C_5  and  C_7
REMARK    3  A    between atoms: N_21  and  C_22
REMARK    4  A    between atoms: C_27  and  N_28
REMARK                            x       y       z     vdW  Elec       q    Type
REMARK                         _______ _______ _______ _____ _____    ______ ____
ROOT
ATOM      1  C   UNL     1       1.846  12.147  19.589  0.00  0.00    +0.000 C 
ATOM      2  C   UNL     1       0.457  11.587  19.924  0.00  0.00    +0.000 C 
ATOM      3  C   UNL     1       0.054  10.450  18.945  0.00  0.00    +0.000 C 
ATOM      4  N   UNL     1       0.860   9.236  19.157  0.00  0.00    +0.000 N 
ATOM      5  C   UNL     1       1.772   8.849  18.167  0.00  0.00    +0.000 C 
ATOM      6  O   UNL     1       1.883   9.520  17.137  0.00  0.00    +0.000 OA
ATOM      7  C   UNL     1       0.839   8.744  20.544  0.00  0.00    +0.000 C 
ATOM      8  C   UNL     1       1.225   9.855  21.527  0.00  0.00    +0.000 C 
ATOM      9  N   UNL     1       0.413  11.066  21.312  0.00  0.00    +0.000 N 
ATOM     10  C   UNL     1      -0.459  11.408  22.331  0.00  0.00    +0.000 C 
ATOM     11  O   UNL     1      -0.497  10.708  23.349  0.00  0.00    +0.000 OA
ATOM     12  N   UNL     1      -1.242  12.529  22.165  0.00  0.00    +0.000 N 
ATOM     13  H   UNL     1      -1.453  12.822  21.219  0.00  0.00    +0.000 HD
ENDROOT
BRANCH   5  14
ATOM     14  C   UNL     1       2.628   7.696  18.381  0.00  0.00    +0.000 A 
ATOM     15  C   UNL     1       2.514   6.681  19.315  0.00  0.00    +0.000 A 
ATOM     16  C   UNL     1       3.567   5.766  19.071  0.00  0.00    +0.000 A 
ATOM     17  C   UNL     1       3.968   4.529  19.602  0.00  0.00    +0.000 A 
ATOM     18  C   UNL     1       5.099   3.900  19.061  0.00  0.00    +0.000 A 
ATOM     19  C   UNL     1       5.825   4.491  18.022  0.00  0.00    +0.000 A 
ATOM     20  C   UNL     1       5.446   5.727  17.486  0.00  0.00    +0.000 A 
ATOM     21  C   UNL     1       4.312   6.320  18.039  0.00  0.00    +0.000 A 
ATOM     22  O   UNL     1       3.769   7.504  17.646  0.00  0.00    +0.000 OA
ENDBRANCH   5  14
BRANCH  12  23
ATOM     23  C   UNL     1      -2.077  13.091  23.188  0.00  0.00    +0.000 A 
ATOM     24  C   UNL     1      -3.241  12.414  23.592  0.00  0.00    +0.000 A 
ATOM     25  C   UNL     1      -4.123  12.939  24.538  0.00  0.00    +0.000 A 
ATOM     26  C   UNL     1      -3.836  14.142  25.162  0.00  0.00    +0.000 A 
ATOM     27  C   UNL     1      -2.666  14.822  24.831  0.00  0.00    +0.000 A 
ATOM     28  C   UNL     1      -1.791  14.308  23.847  0.00  0.00    +0.000 A 
BRANCH  28  29
ATOM     29  N   UNL     1      -0.606  15.116  23.519  0.00  0.00    +0.000 N 
ATOM     30  O   UNL     1      -0.268  15.201  22.326  0.00  0.00    +0.000 OA
ATOM     31  O   UNL     1      -0.001  15.670  24.451  0.00  0.00    +0.000 OA
ENDBRANCH  28  29
ENDBRANCH  12  23
TORSDOF 3
ENDMDL
MODEL 7
REMARK VINA RESULT:      -7.7      3.569      6.373
REMARK  Name = 
REMARK  4 active torsions:
REMARK  status: ('A' for Active; 'I' for Inactive)
REMARK    1  A    between atoms: C_1  and  C_2
REMARK    2  A    between atoms: C_5  and  C_7
REMARK    3  A    between atoms: N_21  and  C_22
REMARK    4  A    between atoms: C_27  and  N_28
REMARK                            x       y       z     vdW  Elec       q    Type
REMARK                         _______ _______ _______ _____ _____    ______ ____
ROOT
ATOM      1  C   UNL     1       1.847  12.658  20.427  0.00  0.00    +0.000 C 
ATOM      2  C   UNL     1       0.334  12.457  20.269  0.00  0.00    +0.000 C 
ATOM      3  C   UNL     1       0.008  11.547  19.053  0.00  0.00    +0.000 C 
ATOM      4  N   UNL     1       0.412  10.151  19.291  0.00  0.00    +0.000 N 
ATOM      5  C   UNL     1       1.473   9.619  18.549  0.00  0.00    +0.000 C 
ATOM      6  O   UNL     1       2.047  10.317  17.708  0.00  0.00    +0.000 OA
ATOM      7  C   UNL     1      -0.148   9.574  20.524  0.00  0.00    +0.000 C 
ATOM      8  C   UNL     1       0.155  10.463  21.735  0.00  0.00    +0.000 C 
ATOM      9  N   UNL     1      -0.255  11.858  21.491  0.00  0.00    +0.000 N 
ATOM     10  C   UNL     1      -1.298  12.334  22.265  0.00  0.00    +0.000 C 
ATOM     11  O   UNL     1      -1.807  11.590  23.110  0.00  0.00    +0.000 OA
ATOM     12  N   UNL     1      -1.716  13.630  22.062  0.00  0.00    +0.000 N 
ATOM     13  H   UNL     1      -1.552  14.043  21.151  0.00  0.00    +0.000 HD
ENDROOT
BRANCH   5  14
ATOM     14  C   UNL     1       1.937   8.269  18.814  0.00  0.00    +0.000 A 
ATOM     15  C   UNL     1       1.939   7.560  20.003  0.00  0.00    +0.000 A 
ATOM     16  C   UNL     1       2.440   6.266  19.719  0.00  0.00    +0.000 A 
ATOM     17  C   UNL     1       2.632   5.079  20.446  0.00  0.00    +0.000 A 
ATOM     18  C   UNL     1       3.157   3.961  19.782  0.00  0.00    +0.000 A 
ATOM     19  C   UNL     1       3.495   4.021  18.427  0.00  0.00    +0.000 A 
ATOM     20  C   UNL     1       3.319   5.196  17.688  0.00  0.00    +0.000 A 
ATOM     21  C   UNL     1       2.786   6.285  18.375  0.00  0.00    +0.000 A 
ATOM     22  O   UNL     1       2.519   7.506  17.835  0.00  0.00    +0.000 OA
ENDBRANCH   5  14
BRANCH  12  23
ATOM     23  C   UNL     1      -2.677  14.309  22.884  0.00  0.00    +0.000 A 
ATOM     24  C   UNL     1      -4.049  14.197  22.596  0.00  0.00    +0.000 A 
ATOM     25  C   UNL     1      -5.025  14.880  23.322  0.00  0.00    +0.000 A 
ATOM     26  C   UNL     1      -4.664  15.659  24.409  0.00  0.00    +0.000 A 
ATOM     27  C   UNL     1      -3.320  15.756  24.764  0.00  0.00    +0.000 A 
ATOM     28  C   UNL     1      -2.328  15.093  24.006  0.00  0.00    +0.000 A 
BRANCH  28  29
ATOM     29  N   UNL     1      -0.929  15.294  24.417  0.00  0.00    +0.000 N 
ATOM     30  O   UNL     1      -0.065  15.374  23.527  0.00  0.00    +0.000 OA
ATOM     31  O   UNL     1      -0.682  15.370  25.631  0.00  0.00    +0.000 OA
ENDBRANCH  28  29
ENDBRANCH  12  23
TORSDOF 3
ENDMDL
MODEL 8
REMARK VINA RESULT:      -7.7      3.122     10.436
REMARK  Name = 
REMARK  4 active torsions:
REMARK  status: ('A' for Active; 'I' for Inactive)
REMARK    1  A    between atoms: C_1  and  C_2
REMARK    2  A    between atoms: C_5  and  C_7
REMARK    3  A    between atoms: N_21  and  C_22
REMARK    4  A    between atoms: C_27  and  N_28
REMARK                            x       y       z     vdW  Elec       q    Type
REMARK                         _______ _______ _______ _____ _____    ______ ____
ROOT
ATOM      1  C   UNL     1      -0.628   9.631  17.761  0.00  0.00    +0.000 C 
ATOM      2  C   UNL     1       0.843   9.685  18.194  0.00  0.00    +0.000 C 
ATOM      3  C   UNL     1       1.268  11.130  18.575  0.00  0.00    +0.000 C 
ATOM      4  N   UNL     1       0.633  11.575  19.826  0.00  0.00    +0.000 N 
ATOM      5  C   UNL     1      -0.327  12.593  19.771  0.00  0.00    +0.000 C 
ATOM      6  O   UNL     1      -0.621  13.104  18.687  0.00  0.00    +0.000 OA
ATOM      7  C   UNL     1       0.854  10.664  20.961  0.00  0.00    +0.000 C 
ATOM      8  C   UNL     1       0.449   9.230  20.602  0.00  0.00    +0.000 C 
ATOM      9  N   UNL     1       1.091   8.789  19.350  0.00  0.00    +0.000 N 
ATOM     10  C   UNL     1       2.020   7.770  19.464  0.00  0.00    +0.000 C 
ATOM     11  O   UNL     1       2.243   7.283  20.577  0.00  0.00    +0.000 OA
ATOM     12  N   UNL     1       2.648   7.336  18.318  0.00  0.00    +0.000 N 
ATOM     13  H   UNL     1       2.724   7.986  17.545  0.00  0.00    +0.000 HD
ENDROOT
BRANCH   5  14
ATOM     14  C   UNL     1      -1.020  13.002  20.980  0.00  0.00    +0.000 A 
ATOM     15  C   UNL     1      -2.234  12.568  21.484  0.00  0.00    +0.000 A 
ATOM     16  C   UNL     1      -2.436  13.230  22.720  0.00  0.00    +0.000 A 
ATOM     17  C   UNL     1      -3.406  13.192  23.735  0.00  0.00    +0.000 A 
ATOM     18  C   UNL     1      -3.239  14.019  24.856  0.00  0.00    +0.000 A 
ATOM     19  C   UNL     1      -2.139  14.875  24.963  0.00  0.00    +0.000 A 
ATOM     20  C   UNL     1      -1.168  14.934  23.957  0.00  0.00    +0.000 A 
ATOM     21  C   UNL     1      -1.358  14.093  22.863  0.00  0.00    +0.000 A 
ATOM     22  O   UNL     1      -0.521  13.984  21.795  0.00  0.00    +0.000 OA
ENDBRANCH   5  14
BRANCH  12  23
ATOM     23  C   UNL     1       3.515   6.194  18.255  0.00  0.00    +0.000 A 
ATOM     24  C   UNL     1       4.909   6.375  18.201  0.00  0.00    +0.000 A 
ATOM     25  C   UNL     1       5.799   5.307  18.079  0.00  0.00    +0.000 A 
ATOM     26  C   UNL     1       5.325   4.006  18.065  0.00  0.00    +0.000 A 
ATOM     27  C   UNL     1       3.955   3.777  18.170  0.00  0.00    +0.000 A 
ATOM     28  C   UNL     1       3.050   4.860  18.258  0.00  0.00    +0.000 A 
BRANCH  28  29
ATOM     29  N   UNL     1       1.617   4.530  18.309  0.00  0.00    +0.000 N 
ATOM     30  O   UNL     1       1.084   4.413  19.425  0.00  0.00    +0.000 OA
ATOM     31  O   UNL     1       1.014   4.381  17.235  0.00  0.00    +0.000 OA
ENDBRANCH  28  29
ENDBRANCH  12  23
TORSDOF 3
ENDMDL
MODEL 9
REMARK VINA RESULT:      -7.6      2.632     10.105
REMARK  Name = 
REMARK  4 active torsions:
REMARK  status: ('A' for Active; 'I' for Inactive)
REMARK    1  A    between atoms: C_1  and  C_2
REMARK    2  A    between atoms: C_5  and  C_7
REMARK    3  A    between atoms: N_21  and  C_22
REMARK    4  A    between atoms: C_27  and  N_28
REMARK                            x       y       z     vdW  Elec       q    Type
REMARK                         _______ _______ _______ _____ _____    ______ ____
ROOT
ATOM      1  C   UNL     1       2.016   9.370  22.305  0.00  0.00    +0.000 C 
ATOM      2  C   UNL     1       1.236   8.490  21.320  0.00  0.00    +0.000 C 
ATOM      3  C   UNL     1      -0.297   8.642  21.518  0.00  0.00    +0.000 C 
ATOM      4  N   UNL     1      -0.776   9.966  21.087  0.00  0.00    +0.000 N 
ATOM      5  C   UNL     1      -1.241  10.864  22.056  0.00  0.00    +0.000 C 
ATOM      6  O   UNL     1      -1.251  10.534  23.246  0.00  0.00    +0.000 OA
ATOM      7  C   UNL     1      -0.404  10.311  19.705  0.00  0.00    +0.000 C 
ATOM      8  C   UNL     1       1.106  10.159  19.487  0.00  0.00    +0.000 C 
ATOM      9  N   UNL     1       1.577   8.830  19.916  0.00  0.00    +0.000 N 
ATOM     10  C   UNL     1       2.040   7.992  18.917  0.00  0.00    +0.000 C 
ATOM     11  O   UNL     1       2.050   8.398  17.750  0.00  0.00    +0.000 OA
ATOM     12  N   UNL     1       2.482   6.738  19.277  0.00  0.00    +0.000 N 
ATOM     13  H   UNL     1       2.109   6.331  20.126  0.00  0.00    +0.000 HD
ENDROOT
BRANCH   5  14
ATOM     14  C   UNL     1      -1.652  12.201  21.667  0.00  0.00    +0.000 A 
ATOM     15  C   UNL     1      -2.927  12.734  21.574  0.00  0.00    +0.000 A 
ATOM     16  C   UNL     1      -2.786  14.096  21.210  0.00  0.00    +0.000 A 
ATOM     17  C   UNL     1      -3.657  15.181  21.021  0.00  0.00    +0.000 A 
ATOM     18  C   UNL     1      -3.113  16.425  20.667  0.00  0.00    +0.000 A 
ATOM     19  C   UNL     1      -1.736  16.587  20.494  0.00  0.00    +0.000 A 
ATOM     20  C   UNL     1      -0.854  15.515  20.669  0.00  0.00    +0.000 A 
ATOM     21  C   UNL     1      -1.424  14.296  21.030  0.00  0.00    +0.000 A 
ATOM     22  O   UNL     1      -0.741  13.143  21.269  0.00  0.00    +0.000 OA
ENDBRANCH   5  14
BRANCH  12  23
ATOM     23  C   UNL     1       3.126   5.821  18.381  0.00  0.00    +0.000 A 
ATOM     24  C   UNL     1       4.287   6.213  17.691  0.00  0.00    +0.000 A 
ATOM     25  C   UNL     1       4.924   5.387  16.764  0.00  0.00    +0.000 A 
ATOM     26  C   UNL     1       4.450   4.105  16.537  0.00  0.00    +0.000 A 
ATOM     27  C   UNL     1       3.334   3.654  17.238  0.00  0.00    +0.000 A 
ATOM     28  C   UNL     1       2.668   4.504  18.151  0.00  0.00    +0.000 A 
BRANCH  28  29
ATOM     29  N   UNL     1       1.465   3.967  18.807  0.00  0.00    +0.000 N 
ATOM     30  O   UNL     1       0.754   3.176  18.165  0.00  0.00    +0.000 OA
ATOM     31  O   UNL     1       1.220   4.334  19.966  0.00  0.00    +0.000 OA
ENDBRANCH  28  29
ENDBRANCH  12  23
TORSDOF 3
ENDMDL
