MODEL 1
REMARK VINA RESULT:      -7.9      0.000      0.000
REMARK  Name = 
REMARK  2 active torsions:
REMARK  status: ('A' for Active; 'I' for Inactive)
REMARK    1  A    between atoms: C_2  and  O_3
REMARK    2  A    between atoms: C_2  and  C_4
REMARK                            x       y       z     vdW  Elec       q    Type
REMARK                         _______ _______ _______ _____ _____    ______ ____
ROOT
ATOM      1  C   UNL     1       3.399   2.935  19.674  0.00  0.00    +0.000 A 
ATOM      2  C   UNL     1       2.128   2.531  19.230  0.00  0.00    +0.000 A 
ATOM      3  C   UNL     1       1.538   3.163  18.144  0.00  0.00    +0.000 A 
ATOM      4  C   UNL     1       2.220   4.196  17.506  0.00  0.00    +0.000 A 
ATOM      5  C   UNL     1       3.482   4.601  17.923  0.00  0.00    +0.000 A 
ATOM      6  N   UNL     1       4.105   5.597  17.264  0.00  0.00    +0.000 NA
ATOM      7  C   UNL     1       5.336   5.960  17.669  0.00  0.00    +0.000 A 
ATOM      8  C   UNL     1       6.016   6.977  17.003  0.00  0.00    +0.000 A 
ATOM      9  C   UNL     1       7.301   7.372  17.384  0.00  0.00    +0.000 A 
ATOM     10  C   UNL     1       7.919   6.740  18.453  0.00  0.00    +0.000 A 
ATOM     11  C   UNL     1       7.239   5.729  19.123  0.00  0.00    +0.000 A 
ATOM     12  F   UNL     1       7.854   5.127  20.155  0.00  0.00    +0.000 F 
ATOM     13  C   UNL     1       5.958   5.323  18.758  0.00  0.00    +0.000 A 
ATOM     14  N   UNL     1       5.326   4.336  19.430  0.00  0.00    +0.000 NA
ATOM     15  C   UNL     1       4.090   3.960  19.023  0.00  0.00    +0.000 A 
ENDROOT
BRANCH   1  17
ATOM     16  O   UNL     1       3.346   2.153  21.911  0.00  0.00    +0.000 OA
ATOM     17  C   UNL     1       3.963   2.229  20.859  0.00  0.00    +0.000 C 
BRANCH  17  18
ATOM     18  O   UNL     1       5.191   1.689  20.716  0.00  0.00    +0.000 OA
ATOM     19  H   UNL     1       5.576   1.816  19.815  0.00  0.00    +0.000 HD
ENDBRANCH  17  18
ENDBRANCH   1  17
TORSDOF 2
ENDMDL
MODEL 2
REMARK VINA RESULT:      -7.5      2.641      4.966
REMARK  Name = 
REMARK  2 active torsions:
REMARK  status: ('A' for Active; 'I' for Inactive)
REMARK    1  A    between atoms: C_2  and  O_3
REMARK    2  A    between atoms: C_2  and  C_4
REMARK                            x       y       z     vdW  Elec       q    Type
REMARK                         _______ _______ _______ _____ _____    ______ ____
ROOT
ATOM      1  C   UNL     1       6.507   5.082  17.773  0.00  0.00    +0.000 A 
ATOM      2  C   UNL     1       7.195   4.961  16.554  0.00  0.00    +0.000 A 
ATOM      3  C   UNL     1       6.601   4.310  15.482  0.00  0.00    +0.000 A 
ATOM      4  C   UNL     1       5.320   3.783  15.632  0.00  0.00    +0.000 A 
ATOM      5  C   UNL     1       4.620   3.904  16.826  0.00  0.00    +0.000 A 
ATOM      6  N   UNL     1       3.379   3.388  16.916  0.00  0.00    +0.000 NA
ATOM      7  C   UNL     1       2.708   3.535  18.074  0.00  0.00    +0.000 A 
ATOM      8  C   UNL     1       1.418   3.026  18.199  0.00  0.00    +0.000 A 
ATOM      9  C   UNL     1       0.684   3.170  19.379  0.00  0.00    +0.000 A 
ATOM     10  C   UNL     1       1.250   3.836  20.456  0.00  0.00    +0.000 A 
ATOM     11  C   UNL     1       2.540   4.339  20.335  0.00  0.00    +0.000 A 
ATOM     12  F   UNL     1       3.072   4.982  21.388  0.00  0.00    +0.000 F 
ATOM     13  C   UNL     1       3.287   4.203  19.167  0.00  0.00    +0.000 A 
ATOM     14  N   UNL     1       4.538   4.705  19.082  0.00  0.00    +0.000 NA
ATOM     15  C   UNL     1       5.217   4.569  17.918  0.00  0.00    +0.000 A 
ENDROOT
BRANCH   1  17
ATOM     16  O   UNL     1       7.880   6.780  18.697  0.00  0.00    +0.000 OA
ATOM     17  C   UNL     1       7.214   5.773  18.889  0.00  0.00    +0.000 C 
BRANCH  17  18
ATOM     18  O   UNL     1       7.092   5.226  20.115  0.00  0.00    +0.000 OA
ATOM     19  H   UNL     1       6.318   4.617  20.201  0.00  0.00    +0.000 HD
ENDBRANCH  17  18
ENDBRANCH   1  17
TORSDOF 2
ENDMDL
MODEL 3
REMARK VINA RESULT:      -7.5      2.378      4.910
REMARK  Name = 
REMARK  2 active torsions:
REMARK  status: ('A' for Active; 'I' for Inactive)
REMARK    1  A    between atoms: C_2  and  O_3
REMARK    2  A    between atoms: C_2  and  C_4
REMARK                            x       y       z     vdW  Elec       q    Type
REMARK                         _______ _______ _______ _____ _____    ______ ____
ROOT
ATOM      1  C   UNL     1       6.360   5.563  17.979  0.00  0.00    +0.000 A 
ATOM      2  C   UNL     1       6.507   6.664  17.119  0.00  0.00    +0.000 A 
ATOM      3  C   UNL     1       5.387   7.354  16.676  0.00  0.00    +0.000 A 
ATOM      4  C   UNL     1       4.124   6.941  17.096  0.00  0.00    +0.000 A 
ATOM      5  C   UNL     1       3.961   5.862  17.955  0.00  0.00    +0.000 A 
ATOM      6  N   UNL     1       2.720   5.510  18.342  0.00  0.00    +0.000 NA
ATOM      7  C   UNL     1       2.583   4.476  19.192  0.00  0.00    +0.000 A 
ATOM      8  C   UNL     1       1.316   4.092  19.624  0.00  0.00    +0.000 A 
ATOM      9  C   UNL     1       1.135   3.034  20.517  0.00  0.00    +0.000 A 
ATOM     10  C   UNL     1       2.241   2.343  20.989  0.00  0.00    +0.000 A 
ATOM     11  C   UNL     1       3.507   2.721  20.554  0.00  0.00    +0.000 A 
ATOM     12  F   UNL     1       4.567   2.041  21.023  0.00  0.00    +0.000 F 
ATOM     13  C   UNL     1       3.706   3.772  19.663  0.00  0.00    +0.000 A 
ATOM     14  N   UNL     1       4.950   4.114  19.262  0.00  0.00    +0.000 NA
ATOM     15  C   UNL     1       5.096   5.159  18.413  0.00  0.00    +0.000 A 
ENDROOT
BRANCH   1  17
ATOM     16  O   UNL     1       8.205   4.115  17.631  0.00  0.00    +0.000 OA
ATOM     17  C   UNL     1       7.603   4.854  18.396  0.00  0.00    +0.000 C 
BRANCH  17  18
ATOM     18  O   UNL     1       8.024   5.059  19.661  0.00  0.00    +0.000 OA
ATOM     19  H   UNL     1       7.399   5.601  20.202  0.00  0.00    +0.000 HD
ENDBRANCH  17  18
ENDBRANCH   1  17
TORSDOF 2
ENDMDL
MODEL 4
REMARK VINA RESULT:      -7.4      1.767      2.061
REMARK  Name = 
REMARK  2 active torsions:
REMARK  status: ('A' for Active; 'I' for Inactive)
REMARK    1  A    between atoms: C_2  and  O_3
REMARK    2  A    between atoms: C_2  and  C_4
REMARK                            x       y       z     vdW  Elec       q    Type
REMARK                         _______ _______ _______ _____ _____    ______ ____
ROOT
ATOM      1  C   UNL     1       2.215   3.489  20.063  0.00  0.00    +0.000 A 
ATOM      2  C   UNL     1       1.054   2.756  19.763  0.00  0.00    +0.000 A 
ATOM      3  C   UNL     1       0.879   2.219  18.495  0.00  0.00    +0.000 A 
ATOM      4  C   UNL     1       1.864   2.417  17.531  0.00  0.00    +0.000 A 
ATOM      5  C   UNL     1       3.024   3.130  17.812  0.00  0.00    +0.000 A 
ATOM      6  N   UNL     1       3.952   3.284  16.849  0.00  0.00    +0.000 NA
ATOM      7  C   UNL     1       5.078   3.958  17.147  0.00  0.00    +0.000 A 
ATOM      8  C   UNL     1       6.067   4.125  16.180  0.00  0.00    +0.000 A 
ATOM      9  C   UNL     1       7.255   4.805  16.455  0.00  0.00    +0.000 A 
ATOM     10  C   UNL     1       7.461   5.332  17.721  0.00  0.00    +0.000 A 
ATOM     11  C   UNL     1       6.473   5.172  18.687  0.00  0.00    +0.000 A 
ATOM     12  F   UNL     1       6.690   5.687  19.909  0.00  0.00    +0.000 F 
ATOM     13  C   UNL     1       5.281   4.498  18.430  0.00  0.00    +0.000 A 
ATOM     14  N   UNL     1       4.342   4.358  19.391  0.00  0.00    +0.000 NA
ATOM     15  C   UNL     1       3.210   3.674  19.101  0.00  0.00    +0.000 A 
ENDROOT
BRANCH   1  17
ATOM     16  O   UNL     1       2.336   3.338  22.425  0.00  0.00    +0.000 OA
ATOM     17  C   UNL     1       2.327   4.056  21.436  0.00  0.00    +0.000 C 
BRANCH  17  18
ATOM     18  O   UNL     1       2.406   5.399  21.534  0.00  0.00    +0.000 OA
ATOM     19  H   UNL     1       2.215   5.740  22.442  0.00  0.00    +0.000 HD
ENDBRANCH  17  18
ENDBRANCH   1  17
TORSDOF 2
ENDMDL
MODEL 5
REMARK VINA RESULT:      -7.4      2.872      4.950
REMARK  Name = 
REMARK  2 active torsions:
REMARK  status: ('A' for Active; 'I' for Inactive)
REMARK    1  A    between atoms: C_2  and  O_3
REMARK    2  A    between atoms: C_2  and  C_4
REMARK                            x       y       z     vdW  Elec       q    Type
REMARK                         _______ _______ _______ _____ _____    ______ ____
ROOT
ATOM      1  C   UNL     1       5.535   5.283  16.885  0.00  0.00    +0.000 A 
ATOM      2  C   UNL     1       5.513   6.500  16.183  0.00  0.00    +0.000 A 
ATOM      3  C   UNL     1       4.572   7.469  16.501  0.00  0.00    +0.000 A 
ATOM      4  C   UNL     1       3.656   7.219  17.521  0.00  0.00    +0.000 A 
ATOM      5  C   UNL     1       3.670   6.025  18.233  0.00  0.00    +0.000 A 
ATOM      6  N   UNL     1       2.771   5.837  19.218  0.00  0.00    +0.000 NA
ATOM      7  C   UNL     1       2.815   4.684  19.911  0.00  0.00    +0.000 A 
ATOM      8  C   UNL     1       1.909   4.459  20.945  0.00  0.00    +0.000 A 
ATOM      9  C   UNL     1       1.932   3.282  21.697  0.00  0.00    +0.000 A 
ATOM     10  C   UNL     1       2.877   2.309  21.410  0.00  0.00    +0.000 A 
ATOM     11  C   UNL     1       3.778   2.528  20.374  0.00  0.00    +0.000 A 
ATOM     12  F   UNL     1       4.688   1.575  20.112  0.00  0.00    +0.000 F 
ATOM     13  C   UNL     1       3.769   3.695  19.613  0.00  0.00    +0.000 A 
ATOM     14  N   UNL     1       4.660   3.877  18.614  0.00  0.00    +0.000 NA
ATOM     15  C   UNL     1       4.627   5.038  17.917  0.00  0.00    +0.000 A 
ENDROOT
BRANCH   1  17
ATOM     16  O   UNL     1       7.752   4.480  16.634  0.00  0.00    +0.000 OA
ATOM     17  C   UNL     1       6.557   4.278  16.475  0.00  0.00    +0.000 C 
BRANCH  17  18
ATOM     18  O   UNL     1       6.099   3.142  15.910  0.00  0.00    +0.000 OA
ATOM     19  H   UNL     1       5.121   3.029  15.989  0.00  0.00    +0.000 HD
ENDBRANCH  17  18
ENDBRANCH   1  17
TORSDOF 2
ENDMDL
MODEL 6
REMARK VINA RESULT:      -7.4      4.320      5.396
REMARK  Name = 
REMARK  2 active torsions:
REMARK  status: ('A' for Active; 'I' for Inactive)
REMARK    1  A    between atoms: C_2  and  O_3
REMARK    2  A    between atoms: C_2  and  C_4
REMARK                            x       y       z     vdW  Elec       q    Type
REMARK                         _______ _______ _______ _____ _____    ______ ____
ROOT
ATOM      1  C   UNL     1       6.671   5.920  17.765  0.00  0.00    +0.000 A 
ATOM      2  C   UNL     1       5.896   5.583  18.888  0.00  0.00    +0.000 A 
ATOM      3  C   UNL     1       4.900   4.621  18.783  0.00  0.00    +0.000 A 
ATOM      4  C   UNL     1       4.683   3.999  17.555  0.00  0.00    +0.000 A 
ATOM      5  C   UNL     1       5.447   4.312  16.437  0.00  0.00    +0.000 A 
ATOM      6  N   UNL     1       5.206   3.673  15.276  0.00  0.00    +0.000 NA
ATOM      7  C   UNL     1       5.971   3.973  14.210  0.00  0.00    +0.000 A 
ATOM      8  C   UNL     1       5.759   3.324  12.996  0.00  0.00    +0.000 A 
ATOM      9  C   UNL     1       6.541   3.597  11.872  0.00  0.00    +0.000 A 
ATOM     10  C   UNL     1       7.555   4.539  11.960  0.00  0.00    +0.000 A 
ATOM     11  C   UNL     1       7.764   5.193  13.169  0.00  0.00    +0.000 A 
ATOM     12  F   UNL     1       8.752   6.101  13.236  0.00  0.00    +0.000 F 
ATOM     13  C   UNL     1       6.993   4.935  14.300  0.00  0.00    +0.000 A 
ATOM     14  N   UNL     1       7.224   5.587  15.460  0.00  0.00    +0.000 NA
ATOM     15  C   UNL     1       6.464   5.285  16.539  0.00  0.00    +0.000 A 
ENDROOT
BRANCH   1  17
ATOM     16  O   UNL     1       8.451   6.985  18.914  0.00  0.00    +0.000 OA
ATOM     17  C   UNL     1       7.706   6.977  17.944  0.00  0.00    +0.000 C 
BRANCH  17  18
ATOM     18  O   UNL     1       7.772   7.929  16.992  0.00  0.00    +0.000 OA
ATOM     19  H   UNL     1       6.900   8.348  16.791  0.00  0.00    +0.000 HD
ENDBRANCH  17  18
ENDBRANCH   1  17
TORSDOF 2
ENDMDL
MODEL 7
REMARK VINA RESULT:      -7.4      2.032      2.286
REMARK  Name = 
REMARK  2 active torsions:
REMARK  status: ('A' for Active; 'I' for Inactive)
REMARK    1  A    between atoms: C_2  and  O_3
REMARK    2  A    between atoms: C_2  and  C_4
REMARK                            x       y       z     vdW  Elec       q    Type
REMARK                         _______ _______ _______ _____ _____    ______ ____
ROOT
ATOM      1  C   UNL     1       3.772   2.597  20.488  0.00  0.00    +0.000 A 
ATOM      2  C   UNL     1       2.724   2.523  21.422  0.00  0.00    +0.000 A 
ATOM      3  C   UNL     1       1.775   3.534  21.483  0.00  0.00    +0.000 A 
ATOM      4  C   UNL     1       1.876   4.615  20.610  0.00  0.00    +0.000 A 
ATOM      5  C   UNL     1       2.898   4.699  19.673  0.00  0.00    +0.000 A 
ATOM      6  N   UNL     1       2.944   5.759  18.843  0.00  0.00    +0.000 NA
ATOM      7  C   UNL     1       3.929   5.811  17.927  0.00  0.00    +0.000 A 
ATOM      8  C   UNL     1       4.001   6.885  17.043  0.00  0.00    +0.000 A 
ATOM      9  C   UNL     1       4.998   6.969  16.069  0.00  0.00    +0.000 A 
ATOM     10  C   UNL     1       5.945   5.960  15.976  0.00  0.00    +0.000 A 
ATOM     11  C   UNL     1       5.879   4.890  16.861  0.00  0.00    +0.000 A 
ATOM     12  F   UNL     1       6.804   3.920  16.755  0.00  0.00    +0.000 F 
ATOM     13  C   UNL     1       4.892   4.791  17.839  0.00  0.00    +0.000 A 
ATOM     14  N   UNL     1       4.856   3.736  18.683  0.00  0.00    +0.000 NA
ATOM     15  C   UNL     1       3.864   3.672  19.602  0.00  0.00    +0.000 A 
ENDROOT
BRANCH   1  17
ATOM     16  O   UNL     1       5.511   1.302  21.446  0.00  0.00    +0.000 OA
ATOM     17  C   UNL     1       4.768   1.489  20.494  0.00  0.00    +0.000 C 
BRANCH  17  18
ATOM     18  O   UNL     1       4.818   0.712  19.393  0.00  0.00    +0.000 OA
ATOM     19  H   UNL     1       5.197   1.169  18.603  0.00  0.00    +0.000 HD
ENDBRANCH  17  18
ENDBRANCH   1  17
TORSDOF 2
ENDMDL
MODEL 8
REMARK VINA RESULT:      -7.3      3.211      5.770
REMARK  Name = 
REMARK  2 active torsions:
REMARK  status: ('A' for Active; 'I' for Inactive)
REMARK    1  A    between atoms: C_2  and  O_3
REMARK    2  A    between atoms: C_2  and  C_4
REMARK                            x       y       z     vdW  Elec       q    Type
REMARK                         _______ _______ _______ _____ _____    ______ ____
ROOT
ATOM      1  C   UNL     1       5.829   5.717  16.833  0.00  0.00    +0.000 A 
ATOM      2  C   UNL     1       7.161   6.055  17.126  0.00  0.00    +0.000 A 
ATOM      3  C   UNL     1       7.639   5.939  18.424  0.00  0.00    +0.000 A 
ATOM      4  C   UNL     1       6.783   5.485  19.425  0.00  0.00    +0.000 A 
ATOM      5  C   UNL     1       5.466   5.135  19.151  0.00  0.00    +0.000 A 
ATOM      6  N   UNL     1       4.682   4.690  20.152  0.00  0.00    +0.000 NA
ATOM      7  C   UNL     1       3.416   4.334  19.863  0.00  0.00    +0.000 A 
ATOM      8  C   UNL     1       2.580   3.857  20.870  0.00  0.00    +0.000 A 
ATOM      9  C   UNL     1       1.266   3.464  20.607  0.00  0.00    +0.000 A 
ATOM     10  C   UNL     1       0.775   3.552  19.313  0.00  0.00    +0.000 A 
ATOM     11  C   UNL     1       1.605   4.034  18.308  0.00  0.00    +0.000 A 
ATOM     12  F   UNL     1       1.112   4.110  17.060  0.00  0.00    +0.000 F 
ATOM     13  C   UNL     1       2.918   4.431  18.552  0.00  0.00    +0.000 A 
ATOM     14  N   UNL     1       3.699   4.894  17.551  0.00  0.00    +0.000 NA
ATOM     15  C   UNL     1       4.976   5.246  17.833  0.00  0.00    +0.000 A 
ENDROOT
BRANCH   1  17
ATOM     16  O   UNL     1       5.107   6.989  14.967  0.00  0.00    +0.000 OA
ATOM     17  C   UNL     1       5.378   5.887  15.423  0.00  0.00    +0.000 C 
BRANCH  17  18
ATOM     18  O   UNL     1       5.271   4.767  14.680  0.00  0.00    +0.000 OA
ATOM     19  H   UNL     1       5.865   4.760  13.890  0.00  0.00    +0.000 HD
ENDBRANCH  17  18
ENDBRANCH   1  17
TORSDOF 2
ENDMDL
MODEL 9
REMARK VINA RESULT:      -7.1      2.577      2.893
REMARK  Name = 
REMARK  2 active torsions:
REMARK  status: ('A' for Active; 'I' for Inactive)
REMARK    1  A    between atoms: C_2  and  O_3
REMARK    2  A    between atoms: C_2  and  C_4
REMARK                            x       y       z     vdW  Elec       q    Type
REMARK                         _______ _______ _______ _____ _____    ______ ____
ROOT
ATOM      1  C   UNL     1       1.890   3.581  19.138  0.00  0.00    +0.000 A 
ATOM      2  C   UNL     1       1.049   4.111  20.132  0.00  0.00    +0.000 A 
ATOM      3  C   UNL     1       1.354   5.329  20.724  0.00  0.00    +0.000 A 
ATOM      4  C   UNL     1       2.498   6.013  20.320  0.00  0.00    +0.000 A 
ATOM      5  C   UNL     1       3.335   5.511  19.330  0.00  0.00    +0.000 A 
ATOM      6  N   UNL     1       4.422   6.218  18.967  0.00  0.00    +0.000 NA
ATOM      7  C   UNL     1       5.208   5.726  17.991  0.00  0.00    +0.000 A 
ATOM      8  C   UNL     1       6.333   6.435  17.579  0.00  0.00    +0.000 A 
ATOM      9  C   UNL     1       7.165   5.965  16.561  0.00  0.00    +0.000 A 
ATOM     10  C   UNL     1       6.868   4.761  15.940  0.00  0.00    +0.000 A 
ATOM     11  C   UNL     1       5.748   4.048  16.354  0.00  0.00    +0.000 A 
ATOM     12  F   UNL     1       5.475   2.884  15.741  0.00  0.00    +0.000 F 
ATOM     13  C   UNL     1       4.909   4.500  17.369  0.00  0.00    +0.000 A 
ATOM     14  N   UNL     1       3.828   3.783  17.746  0.00  0.00    +0.000 NA
ATOM     15  C   UNL     1       3.028   4.276  18.721  0.00  0.00    +0.000 A 
ENDROOT
BRANCH   1  17
ATOM     16  O   UNL     1       0.353   1.980  18.304  0.00  0.00    +0.000 OA
ATOM     17  C   UNL     1       1.515   2.259  18.561  0.00  0.00    +0.000 C 
BRANCH  17  18
ATOM     18  O   UNL     1       2.518   1.383  18.349  0.00  0.00    +0.000 OA
ATOM     19  H   UNL     1       2.248   0.439  18.463  0.00  0.00    +0.000 HD
ENDBRANCH  17  18
ENDBRANCH   1  17
TORSDOF 2
ENDMDL
