MODEL 1
REMARK VINA RESULT:      -6.9      0.000      0.000
REMARK  Name = 
REMARK  7 active torsions:
REMARK  status: ('A' for Active; 'I' for Inactive)
REMARK    1  A    between atoms: C_1  and  O_2
REMARK    2  A    between atoms: O_2  and  C_3
REMARK    3  A    between atoms: C_3  and  C_4
REMARK    4  A    between atoms: C_4  and  N_5
REMARK    5  A    between atoms: C_10  and  C_11
REMARK    6  A    between atoms: N_13  and  C_14
REMARK    7  A    between atoms: N_13  and  C_15
REMARK                            x       y       z     vdW  Elec       q    Type
REMARK                         _______ _______ _______ _____ _____    ______ ____
ROOT
ATOM      1  N   UNL     1       6.310   5.700  16.898  0.00  0.00    +0.000 N 
ATOM      2  C   UNL     1       6.695   4.979  15.767  0.00  0.00    +0.000 C 
ATOM      3  O   UNL     1       7.745   5.192  15.165  0.00  0.00    +0.000 OA
ATOM      4  C   UNL     1       5.893   3.722  15.491  0.00  0.00    +0.000 C 
ATOM      5  C   UNL     1       4.454   3.708  15.974  0.00  0.00    +0.000 C 
ATOM      6  C   UNL     1       4.179   4.390  17.344  0.00  0.00    +0.000 C 
ATOM      7  C   UNL     1       2.641   4.560  17.453  0.00  0.00    +0.000 C 
ATOM      8  C   UNL     1       2.158   5.659  18.400  0.00  0.00    +0.000 C 
ATOM      9  C   UNL     1       2.901   6.985  18.269  0.00  0.00    +0.000 C 
ATOM     10  C   UNL     1       4.423   6.870  18.184  0.00  0.00    +0.000 C 
ATOM     11  C   UNL     1       4.860   5.795  17.178  0.00  0.00    +0.000 C 
ENDROOT
BRANCH   6  12
ATOM     12  C   UNL     1       4.670   3.736  18.674  0.00  0.00    +0.000 C 
ATOM     13  O   UNL     1       5.414   4.393  19.414  0.00  0.00    +0.000 OA
ATOM     14  N   UNL     1       4.241   2.505  19.147  0.00  0.00    +0.000 N 
ATOM     15  C   UNL     1       4.911   1.959  20.334  0.00  0.00    +0.000 C 
ATOM     16  C   UNL     1       3.296   1.611  18.521  0.00  0.00    +0.000 C 
ENDBRANCH   6  12
BRANCH   1  17
ATOM     17  C   UNL     1       7.295   5.600  17.985  0.00  0.00    +0.000 C 
BRANCH  17  18
ATOM     18  C   UNL     1       7.948   6.919  18.417  0.00  0.00    +0.000 C 
BRANCH  18  20
ATOM     19  C   UNL     1       8.055   9.192  17.751  0.00  0.00    +0.000 C 
ATOM     20  O   UNL     1       7.776   7.860  17.347  0.00  0.00    +0.000 OA
ENDBRANCH  18  20
ENDBRANCH  17  18
ENDBRANCH   1  17
TORSDOF 4
ENDMDL
MODEL 2
REMARK VINA RESULT:      -6.4      1.749      5.270
REMARK  Name = 
REMARK  7 active torsions:
REMARK  status: ('A' for Active; 'I' for Inactive)
REMARK    1  A    between atoms: C_1  and  O_2
REMARK    2  A    between atoms: O_2  and  C_3
REMARK    3  A    between atoms: C_3  and  C_4
REMARK    4  A    between atoms: C_4  and  N_5
REMARK    5  A    between atoms: C_10  and  C_11
REMARK    6  A    between atoms: N_13  and  C_14
REMARK    7  A    between atoms: N_13  and  C_15
REMARK                            x       y       z     vdW  Elec       q    Type
REMARK                         _______ _______ _______ _____ _____    ______ ____
ROOT
ATOM      1  N   UNL     1       3.594   4.262  17.693  0.00  0.00    +0.000 N 
ATOM      2  C   UNL     1       2.725   5.287  18.065  0.00  0.00    +0.000 C 
ATOM      3  O   UNL     1       1.634   5.079  18.593  0.00  0.00    +0.000 OA
ATOM      4  C   UNL     1       3.319   6.682  18.058  0.00  0.00    +0.000 C 
ATOM      5  C   UNL     1       4.454   6.937  17.084  0.00  0.00    +0.000 C 
ATOM      6  C   UNL     1       5.469   5.776  16.886  0.00  0.00    +0.000 C 
ATOM      7  C   UNL     1       6.302   6.124  15.625  0.00  0.00    +0.000 C 
ATOM      8  C   UNL     1       6.956   4.940  14.912  0.00  0.00    +0.000 C 
ATOM      9  C   UNL     1       6.048   3.730  14.717  0.00  0.00    +0.000 C 
ATOM     10  C   UNL     1       5.226   3.333  15.944  0.00  0.00    +0.000 C 
ATOM     11  C   UNL     1       4.540   4.545  16.590  0.00  0.00    +0.000 C 
ENDROOT
BRANCH   6  12
ATOM     12  C   UNL     1       6.477   5.397  18.018  0.00  0.00    +0.000 C 
ATOM     13  O   UNL     1       6.445   4.246  18.474  0.00  0.00    +0.000 OA
ATOM     14  N   UNL     1       7.489   6.226  18.476  0.00  0.00    +0.000 N 
ATOM     15  C   UNL     1       8.256   5.785  19.648  0.00  0.00    +0.000 C 
ATOM     16  C   UNL     1       7.797   7.561  18.020  0.00  0.00    +0.000 C 
ENDBRANCH   6  12
BRANCH   1  17
ATOM     17  C   UNL     1       3.978   3.414  18.831  0.00  0.00    +0.000 C 
BRANCH  17  18
ATOM     18  C   UNL     1       3.288   2.046  18.906  0.00  0.00    +0.000 C 
BRANCH  18  20
ATOM     19  C   UNL     1       2.616   2.754  21.066  0.00  0.00    +0.000 C 
ATOM     20  O   UNL     1       2.209   2.154  19.845  0.00  0.00    +0.000 OA
ENDBRANCH  18  20
ENDBRANCH  17  18
ENDBRANCH   1  17
TORSDOF 4
ENDMDL
MODEL 3
REMARK VINA RESULT:      -6.2      2.145      3.955
REMARK  Name = 
REMARK  7 active torsions:
REMARK  status: ('A' for Active; 'I' for Inactive)
REMARK    1  A    between atoms: C_1  and  O_2
REMARK    2  A    between atoms: O_2  and  C_3
REMARK    3  A    between atoms: C_3  and  C_4
REMARK    4  A    between atoms: C_4  and  N_5
REMARK    5  A    between atoms: C_10  and  C_11
REMARK    6  A    between atoms: N_13  and  C_14
REMARK    7  A    between atoms: N_13  and  C_15
REMARK                            x       y       z     vdW  Elec       q    Type
REMARK                         _______ _______ _______ _____ _____    ______ ____
ROOT
ATOM      1  N   UNL     1       5.862   4.399  16.905  0.00  0.00    +0.000 N 
ATOM      2  C   UNL     1       6.982   4.613  17.707  0.00  0.00    +0.000 C 
ATOM      3  O   UNL     1       8.133   4.482  17.296  0.00  0.00    +0.000 OA
ATOM      4  C   UNL     1       6.714   5.304  19.031  0.00  0.00    +0.000 C 
ATOM      5  C   UNL     1       5.342   5.097  19.645  0.00  0.00    +0.000 C 
ATOM      6  C   UNL     1       4.142   5.055  18.657  0.00  0.00    +0.000 C 
ATOM      7  C   UNL     1       2.933   4.497  19.452  0.00  0.00    +0.000 C 
ATOM      8  C   UNL     1       1.828   3.851  18.615  0.00  0.00    +0.000 C 
ATOM      9  C   UNL     1       2.322   2.902  17.528  0.00  0.00    +0.000 C 
ATOM     10  C   UNL     1       3.498   3.421  16.700  0.00  0.00    +0.000 C 
ATOM     11  C   UNL     1       4.607   4.005  17.586  0.00  0.00    +0.000 C 
ENDROOT
BRANCH   6  12
ATOM     12  C   UNL     1       3.662   6.352  17.930  0.00  0.00    +0.000 C 
ATOM     13  O   UNL     1       3.963   6.504  16.739  0.00  0.00    +0.000 OA
ATOM     14  N   UNL     1       2.821   7.299  18.492  0.00  0.00    +0.000 N 
ATOM     15  C   UNL     1       2.585   8.536  17.736  0.00  0.00    +0.000 C 
ATOM     16  C   UNL     1       2.248   7.282  19.818  0.00  0.00    +0.000 C 
ENDBRANCH   6  12
BRANCH   1  17
ATOM     17  C   UNL     1       5.848   5.268  15.720  0.00  0.00    +0.000 C 
BRANCH  17  18
ATOM     18  C   UNL     1       6.450   4.667  14.444  0.00  0.00    +0.000 C 
BRANCH  18  20
ATOM     19  C   UNL     1       7.979   5.357  12.769  0.00  0.00    +0.000 C 
ATOM     20  O   UNL     1       7.657   5.385  14.152  0.00  0.00    +0.000 OA
ENDBRANCH  18  20
ENDBRANCH  17  18
ENDBRANCH   1  17
TORSDOF 4
ENDMDL
MODEL 4
REMARK VINA RESULT:      -6.0      0.767      1.076
REMARK  Name = 
REMARK  7 active torsions:
REMARK  status: ('A' for Active; 'I' for Inactive)
REMARK    1  A    between atoms: C_1  and  O_2
REMARK    2  A    between atoms: O_2  and  C_3
REMARK    3  A    between atoms: C_3  and  C_4
REMARK    4  A    between atoms: C_4  and  N_5
REMARK    5  A    between atoms: C_10  and  C_11
REMARK    6  A    between atoms: N_13  and  C_14
REMARK    7  A    between atoms: N_13  and  C_15
REMARK                            x       y       z     vdW  Elec       q    Type
REMARK                         _______ _______ _______ _____ _____    ______ ____
ROOT
ATOM      1  N   UNL     1       5.923   5.739  16.703  0.00  0.00    +0.000 N 
ATOM      2  C   UNL     1       6.338   4.960  15.624  0.00  0.00    +0.000 C 
ATOM      3  O   UNL     1       7.370   5.186  14.995  0.00  0.00    +0.000 OA
ATOM      4  C   UNL     1       5.606   3.643  15.449  0.00  0.00    +0.000 C 
ATOM      5  C   UNL     1       4.175   3.585  15.949  0.00  0.00    +0.000 C 
ATOM      6  C   UNL     1       3.872   4.349  17.269  0.00  0.00    +0.000 C 
ATOM      7  C   UNL     1       2.328   4.441  17.384  0.00  0.00    +0.000 C 
ATOM      8  C   UNL     1       1.792   5.578  18.254  0.00  0.00    +0.000 C 
ATOM      9  C   UNL     1       2.457   6.930  18.018  0.00  0.00    +0.000 C 
ATOM     10  C   UNL     1       3.983   6.893  17.923  0.00  0.00    +0.000 C 
ATOM     11  C   UNL     1       4.472   5.774  16.993  0.00  0.00    +0.000 C 
ENDROOT
BRANCH   6  12
ATOM     12  C   UNL     1       4.410   3.822  18.636  0.00  0.00    +0.000 C 
ATOM     13  O   UNL     1       4.965   4.624  19.400  0.00  0.00    +0.000 OA
ATOM     14  N   UNL     1       4.210   2.535  19.114  0.00  0.00    +0.000 N 
ATOM     15  C   UNL     1       4.908   2.149  20.347  0.00  0.00    +0.000 C 
ATOM     16  C   UNL     1       3.497   1.463  18.461  0.00  0.00    +0.000 C 
ENDBRANCH   6  12
BRANCH   1  17
ATOM     17  C   UNL     1       6.920   5.774  17.783  0.00  0.00    +0.000 C 
BRANCH  17  18
ATOM     18  C   UNL     1       7.684   7.094  17.943  0.00  0.00    +0.000 C 
BRANCH  18  20
ATOM     19  C   UNL     1       8.231   5.797  19.851  0.00  0.00    +0.000 C 
ATOM     20  O   UNL     1       8.498   6.985  19.120  0.00  0.00    +0.000 OA
ENDBRANCH  18  20
ENDBRANCH  17  18
ENDBRANCH   1  17
TORSDOF 4
ENDMDL
MODEL 5
REMARK VINA RESULT:      -5.9      2.084      5.205
REMARK  Name = 
REMARK  7 active torsions:
REMARK  status: ('A' for Active; 'I' for Inactive)
REMARK    1  A    between atoms: C_1  and  O_2
REMARK    2  A    between atoms: O_2  and  C_3
REMARK    3  A    between atoms: C_3  and  C_4
REMARK    4  A    between atoms: C_4  and  N_5
REMARK    5  A    between atoms: C_10  and  C_11
REMARK    6  A    between atoms: N_13  and  C_14
REMARK    7  A    between atoms: N_13  and  C_15
REMARK                            x       y       z     vdW  Elec       q    Type
REMARK                         _______ _______ _______ _____ _____    ______ ____
ROOT
ATOM      1  N   UNL     1       3.069   5.693  18.586  0.00  0.00    +0.000 N 
ATOM      2  C   UNL     1       2.764   7.044  18.424  0.00  0.00    +0.000 C 
ATOM      3  O   UNL     1       1.858   7.603  19.040  0.00  0.00    +0.000 OA
ATOM      4  C   UNL     1       3.796   7.860  17.671  0.00  0.00    +0.000 C 
ATOM      5  C   UNL     1       4.637   7.122  16.646  0.00  0.00    +0.000 C 
ATOM      6  C   UNL     1       5.070   5.676  17.019  0.00  0.00    +0.000 C 
ATOM      7  C   UNL     1       5.596   5.020  15.716  0.00  0.00    +0.000 C 
ATOM      8  C   UNL     1       5.560   3.492  15.679  0.00  0.00    +0.000 C 
ATOM      9  C   UNL     1       4.260   2.872  16.181  0.00  0.00    +0.000 C 
ATOM     10  C   UNL     1       3.715   3.470  17.479  0.00  0.00    +0.000 C 
ATOM     11  C   UNL     1       3.716   5.004  17.446  0.00  0.00    +0.000 C 
ENDROOT
BRANCH   6  12
ATOM     12  C   UNL     1       6.139   5.426  18.130  0.00  0.00    +0.000 C 
ATOM     13  O   UNL     1       6.060   4.388  18.801  0.00  0.00    +0.000 OA
ATOM     14  N   UNL     1       7.246   6.232  18.348  0.00  0.00    +0.000 N 
ATOM     15  C   UNL     1       8.074   5.950  19.528  0.00  0.00    +0.000 C 
ATOM     16  C   UNL     1       7.613   7.426  17.623  0.00  0.00    +0.000 C 
ENDBRANCH   6  12
BRANCH   1  17
ATOM     17  C   UNL     1       3.413   5.360  19.976  0.00  0.00    +0.000 C 
BRANCH  17  18
ATOM     18  C   UNL     1       2.295   4.716  20.804  0.00  0.00    +0.000 C 
BRANCH  18  20
ATOM     19  C   UNL     1       1.573   2.604  21.605  0.00  0.00    +0.000 C 
ATOM     20  O   UNL     1       2.495   3.295  20.775  0.00  0.00    +0.000 OA
ENDBRANCH  18  20
ENDBRANCH  17  18
ENDBRANCH   1  17
TORSDOF 4
ENDMDL
MODEL 6
REMARK VINA RESULT:      -5.6      2.003      3.768
REMARK  Name = 
REMARK  7 active torsions:
REMARK  status: ('A' for Active; 'I' for Inactive)
REMARK    1  A    between atoms: C_1  and  O_2
REMARK    2  A    between atoms: O_2  and  C_3
REMARK    3  A    between atoms: C_3  and  C_4
REMARK    4  A    between atoms: C_4  and  N_5
REMARK    5  A    between atoms: C_10  and  C_11
REMARK    6  A    between atoms: N_13  and  C_14
REMARK    7  A    between atoms: N_13  and  C_15
REMARK                            x       y       z     vdW  Elec       q    Type
REMARK                         _______ _______ _______ _____ _____    ______ ____
ROOT
ATOM      1  N   UNL     1       7.246   5.893  18.108  0.00  0.00    +0.000 N 
ATOM      2  C   UNL     1       7.070   5.327  19.370  0.00  0.00    +0.000 C 
ATOM      3  O   UNL     1       7.822   5.557  20.316  0.00  0.00    +0.000 OA
ATOM      4  C   UNL     1       5.735   4.645  19.600  0.00  0.00    +0.000 C 
ATOM      5  C   UNL     1       5.047   4.061  18.380  0.00  0.00    +0.000 C 
ATOM      6  C   UNL     1       5.162   4.879  17.063  0.00  0.00    +0.000 C 
ATOM      7  C   UNL     1       4.703   3.941  15.916  0.00  0.00    +0.000 C 
ATOM      8  C   UNL     1       5.228   4.288  14.523  0.00  0.00    +0.000 C 
ATOM      9  C   UNL     1       6.715   4.622  14.466  0.00  0.00    +0.000 C 
ATOM     10  C   UNL     1       7.210   5.566  15.563  0.00  0.00    +0.000 C 
ATOM     11  C   UNL     1       6.706   5.144  16.950  0.00  0.00    +0.000 C 
ENDROOT
BRANCH   6  12
ATOM     12  C   UNL     1       4.397   6.230  16.894  0.00  0.00    +0.000 C 
ATOM     13  O   UNL     1       4.742   6.993  15.982  0.00  0.00    +0.000 OA
ATOM     14  N   UNL     1       3.275   6.591  17.624  0.00  0.00    +0.000 N 
ATOM     15  C   UNL     1       2.761   7.957  17.455  0.00  0.00    +0.000 C 
ATOM     16  C   UNL     1       2.619   5.822  18.656  0.00  0.00    +0.000 C 
ENDBRANCH   6  12
BRANCH   1  17
ATOM     17  C   UNL     1       7.224   7.362  18.145  0.00  0.00    +0.000 C 
BRANCH  17  18
ATOM     18  C   UNL     1       8.578   8.044  18.377  0.00  0.00    +0.000 C 
BRANCH  18  20
ATOM     19  C   UNL     1       9.183  10.205  19.142  0.00  0.00    +0.000 C 
ATOM     20  O   UNL     1       8.382   9.459  18.237  0.00  0.00    +0.000 OA
ENDBRANCH  18  20
ENDBRANCH  17  18
ENDBRANCH   1  17
TORSDOF 4
ENDMDL
MODEL 7
REMARK VINA RESULT:      -5.6      1.611      5.234
REMARK  Name = 
REMARK  7 active torsions:
REMARK  status: ('A' for Active; 'I' for Inactive)
REMARK    1  A    between atoms: C_1  and  O_2
REMARK    2  A    between atoms: O_2  and  C_3
REMARK    3  A    between atoms: C_3  and  C_4
REMARK    4  A    between atoms: C_4  and  N_5
REMARK    5  A    between atoms: C_10  and  C_11
REMARK    6  A    between atoms: N_13  and  C_14
REMARK    7  A    between atoms: N_13  and  C_15
REMARK                            x       y       z     vdW  Elec       q    Type
REMARK                         _______ _______ _______ _____ _____    ______ ____
ROOT
ATOM      1  N   UNL     1       3.443   4.334  18.367  0.00  0.00    +0.000 N 
ATOM      2  C   UNL     1       2.574   5.286  18.899  0.00  0.00    +0.000 C 
ATOM      3  O   UNL     1       1.644   4.996  19.649  0.00  0.00    +0.000 OA
ATOM      4  C   UNL     1       3.014   6.729  18.746  0.00  0.00    +0.000 C 
ATOM      5  C   UNL     1       3.889   7.053  17.549  0.00  0.00    +0.000 C 
ATOM      6  C   UNL     1       4.950   5.986  17.159  0.00  0.00    +0.000 C 
ATOM      7  C   UNL     1       5.461   6.364  15.744  0.00  0.00    +0.000 C 
ATOM      8  C   UNL     1       6.065   5.222  14.927  0.00  0.00    +0.000 C 
ATOM      9  C   UNL     1       5.259   3.927  14.947  0.00  0.00    +0.000 C 
ATOM     10  C   UNL     1       4.755   3.499  16.326  0.00  0.00    +0.000 C 
ATOM     11  C   UNL     1       4.104   4.664  17.084  0.00  0.00    +0.000 C 
ENDROOT
BRANCH   6  12
ATOM     12  C   UNL     1       6.204   5.742  18.057  0.00  0.00    +0.000 C 
ATOM     13  O   UNL     1       6.338   4.634  18.593  0.00  0.00    +0.000 OA
ATOM     14  N   UNL     1       7.247   6.644  18.208  0.00  0.00    +0.000 N 
ATOM     15  C   UNL     1       8.279   6.332  19.206  0.00  0.00    +0.000 C 
ATOM     16  C   UNL     1       7.371   7.945  17.595  0.00  0.00    +0.000 C 
ENDBRANCH   6  12
BRANCH   1  17
ATOM     17  C   UNL     1       4.138   3.565  19.410  0.00  0.00    +0.000 C 
BRANCH  17  18
ATOM     18  C   UNL     1       3.807   2.069  19.468  0.00  0.00    +0.000 C 
BRANCH  18  20
ATOM     19  C   UNL     1       5.180   1.248  21.218  0.00  0.00    +0.000 C 
ATOM     20  O   UNL     1       5.012   1.370  19.813  0.00  0.00    +0.000 OA
ENDBRANCH  18  20
ENDBRANCH  17  18
ENDBRANCH   1  17
TORSDOF 4
ENDMDL
MODEL 8
REMARK VINA RESULT:      -5.6      1.769      2.319
REMARK  Name = 
REMARK  7 active torsions:
REMARK  status: ('A' for Active; 'I' for Inactive)
REMARK    1  A    between atoms: C_1  and  O_2
REMARK    2  A    between atoms: O_2  and  C_3
REMARK    3  A    between atoms: C_3  and  C_4
REMARK    4  A    between atoms: C_4  and  N_5
REMARK    5  A    between atoms: C_10  and  C_11
REMARK    6  A    between atoms: N_13  and  C_14
REMARK    7  A    between atoms: N_13  and  C_15
REMARK                            x       y       z     vdW  Elec       q    Type
REMARK                         _______ _______ _______ _____ _____    ______ ____
ROOT
ATOM      1  N   UNL     1       4.310   5.736  18.174  0.00  0.00    +0.000 N 
ATOM      2  C   UNL     1       4.537   5.345  16.854  0.00  0.00    +0.000 C 
ATOM      3  O   UNL     1       5.343   5.912  16.119  0.00  0.00    +0.000 OA
ATOM      4  C   UNL     1       3.955   4.001  16.463  0.00  0.00    +0.000 C 
ATOM      5  C   UNL     1       2.713   3.550  17.208  0.00  0.00    +0.000 C 
ATOM      6  C   UNL     1       2.656   3.887  18.724  0.00  0.00    +0.000 C 
ATOM      7  C   UNL     1       1.191   3.653  19.177  0.00  0.00    +0.000 C 
ATOM      8  C   UNL     1       0.751   4.413  20.428  0.00  0.00    +0.000 C 
ATOM      9  C   UNL     1       1.162   5.882  20.460  0.00  0.00    +0.000 C 
ATOM     10  C   UNL     1       2.608   6.159  20.046  0.00  0.00    +0.000 C 
ATOM     11  C   UNL     1       2.985   5.422  18.754  0.00  0.00    +0.000 C 
ENDROOT
BRANCH   6  12
ATOM     12  C   UNL     1       3.581   3.145  19.741  0.00  0.00    +0.000 C 
ATOM     13  O   UNL     1       3.779   3.667  20.846  0.00  0.00    +0.000 OA
ATOM     14  N   UNL     1       4.109   1.878  19.541  0.00  0.00    +0.000 N 
ATOM     15  C   UNL     1       5.082   1.382  20.522  0.00  0.00    +0.000 C 
ATOM     16  C   UNL     1       3.923   1.028  18.389  0.00  0.00    +0.000 C 
ENDBRANCH   6  12
BRANCH   1  17
ATOM     17  C   UNL     1       5.533   5.686  18.989  0.00  0.00    +0.000 C 
BRANCH  17  18
ATOM     18  C   UNL     1       6.533   4.582  18.624  0.00  0.00    +0.000 C 
BRANCH  18  20
ATOM     19  C   UNL     1       7.915   6.509  18.604  0.00  0.00    +0.000 C 
ATOM     20  O   UNL     1       7.853   5.108  18.826  0.00  0.00    +0.000 OA
ENDBRANCH  18  20
ENDBRANCH  17  18
ENDBRANCH   1  17
TORSDOF 4
ENDMDL
MODEL 9
REMARK VINA RESULT:      -5.5      6.157     10.561
REMARK  Name = 
REMARK  7 active torsions:
REMARK  status: ('A' for Active; 'I' for Inactive)
REMARK    1  A    between atoms: C_1  and  O_2
REMARK    2  A    between atoms: O_2  and  C_3
REMARK    3  A    between atoms: C_3  and  C_4
REMARK    4  A    between atoms: C_4  and  N_5
REMARK    5  A    between atoms: C_10  and  C_11
REMARK    6  A    between atoms: N_13  and  C_14
REMARK    7  A    between atoms: N_13  and  C_15
REMARK                            x       y       z     vdW  Elec       q    Type
REMARK                         _______ _______ _______ _____ _____    ______ ____
ROOT
ATOM      1  N   UNL     1      10.490  11.844  19.907  0.00  0.00    +0.000 N 
ATOM      2  C   UNL     1      11.728  12.049  19.298  0.00  0.00    +0.000 C 
ATOM      3  O   UNL     1      12.330  11.164  18.694  0.00  0.00    +0.000 OA
ATOM      4  C   UNL     1      12.158  13.498  19.164  0.00  0.00    +0.000 C 
ATOM      5  C   UNL     1      11.630  14.466  20.206  0.00  0.00    +0.000 C 
ATOM      6  C   UNL     1      10.166  14.244  20.678  0.00  0.00    +0.000 C 
ATOM      7  C   UNL     1       9.976  15.101  21.957  0.00  0.00    +0.000 C 
ATOM      8  C   UNL     1       8.861  14.651  22.901  0.00  0.00    +0.000 C 
ATOM      9  C   UNL     1       8.821  13.151  23.173  0.00  0.00    +0.000 C 
ATOM     10  C   UNL     1       8.978  12.264  21.936  0.00  0.00    +0.000 C 
ATOM     11  C   UNL     1      10.146  12.719  21.051  0.00  0.00    +0.000 C 
ENDROOT
BRANCH   6  12
ATOM     12  C   UNL     1       8.966  14.555  19.728  0.00  0.00    +0.000 C 
ATOM     13  O   UNL     1       7.901  13.948  19.905  0.00  0.00    +0.000 OA
ATOM     14  N   UNL     1       8.968  15.552  18.764  0.00  0.00    +0.000 N 
ATOM     15  C   UNL     1       7.821  15.618  17.849  0.00  0.00    +0.000 C 
ATOM     16  C   UNL     1      10.045  16.461  18.451  0.00  0.00    +0.000 C 
ENDBRANCH   6  12
BRANCH   1  17
ATOM     17  C   UNL     1       9.466  11.395  18.953  0.00  0.00    +0.000 C 
BRANCH  17  18
ATOM     18  C   UNL     1       9.095   9.909  19.023  0.00  0.00    +0.000 C 
BRANCH  18  20
ATOM     19  C   UNL     1       7.966   8.240  17.773  0.00  0.00    +0.000 C 
ATOM     20  O   UNL     1       8.201   9.631  17.935  0.00  0.00    +0.000 OA
ENDBRANCH  18  20
ENDBRANCH  17  18
ENDBRANCH   1  17
TORSDOF 4
ENDMDL
