MODEL 1
REMARK VINA RESULT:     -10.0      0.000      0.000
REMARK  Name = 
REMARK  4 active torsions:
REMARK  status: ('A' for Active; 'I' for Inactive)
REMARK    1  A    between atoms: C_2  and  C_3
REMARK    2  A    between atoms: C_6  and  N_7
REMARK    3  A    between atoms: N_7  and  C_8
REMARK    4  A    between atoms: C_8  and  C_9
REMARK                            x       y       z     vdW  Elec       q    Type
REMARK                         _______ _______ _______ _____ _____    ______ ____
ROOT
ATOM      1  C   UNL     1       5.931   5.284  17.493  0.00  0.00    +0.000 A 
ATOM      2  C   UNL     1       6.822   5.076  18.555  0.00  0.00    +0.000 A 
ATOM      3  C   UNL     1       7.734   6.085  18.961  0.00  0.00    +0.000 A 
ATOM      4  C   UNL     1       7.839   7.301  18.272  0.00  0.00    +0.000 A 
ATOM      5  C   UNL     1       6.920   7.524  17.279  0.00  0.00    +0.000 A 
ATOM      6  C   UNL     1       5.977   6.565  16.945  0.00  0.00    +0.000 A 
ENDROOT
BRANCH   1   8
ATOM      7  O   UNL     1       5.363   3.478  16.088  0.00  0.00    +0.000 OA
ATOM      8  C   UNL     1       4.991   4.161  17.051  0.00  0.00    +0.000 C 
ATOM      9  N   UNL     1       3.744   3.898  17.674  0.00  0.00    +0.000 N 
ATOM     10  C   UNL     1       2.957   2.732  17.286  0.00  0.00    +0.000 C 
ATOM     11  C   UNL     1       2.701   1.805  18.487  0.00  0.00    +0.000 C 
ATOM     12  C   UNL     1       2.492   2.542  19.822  0.00  0.00    +0.000 C 
ATOM     13  C   UNL     1       2.062   3.990  19.584  0.00  0.00    +0.000 C 
ATOM     14  C   UNL     1       1.912   4.807  20.887  0.00  0.00    +0.000 C 
ATOM     15  C   UNL     1       1.552   6.274  20.597  0.00  0.00    +0.000 C 
ATOM     16  C   UNL     1       2.494   6.942  19.599  0.00  0.00    +0.000 C 
ATOM     17  C   UNL     1       2.697   6.074  18.357  0.00  0.00    +0.000 C 
ATOM     18  C   UNL     1       3.167   4.669  18.766  0.00  0.00    +0.000 C 
ENDBRANCH   1   8
BRANCH   4  19
ATOM     19  N   UNL     1       8.707   8.306  18.676  0.00  0.00    +0.000 N 
ATOM     20  H   UNL     1       9.682   8.063  18.538  0.00  0.00    +0.000 HD
BRANCH  19  21
ATOM     21  C   UNL     1       8.419   9.675  18.212  0.00  0.00    +0.000 C 
BRANCH  21  22
ATOM     22  C   UNL     1       9.465  10.635  18.718  0.00  0.00    +0.000 A 
ATOM     23  C   UNL     1       9.571  10.891  20.093  0.00  0.00    +0.000 A 
ATOM     24  C   UNL     1      10.540  11.774  20.565  0.00  0.00    +0.000 A 
ATOM     25  C   UNL     1      11.411  12.381  19.669  0.00  0.00    +0.000 A 
ATOM     26  F   UNL     1      12.332  13.239  20.124  0.00  0.00    +0.000 F 
ATOM     27  C   UNL     1      11.350  12.105  18.309  0.00  0.00    +0.000 A 
ATOM     28  C   UNL     1      10.386  11.221  17.835  0.00  0.00    +0.000 A 
ENDBRANCH  21  22
ENDBRANCH  19  21
ENDBRANCH   4  19
TORSDOF 4
ENDMDL
MODEL 2
REMARK VINA RESULT:      -9.6      0.387      1.335
REMARK  Name = 
REMARK  4 active torsions:
REMARK  status: ('A' for Active; 'I' for Inactive)
REMARK    1  A    between atoms: C_2  and  C_3
REMARK    2  A    between atoms: C_6  and  N_7
REMARK    3  A    between atoms: N_7  and  C_8
REMARK    4  A    between atoms: C_8  and  C_9
REMARK                            x       y       z     vdW  Elec       q    Type
REMARK                         _______ _______ _______ _____ _____    ______ ____
ROOT
ATOM      1  C   UNL     1       6.064   5.174  17.450  0.00  0.00    +0.000 A 
ATOM      2  C   UNL     1       6.055   6.410  16.788  0.00  0.00    +0.000 A 
ATOM      3  C   UNL     1       6.914   7.467  17.187  0.00  0.00    +0.000 A 
ATOM      4  C   UNL     1       7.751   7.352  18.304  0.00  0.00    +0.000 A 
ATOM      5  C   UNL     1       7.804   6.120  18.906  0.00  0.00    +0.000 A 
ATOM      6  C   UNL     1       7.023   5.067  18.456  0.00  0.00    +0.000 A 
ENDROOT
BRANCH   1   8
ATOM      7  O   UNL     1       5.451   3.361  16.074  0.00  0.00    +0.000 OA
ATOM      8  C   UNL     1       5.095   4.070  17.025  0.00  0.00    +0.000 C 
ATOM      9  N   UNL     1       3.840   3.851  17.649  0.00  0.00    +0.000 N 
ATOM     10  C   UNL     1       3.023   2.701  17.279  0.00  0.00    +0.000 C 
ATOM     11  C   UNL     1       2.740   1.801  18.495  0.00  0.00    +0.000 C 
ATOM     12  C   UNL     1       2.548   2.565  19.816  0.00  0.00    +0.000 C 
ATOM     13  C   UNL     1       2.157   4.020  19.553  0.00  0.00    +0.000 C 
ATOM     14  C   UNL     1       2.027   4.863  20.842  0.00  0.00    +0.000 C 
ATOM     15  C   UNL     1       1.707   6.333  20.526  0.00  0.00    +0.000 C 
ATOM     16  C   UNL     1       2.669   6.959  19.520  0.00  0.00    +0.000 C 
ATOM     17  C   UNL     1       2.851   6.066  18.293  0.00  0.00    +0.000 C 
ATOM     18  C   UNL     1       3.282   4.656  18.726  0.00  0.00    +0.000 C 
ENDBRANCH   1   8
BRANCH   4  19
ATOM     19  N   UNL     1       8.616   8.368  18.688  0.00  0.00    +0.000 N 
ATOM     20  H   UNL     1       9.574   8.052  18.785  0.00  0.00    +0.000 HD
BRANCH  19  21
ATOM     21  C   UNL     1       8.535   9.641  17.949  0.00  0.00    +0.000 C 
BRANCH  21  22
ATOM     22  C   UNL     1       9.327  10.711  18.654  0.00  0.00    +0.000 A 
ATOM     23  C   UNL     1       9.870  11.776  17.918  0.00  0.00    +0.000 A 
ATOM     24  C   UNL     1      10.599  12.770  18.567  0.00  0.00    +0.000 A 
ATOM     25  C   UNL     1      10.767  12.712  19.945  0.00  0.00    +0.000 A 
ATOM     26  F   UNL     1      11.480  13.662  20.563  0.00  0.00    +0.000 F 
ATOM     27  C   UNL     1      10.199  11.690  20.694  0.00  0.00    +0.000 A 
ATOM     28  C   UNL     1       9.467  10.697  20.050  0.00  0.00    +0.000 A 
ENDBRANCH  21  22
ENDBRANCH  19  21
ENDBRANCH   4  19
TORSDOF 4
ENDMDL
MODEL 3
REMARK VINA RESULT:      -8.8      0.789      1.626
REMARK  Name = 
REMARK  4 active torsions:
REMARK  status: ('A' for Active; 'I' for Inactive)
REMARK    1  A    between atoms: C_2  and  C_3
REMARK    2  A    between atoms: C_6  and  N_7
REMARK    3  A    between atoms: N_7  and  C_8
REMARK    4  A    between atoms: C_8  and  C_9
REMARK                            x       y       z     vdW  Elec       q    Type
REMARK                         _______ _______ _______ _____ _____    ______ ____
ROOT
ATOM      1  C   UNL     1       5.495   5.159  17.733  0.00  0.00    +0.000 A 
ATOM      2  C   UNL     1       5.473   6.242  16.843  0.00  0.00    +0.000 A 
ATOM      3  C   UNL     1       6.471   7.251  16.883  0.00  0.00    +0.000 A 
ATOM      4  C   UNL     1       7.475   7.253  17.860  0.00  0.00    +0.000 A 
ATOM      5  C   UNL     1       7.530   6.157  18.684  0.00  0.00    +0.000 A 
ATOM      6  C   UNL     1       6.601   5.134  18.581  0.00  0.00    +0.000 A 
ENDROOT
BRANCH   1   8
ATOM      7  O   UNL     1       4.609   3.090  17.033  0.00  0.00    +0.000 OA
ATOM      8  C   UNL     1       4.381   4.112  17.693  0.00  0.00    +0.000 C 
ATOM      9  N   UNL     1       3.133   4.276  18.348  0.00  0.00    +0.000 N 
ATOM     10  C   UNL     1       2.166   3.184  18.376  0.00  0.00    +0.000 C 
ATOM     11  C   UNL     1       1.820   2.780  19.820  0.00  0.00    +0.000 C 
ATOM     12  C   UNL     1       1.775   3.955  20.812  0.00  0.00    +0.000 C 
ATOM     13  C   UNL     1       1.559   5.280  20.080  0.00  0.00    +0.000 C 
ATOM     14  C   UNL     1       1.583   6.510  21.015  0.00  0.00    +0.000 C 
ATOM     15  C   UNL     1       1.437   7.822  20.228  0.00  0.00    +0.000 C 
ATOM     16  C   UNL     1       2.430   7.951  19.076  0.00  0.00    +0.000 C 
ATOM     17  C   UNL     1       2.452   6.688  18.216  0.00  0.00    +0.000 C 
ATOM     18  C   UNL     1       2.721   5.456  19.095  0.00  0.00    +0.000 C 
ENDBRANCH   1   8
BRANCH   4  19
ATOM     19  N   UNL     1       8.472   8.218  17.894  0.00  0.00    +0.000 N 
ATOM     20  H   UNL     1       9.146   8.113  17.144  0.00  0.00    +0.000 HD
BRANCH  19  21
ATOM     21  C   UNL     1       8.050   9.621  18.054  0.00  0.00    +0.000 C 
BRANCH  21  22
ATOM     22  C   UNL     1       9.178  10.451  18.611  0.00  0.00    +0.000 A 
ATOM     23  C   UNL     1      10.078  11.082  17.738  0.00  0.00    +0.000 A 
ATOM     24  C   UNL     1      11.119  11.854  18.249  0.00  0.00    +0.000 A 
ATOM     25  C   UNL     1      11.247  12.012  19.623  0.00  0.00    +0.000 A 
ATOM     26  F   UNL     1      12.257  12.743  20.111  0.00  0.00    +0.000 F 
ATOM     27  C   UNL     1      10.340  11.432  20.500  0.00  0.00    +0.000 A 
ATOM     28  C   UNL     1       9.297  10.663  19.993  0.00  0.00    +0.000 A 
ENDBRANCH  21  22
ENDBRANCH  19  21
ENDBRANCH   4  19
TORSDOF 4
ENDMDL
MODEL 4
REMARK VINA RESULT:      -8.6      5.412      8.424
REMARK  Name = 
REMARK  4 active torsions:
REMARK  status: ('A' for Active; 'I' for Inactive)
REMARK    1  A    between atoms: C_2  and  C_3
REMARK    2  A    between atoms: C_6  and  N_7
REMARK    3  A    between atoms: N_7  and  C_8
REMARK    4  A    between atoms: C_8  and  C_9
REMARK                            x       y       z     vdW  Elec       q    Type
REMARK                         _______ _______ _______ _____ _____    ______ ____
ROOT
ATOM      1  C   UNL     1       2.254   6.745  19.515  0.00  0.00    +0.000 A 
ATOM      2  C   UNL     1       1.747   7.685  20.423  0.00  0.00    +0.000 A 
ATOM      3  C   UNL     1       1.332   8.973  19.997  0.00  0.00    +0.000 A 
ATOM      4  C   UNL     1       1.482   9.391  18.668  0.00  0.00    +0.000 A 
ATOM      5  C   UNL     1       1.914   8.445  17.773  0.00  0.00    +0.000 A 
ATOM      6  C   UNL     1       2.237   7.162  18.185  0.00  0.00    +0.000 A 
ENDROOT
BRANCH   1   8
ATOM      7  O   UNL     1       2.309   5.016  21.117  0.00  0.00    +0.000 OA
ATOM      8  C   UNL     1       2.734   5.381  20.013  0.00  0.00    +0.000 C 
ATOM      9  N   UNL     1       3.633   4.558  19.286  0.00  0.00    +0.000 N 
ATOM     10  C   UNL     1       3.948   3.214  19.758  0.00  0.00    +0.000 C 
ATOM     11  C   UNL     1       3.584   2.151  18.706  0.00  0.00    +0.000 C 
ATOM     12  C   UNL     1       3.815   2.596  17.251  0.00  0.00    +0.000 C 
ATOM     13  C   UNL     1       4.822   3.746  17.185  0.00  0.00    +0.000 C 
ATOM     14  C   UNL     1       5.038   4.291  15.756  0.00  0.00    +0.000 C 
ATOM     15  C   UNL     1       5.998   5.491  15.747  0.00  0.00    +0.000 C 
ATOM     16  C   UNL     1       5.605   6.588  16.733  0.00  0.00    +0.000 C 
ATOM     17  C   UNL     1       5.311   6.014  18.118  0.00  0.00    +0.000 C 
ATOM     18  C   UNL     1       4.253   4.903  18.015  0.00  0.00    +0.000 C 
ENDBRANCH   1   8
BRANCH   4  19
ATOM     19  N   UNL     1       1.055  10.638  18.232  0.00  0.00    +0.000 N 
ATOM     20  H   UNL     1       0.755  10.635  17.264  0.00  0.00    +0.000 HD
BRANCH  19  21
ATOM     21  C   UNL     1       0.104  11.366  19.092  0.00  0.00    +0.000 C 
BRANCH  21  22
ATOM     22  C   UNL     1      -1.304  11.202  18.581  0.00  0.00    +0.000 A 
ATOM     23  C   UNL     1      -1.586  10.223  17.615  0.00  0.00    +0.000 A 
ATOM     24  C   UNL     1      -2.887  10.065  17.143  0.00  0.00    +0.000 A 
ATOM     25  C   UNL     1      -3.904  10.864  17.650  0.00  0.00    +0.000 A 
ATOM     26  F   UNL     1      -5.150  10.718  17.185  0.00  0.00    +0.000 F 
ATOM     27  C   UNL     1      -3.651  11.807  18.638  0.00  0.00    +0.000 A 
ATOM     28  C   UNL     1      -2.353  11.965  19.114  0.00  0.00    +0.000 A 
ENDBRANCH  21  22
ENDBRANCH  19  21
ENDBRANCH   4  19
TORSDOF 4
ENDMDL
MODEL 5
REMARK VINA RESULT:      -8.3      4.174      7.140
REMARK  Name = 
REMARK  4 active torsions:
REMARK  status: ('A' for Active; 'I' for Inactive)
REMARK    1  A    between atoms: C_2  and  C_3
REMARK    2  A    between atoms: C_6  and  N_7
REMARK    3  A    between atoms: N_7  and  C_8
REMARK    4  A    between atoms: C_8  and  C_9
REMARK                            x       y       z     vdW  Elec       q    Type
REMARK                         _______ _______ _______ _____ _____    ______ ____
ROOT
ATOM      1  C   UNL     1       2.552   5.365  18.463  0.00  0.00    +0.000 A 
ATOM      2  C   UNL     1       2.081   4.917  19.706  0.00  0.00    +0.000 A 
ATOM      3  C   UNL     1       1.667   5.829  20.711  0.00  0.00    +0.000 A 
ATOM      4  C   UNL     1       1.782   7.215  20.538  0.00  0.00    +0.000 A 
ATOM      5  C   UNL     1       2.178   7.647  19.297  0.00  0.00    +0.000 A 
ATOM      6  C   UNL     1       2.500   6.747  18.293  0.00  0.00    +0.000 A 
ENDROOT
BRANCH   1   8
ATOM      7  O   UNL     1       2.174   3.597  16.950  0.00  0.00    +0.000 OA
ATOM      8  C   UNL     1       3.032   4.358  17.418  0.00  0.00    +0.000 C 
ATOM      9  N   UNL     1       4.383   4.258  16.994  0.00  0.00    +0.000 N 
ATOM     10  C   UNL     1       4.748   3.364  15.901  0.00  0.00    +0.000 C 
ATOM     11  C   UNL     1       5.414   4.134  14.747  0.00  0.00    +0.000 C 
ATOM     12  C   UNL     1       6.308   5.302  15.200  0.00  0.00    +0.000 C 
ATOM     13  C   UNL     1       6.755   5.117  16.651  0.00  0.00    +0.000 C 
ATOM     14  C   UNL     1       7.592   6.298  17.190  0.00  0.00    +0.000 C 
ATOM     15  C   UNL     1       7.955   6.104  18.672  0.00  0.00    +0.000 C 
ATOM     16  C   UNL     1       6.749   5.798  19.555  0.00  0.00    +0.000 C 
ATOM     17  C   UNL     1       5.887   4.687  18.956  0.00  0.00    +0.000 C 
ATOM     18  C   UNL     1       5.490   5.045  17.515  0.00  0.00    +0.000 C 
ENDBRANCH   1   8
BRANCH   4  19
ATOM     19  N   UNL     1       1.356   8.118  21.502  0.00  0.00    +0.000 N 
ATOM     20  H   UNL     1       2.034   8.850  21.683  0.00  0.00    +0.000 HD
BRANCH  19  21
ATOM     21  C   UNL     1      -0.007   8.664  21.362  0.00  0.00    +0.000 C 
BRANCH  21  22
ATOM     22  C   UNL     1       0.016   9.941  20.562  0.00  0.00    +0.000 A 
ATOM     23  C   UNL     1       0.861  10.993  20.949  0.00  0.00    +0.000 A 
ATOM     24  C   UNL     1       0.888  12.173  20.210  0.00  0.00    +0.000 A 
ATOM     25  C   UNL     1       0.091  12.293  19.078  0.00  0.00    +0.000 A 
ATOM     26  F   UNL     1       0.110  13.434  18.377  0.00  0.00    +0.000 F 
ATOM     27  C   UNL     1      -0.718  11.247  18.655  0.00  0.00    +0.000 A 
ATOM     28  C   UNL     1      -0.744  10.065  19.389  0.00  0.00    +0.000 A 
ENDBRANCH  21  22
ENDBRANCH  19  21
ENDBRANCH   4  19
TORSDOF 4
ENDMDL
MODEL 6
REMARK VINA RESULT:      -8.3      4.344      7.568
REMARK  Name = 
REMARK  4 active torsions:
REMARK  status: ('A' for Active; 'I' for Inactive)
REMARK    1  A    between atoms: C_2  and  C_3
REMARK    2  A    between atoms: C_6  and  N_7
REMARK    3  A    between atoms: N_7  and  C_8
REMARK    4  A    between atoms: C_8  and  C_9
REMARK                            x       y       z     vdW  Elec       q    Type
REMARK                         _______ _______ _______ _____ _____    ______ ____
ROOT
ATOM      1  C   UNL     1       2.550   5.377  18.467  0.00  0.00    +0.000 A 
ATOM      2  C   UNL     1       2.073   4.922  19.704  0.00  0.00    +0.000 A 
ATOM      3  C   UNL     1       1.666   5.830  20.717  0.00  0.00    +0.000 A 
ATOM      4  C   UNL     1       1.795   7.215  20.557  0.00  0.00    +0.000 A 
ATOM      5  C   UNL     1       2.198   7.654  19.321  0.00  0.00    +0.000 A 
ATOM      6  C   UNL     1       2.513   6.761  18.309  0.00  0.00    +0.000 A 
ENDROOT
BRANCH   1   8
ATOM      7  O   UNL     1       2.159   3.622  16.942  0.00  0.00    +0.000 OA
ATOM      8  C   UNL     1       3.022   4.374  17.413  0.00  0.00    +0.000 C 
ATOM      9  N   UNL     1       4.372   4.270  16.986  0.00  0.00    +0.000 N 
ATOM     10  C   UNL     1       4.730   3.381  15.885  0.00  0.00    +0.000 C 
ATOM     11  C   UNL     1       5.398   4.156  14.736  0.00  0.00    +0.000 C 
ATOM     12  C   UNL     1       6.300   5.315  15.195  0.00  0.00    +0.000 C 
ATOM     13  C   UNL     1       6.748   5.117  16.644  0.00  0.00    +0.000 C 
ATOM     14  C   UNL     1       7.593   6.290  17.190  0.00  0.00    +0.000 C 
ATOM     15  C   UNL     1       7.958   6.083  18.670  0.00  0.00    +0.000 C 
ATOM     16  C   UNL     1       6.751   5.777  19.553  0.00  0.00    +0.000 C 
ATOM     17  C   UNL     1       5.882   4.676  18.948  0.00  0.00    +0.000 C 
ATOM     18  C   UNL     1       5.485   5.047  17.510  0.00  0.00    +0.000 C 
ENDBRANCH   1   8
BRANCH   4  19
ATOM     19  N   UNL     1       1.375   8.114  21.528  0.00  0.00    +0.000 N 
ATOM     20  H   UNL     1       1.864   9.001  21.480  0.00  0.00    +0.000 HD
BRANCH  19  21
ATOM     21  C   UNL     1      -0.078   8.303  21.692  0.00  0.00    +0.000 C 
BRANCH  21  22
ATOM     22  C   UNL     1      -0.419   9.771  21.722  0.00  0.00    +0.000 A 
ATOM     23  C   UNL     1      -0.837  10.367  22.922  0.00  0.00    +0.000 A 
ATOM     24  C   UNL     1      -1.148  11.724  22.953  0.00  0.00    +0.000 A 
ATOM     25  C   UNL     1      -1.022  12.486  21.798  0.00  0.00    +0.000 A 
ATOM     26  F   UNL     1      -1.336  13.787  21.829  0.00  0.00    +0.000 F 
ATOM     27  C   UNL     1      -0.568  11.922  20.613  0.00  0.00    +0.000 A 
ATOM     28  C   UNL     1      -0.252  10.568  20.578  0.00  0.00    +0.000 A 
ENDBRANCH  21  22
ENDBRANCH  19  21
ENDBRANCH   4  19
TORSDOF 4
ENDMDL
MODEL 7
REMARK VINA RESULT:      -8.3      4.417      7.659
REMARK  Name = 
REMARK  4 active torsions:
REMARK  status: ('A' for Active; 'I' for Inactive)
REMARK    1  A    between atoms: C_2  and  C_3
REMARK    2  A    between atoms: C_6  and  N_7
REMARK    3  A    between atoms: N_7  and  C_8
REMARK    4  A    between atoms: C_8  and  C_9
REMARK                            x       y       z     vdW  Elec       q    Type
REMARK                         _______ _______ _______ _____ _____    ______ ____
ROOT
ATOM      1  C   UNL     1       2.627   4.959  18.396  0.00  0.00    +0.000 A 
ATOM      2  C   UNL     1       2.021   4.393  19.526  0.00  0.00    +0.000 A 
ATOM      3  C   UNL     1       1.510   5.204  20.573  0.00  0.00    +0.000 A 
ATOM      4  C   UNL     1       1.657   6.597  20.562  0.00  0.00    +0.000 A 
ATOM      5  C   UNL     1       2.190   7.148  19.424  0.00  0.00    +0.000 A 
ATOM      6  C   UNL     1       2.609   6.352  18.370  0.00  0.00    +0.000 A 
ENDROOT
BRANCH   1   8
ATOM      7  O   UNL     1       2.432   3.237  16.798  0.00  0.00    +0.000 OA
ATOM      8  C   UNL     1       3.208   4.057  17.306  0.00  0.00    +0.000 C 
ATOM      9  N   UNL     1       4.562   4.114  16.886  0.00  0.00    +0.000 N 
ATOM     10  C   UNL     1       5.017   3.314  15.754  0.00  0.00    +0.000 C 
ATOM     11  C   UNL     1       5.604   4.203  14.642  0.00  0.00    +0.000 C 
ATOM     12  C   UNL     1       6.375   5.431  15.155  0.00  0.00    +0.000 C 
ATOM     13  C   UNL     1       6.836   5.222  16.599  0.00  0.00    +0.000 C 
ATOM     14  C   UNL     1       7.550   6.455  17.199  0.00  0.00    +0.000 C 
ATOM     15  C   UNL     1       7.929   6.227  18.672  0.00  0.00    +0.000 C 
ATOM     16  C   UNL     1       6.758   5.758  19.532  0.00  0.00    +0.000 C 
ATOM     17  C   UNL     1       6.014   4.597  18.876  0.00  0.00    +0.000 C 
ATOM     18  C   UNL     1       5.584   4.982  17.451  0.00  0.00    +0.000 C 
ENDBRANCH   1   8
BRANCH   4  19
ATOM     19  N   UNL     1       1.138   7.404  21.565  0.00  0.00    +0.000 N 
ATOM     20  H   UNL     1       1.115   6.943  22.468  0.00  0.00    +0.000 HD
BRANCH  19  21
ATOM     21  C   UNL     1       1.664   8.777  21.670  0.00  0.00    +0.000 C 
BRANCH  21  22
ATOM     22  C   UNL     1       0.535   9.767  21.799  0.00  0.00    +0.000 A 
ATOM     23  C   UNL     1       0.139  10.523  20.685  0.00  0.00    +0.000 A 
ATOM     24  C   UNL     1      -0.907  11.436  20.799  0.00  0.00    +0.000 A 
ATOM     25  C   UNL     1      -1.568  11.576  22.013  0.00  0.00    +0.000 A 
ATOM     26  F   UNL     1      -2.565  12.463  22.122  0.00  0.00    +0.000 F 
ATOM     27  C   UNL     1      -1.219  10.804  23.113  0.00  0.00    +0.000 A 
ATOM     28  C   UNL     1      -0.177   9.888  23.002  0.00  0.00    +0.000 A 
ENDBRANCH  21  22
ENDBRANCH  19  21
ENDBRANCH   4  19
TORSDOF 4
ENDMDL
MODEL 8
REMARK VINA RESULT:      -8.3      1.271      1.794
REMARK  Name = 
REMARK  4 active torsions:
REMARK  status: ('A' for Active; 'I' for Inactive)
REMARK    1  A    between atoms: C_2  and  C_3
REMARK    2  A    between atoms: C_6  and  N_7
REMARK    3  A    between atoms: N_7  and  C_8
REMARK    4  A    between atoms: C_8  and  C_9
REMARK                            x       y       z     vdW  Elec       q    Type
REMARK                         _______ _______ _______ _____ _____    ______ ____
ROOT
ATOM      1  C   UNL     1       5.252   4.997  17.627  0.00  0.00    +0.000 A 
ATOM      2  C   UNL     1       5.206   5.948  16.598  0.00  0.00    +0.000 A 
ATOM      3  C   UNL     1       6.166   6.989  16.512  0.00  0.00    +0.000 A 
ATOM      4  C   UNL     1       7.154   7.161  17.490  0.00  0.00    +0.000 A 
ATOM      5  C   UNL     1       7.235   6.189  18.455  0.00  0.00    +0.000 A 
ATOM      6  C   UNL     1       6.345   5.128  18.482  0.00  0.00    +0.000 A 
ENDROOT
BRANCH   1   8
ATOM      7  O   UNL     1       4.382   2.878  17.071  0.00  0.00    +0.000 OA
ATOM      8  C   UNL     1       4.177   3.913  17.718  0.00  0.00    +0.000 C 
ATOM      9  N   UNL     1       2.986   4.058  18.476  0.00  0.00    +0.000 N 
ATOM     10  C   UNL     1       2.065   2.936  18.622  0.00  0.00    +0.000 C 
ATOM     11  C   UNL     1       1.861   2.569  20.103  0.00  0.00    +0.000 C 
ATOM     12  C   UNL     1       1.862   3.774  21.059  0.00  0.00    +0.000 C 
ATOM     13  C   UNL     1       1.535   5.067  20.309  0.00  0.00    +0.000 C 
ATOM     14  C   UNL     1       1.598   6.327  21.202  0.00  0.00    +0.000 C 
ATOM     15  C   UNL     1       1.336   7.607  20.391  0.00  0.00    +0.000 C 
ATOM     16  C   UNL     1       2.219   7.730  19.152  0.00  0.00    +0.000 C 
ATOM     17  C   UNL     1       2.211   6.440  18.332  0.00  0.00    +0.000 C 
ATOM     18  C   UNL     1       2.599   5.248  19.220  0.00  0.00    +0.000 C 
ENDBRANCH   1   8
BRANCH   4  19
ATOM     19  N   UNL     1       8.116   8.158  17.403  0.00  0.00    +0.000 N 
ATOM     20  H   UNL     1       7.858   8.898  16.760  0.00  0.00    +0.000 HD
BRANCH  19  21
ATOM     21  C   UNL     1       8.646   8.699  18.668  0.00  0.00    +0.000 C 
BRANCH  21  22
ATOM     22  C   UNL     1       8.950  10.168  18.528  0.00  0.00    +0.000 A 
ATOM     23  C   UNL     1      10.048  10.722  19.205  0.00  0.00    +0.000 A 
ATOM     24  C   UNL     1      10.335  12.078  19.073  0.00  0.00    +0.000 A 
ATOM     25  C   UNL     1       9.543  12.873  18.254  0.00  0.00    +0.000 A 
ATOM     26  F   UNL     1       9.813  14.179  18.141  0.00  0.00    +0.000 F 
ATOM     27  C   UNL     1       8.479  12.333  17.542  0.00  0.00    +0.000 A 
ATOM     28  C   UNL     1       8.192  10.977  17.667  0.00  0.00    +0.000 A 
ENDBRANCH  21  22
ENDBRANCH  19  21
ENDBRANCH   4  19
TORSDOF 4
ENDMDL
MODEL 9
REMARK VINA RESULT:      -8.2      4.182      7.232
REMARK  Name = 
REMARK  4 active torsions:
REMARK  status: ('A' for Active; 'I' for Inactive)
REMARK    1  A    between atoms: C_2  and  C_3
REMARK    2  A    between atoms: C_6  and  N_7
REMARK    3  A    between atoms: N_7  and  C_8
REMARK    4  A    between atoms: C_8  and  C_9
REMARK                            x       y       z     vdW  Elec       q    Type
REMARK                         _______ _______ _______ _____ _____    ______ ____
ROOT
ATOM      1  C   UNL     1       2.576   5.389  18.608  0.00  0.00    +0.000 A 
ATOM      2  C   UNL     1       2.635   6.770  18.373  0.00  0.00    +0.000 A 
ATOM      3  C   UNL     1       2.202   7.703  19.351  0.00  0.00    +0.000 A 
ATOM      4  C   UNL     1       1.626   7.288  20.559  0.00  0.00    +0.000 A 
ATOM      5  C   UNL     1       1.634   5.940  20.810  0.00  0.00    +0.000 A 
ATOM      6  C   UNL     1       2.136   5.040  19.884  0.00  0.00    +0.000 A 
ENDROOT
BRANCH   1   8
ATOM      7  O   UNL     1       2.126   3.670  17.058  0.00  0.00    +0.000 OA
ATOM      8  C   UNL     1       3.009   4.408  17.517  0.00  0.00    +0.000 C 
ATOM      9  N   UNL     1       4.343   4.305  17.045  0.00  0.00    +0.000 N 
ATOM     10  C   UNL     1       4.660   3.440  15.914  0.00  0.00    +0.000 C 
ATOM     11  C   UNL     1       5.297   4.236  14.762  0.00  0.00    +0.000 C 
ATOM     12  C   UNL     1       6.219   5.380  15.217  0.00  0.00    +0.000 C 
ATOM     13  C   UNL     1       6.712   5.148  16.646  0.00  0.00    +0.000 C 
ATOM     14  C   UNL     1       7.582   6.304  17.191  0.00  0.00    +0.000 C 
ATOM     15  C   UNL     1       7.992   6.062  18.653  0.00  0.00    +0.000 C 
ATOM     16  C   UNL     1       6.812   5.743  19.568  0.00  0.00    +0.000 C 
ATOM     17  C   UNL     1       5.918   4.660  18.966  0.00  0.00    +0.000 C 
ATOM     18  C   UNL     1       5.477   5.065  17.551  0.00  0.00    +0.000 C 
ENDBRANCH   1   8
BRANCH   4  19
ATOM     19  N   UNL     1       1.224   8.190  21.534  0.00  0.00    +0.000 N 
ATOM     20  H   UNL     1       1.933   8.885  21.744  0.00  0.00    +0.000 HD
BRANCH  19  21
ATOM     21  C   UNL     1      -0.108   8.803  21.381  0.00  0.00    +0.000 C 
BRANCH  21  22
ATOM     22  C   UNL     1      -0.023  10.044  20.531  0.00  0.00    +0.000 A 
ATOM     23  C   UNL     1      -0.799  10.147  19.366  0.00  0.00    +0.000 A 
ATOM     24  C   UNL     1      -0.727  11.295  18.580  0.00  0.00    +0.000 A 
ATOM     25  C   UNL     1       0.099  12.343  18.967  0.00  0.00    +0.000 A 
ATOM     26  F   UNL     1       0.176  13.438  18.202  0.00  0.00    +0.000 F 
ATOM     27  C   UNL     1       0.840  12.276  20.139  0.00  0.00    +0.000 A 
ATOM     28  C   UNL     1       0.768  11.133  20.929  0.00  0.00    +0.000 A 
ENDBRANCH  21  22
ENDBRANCH  19  21
ENDBRANCH   4  19
TORSDOF 4
ENDMDL
