MODEL 1
REMARK VINA RESULT:      -8.5      0.000      0.000
REMARK  Name = 
REMARK  7 active torsions:
REMARK  status: ('A' for Active; 'I' for Inactive)
REMARK    1  A    between atoms: C_2  and  O_4
REMARK    2  A    between atoms: O_4  and  C_5
REMARK    3  A    between atoms: C_8  and  C_9
REMARK    4  A    between atoms: C_16  and  C_17
REMARK    5  A    between atoms: C_17  and  C_18
REMARK    6  A    between atoms: C_18  and  C_19
REMARK    7  A    between atoms: C_19  and  C_20
REMARK                            x       y       z     vdW  Elec       q    Type
REMARK                         _______ _______ _______ _____ _____    ______ ____
ROOT
ATOM      1  C   UNL     1       4.475   3.325  19.059  0.00  0.00    +0.000 A 
ATOM      2  N   UNL     1       5.249   2.539  19.802  0.00  0.00    +0.000 NA
ATOM      3  N   UNL     1       4.550   2.118  20.899  0.00  0.00    +0.000 NA
ATOM      4  C   UNL     1       3.354   2.632  20.794  0.00  0.00    +0.000 A 
ATOM      5  C   UNL     1       2.277   2.512  21.722  0.00  0.00    +0.000 A 
ATOM      6  N   UNL     1       1.130   3.089  21.500  0.00  0.00    +0.000 NA
ATOM      7  C   UNL     1       0.985   3.778  20.316  0.00  0.00    +0.000 A 
ATOM      8  C   UNL     1       1.922   3.889  19.341  0.00  0.00    +0.000 A 
ATOM      9  N   UNL     1       3.197   3.349  19.627  0.00  0.00    +0.000 N 
ENDROOT
BRANCH   1  13
ATOM     10  C   UNL     1       6.172   5.146  15.574  0.00  0.00    +0.000 A 
ATOM     11  C   UNL     1       6.430   5.659  16.844  0.00  0.00    +0.000 A 
ATOM     12  C   UNL     1       5.848   5.073  17.973  0.00  0.00    +0.000 A 
ATOM     13  C   UNL     1       4.968   3.989  17.848  0.00  0.00    +0.000 A 
ATOM     14  C   UNL     1       4.576   3.616  16.557  0.00  0.00    +0.000 A 
ATOM     15  C   UNL     1       5.217   4.142  15.429  0.00  0.00    +0.000 A 
BRANCH  10  16
ATOM     16  O   UNL     1       6.873   5.722  14.553  0.00  0.00    +0.000 OA
BRANCH  16  18
ATOM     17  F   UNL     1       6.671   4.298  12.810  0.00  0.00    +0.000 F 
ATOM     18  C   UNL     1       7.553   4.809  13.703  0.00  0.00    +0.000 C 
ATOM     19  F   UNL     1       8.463   5.519  12.989  0.00  0.00    +0.000 F 
ENDBRANCH  16  18
ENDBRANCH  10  16
ENDBRANCH   1  13
BRANCH   8  20
ATOM     20  C   UNL     1       1.584   4.571  18.035  0.00  0.00    +0.000 C 
BRANCH  20  21
ATOM     21  C   UNL     1       2.076   6.006  17.813  0.00  0.00    +0.000 C 
BRANCH  21  22
ATOM     22  C   UNL     1       2.668   6.686  19.039  0.00  0.00    +0.000 C 
BRANCH  22  23
ATOM     23  C   UNL     1       1.967   7.991  19.301  0.00  0.00    +0.000 A 
ATOM     24  C   UNL     1       1.439   8.250  20.569  0.00  0.00    +0.000 A 
ATOM     25  C   UNL     1       0.760   9.438  20.820  0.00  0.00    +0.000 A 
ATOM     26  C   UNL     1       0.601  10.373  19.796  0.00  0.00    +0.000 A 
ATOM     27  C   UNL     1       1.114  10.119  18.529  0.00  0.00    +0.000 A 
ATOM     28  C   UNL     1       1.796   8.930  18.274  0.00  0.00    +0.000 A 
ENDBRANCH  22  23
ENDBRANCH  21  22
ENDBRANCH  20  21
ENDBRANCH   8  20
TORSDOF 7
ENDMDL
MODEL 2
REMARK VINA RESULT:      -8.4      2.380      2.786
REMARK  Name = 
REMARK  7 active torsions:
REMARK  status: ('A' for Active; 'I' for Inactive)
REMARK    1  A    between atoms: C_2  and  O_4
REMARK    2  A    between atoms: O_4  and  C_5
REMARK    3  A    between atoms: C_8  and  C_9
REMARK    4  A    between atoms: C_16  and  C_17
REMARK    5  A    between atoms: C_17  and  C_18
REMARK    6  A    between atoms: C_18  and  C_19
REMARK    7  A    between atoms: C_19  and  C_20
REMARK                            x       y       z     vdW  Elec       q    Type
REMARK                         _______ _______ _______ _____ _____    ______ ____
ROOT
ATOM      1  C   UNL     1       4.133   3.530  18.174  0.00  0.00    +0.000 A 
ATOM      2  N   UNL     1       4.175   2.268  17.756  0.00  0.00    +0.000 NA
ATOM      3  N   UNL     1       3.118   1.579  18.284  0.00  0.00    +0.000 NA
ATOM      4  C   UNL     1       2.435   2.438  18.993  0.00  0.00    +0.000 A 
ATOM      5  C   UNL     1       1.268   2.182  19.772  0.00  0.00    +0.000 A 
ATOM      6  N   UNL     1       0.687   3.133  20.447  0.00  0.00    +0.000 NA
ATOM      7  C   UNL     1       1.216   4.401  20.340  0.00  0.00    +0.000 A 
ATOM      8  C   UNL     1       2.275   4.758  19.572  0.00  0.00    +0.000 A 
ATOM      9  N   UNL     1       2.965   3.710  18.921  0.00  0.00    +0.000 N 
ENDROOT
BRANCH   1  13
ATOM     10  C   UNL     1       6.991   6.577  17.227  0.00  0.00    +0.000 A 
ATOM     11  C   UNL     1       5.979   6.243  16.327  0.00  0.00    +0.000 A 
ATOM     12  C   UNL     1       5.068   5.227  16.636  0.00  0.00    +0.000 A 
ATOM     13  C   UNL     1       5.177   4.502  17.830  0.00  0.00    +0.000 A 
ATOM     14  C   UNL     1       6.308   4.723  18.624  0.00  0.00    +0.000 A 
ATOM     15  C   UNL     1       7.174   5.792  18.363  0.00  0.00    +0.000 A 
BRANCH  10  16
ATOM     16  O   UNL     1       7.758   7.651  16.878  0.00  0.00    +0.000 OA
BRANCH  16  18
ATOM     17  F   UNL     1       8.746   8.077  18.865  0.00  0.00    +0.000 F 
ATOM     18  C   UNL     1       7.949   8.611  17.907  0.00  0.00    +0.000 C 
ATOM     19  F   UNL     1       8.631   9.654  17.369  0.00  0.00    +0.000 F 
ENDBRANCH  16  18
ENDBRANCH  10  16
ENDBRANCH   1  13
BRANCH   8  20
ATOM     20  C   UNL     1       2.672   6.212  19.451  0.00  0.00    +0.000 C 
BRANCH  20  21
ATOM     21  C   UNL     1       2.359   6.947  18.143  0.00  0.00    +0.000 C 
BRANCH  21  22
ATOM     22  C   UNL     1       2.597   8.450  18.170  0.00  0.00    +0.000 C 
BRANCH  22  23
ATOM     23  C   UNL     1       1.388   9.161  18.713  0.00  0.00    +0.000 A 
ATOM     24  C   UNL     1       1.186   9.225  20.094  0.00  0.00    +0.000 A 
ATOM     25  C   UNL     1       0.056   9.849  20.613  0.00  0.00    +0.000 A 
ATOM     26  C   UNL     1      -0.882  10.411  19.746  0.00  0.00    +0.000 A 
ATOM     27  C   UNL     1      -0.694  10.343  18.370  0.00  0.00    +0.000 A 
ATOM     28  C   UNL     1       0.437   9.718  17.847  0.00  0.00    +0.000 A 
ENDBRANCH  22  23
ENDBRANCH  21  22
ENDBRANCH  20  21
ENDBRANCH   8  20
TORSDOF 7
ENDMDL
MODEL 3
REMARK VINA RESULT:      -8.4      2.311      2.823
REMARK  Name = 
REMARK  7 active torsions:
REMARK  status: ('A' for Active; 'I' for Inactive)
REMARK    1  A    between atoms: C_2  and  O_4
REMARK    2  A    between atoms: O_4  and  C_5
REMARK    3  A    between atoms: C_8  and  C_9
REMARK    4  A    between atoms: C_16  and  C_17
REMARK    5  A    between atoms: C_17  and  C_18
REMARK    6  A    between atoms: C_18  and  C_19
REMARK    7  A    between atoms: C_19  and  C_20
REMARK                            x       y       z     vdW  Elec       q    Type
REMARK                         _______ _______ _______ _____ _____    ______ ____
ROOT
ATOM      1  C   UNL     1       4.081   3.480  18.179  0.00  0.00    +0.000 A 
ATOM      2  N   UNL     1       4.030   2.205  17.803  0.00  0.00    +0.000 NA
ATOM      3  N   UNL     1       2.960   1.597  18.398  0.00  0.00    +0.000 NA
ATOM      4  C   UNL     1       2.360   2.517  19.105  0.00  0.00    +0.000 A 
ATOM      5  C   UNL     1       1.216   2.355  19.942  0.00  0.00    +0.000 A 
ATOM      6  N   UNL     1       0.722   3.360  20.608  0.00  0.00    +0.000 NA
ATOM      7  C   UNL     1       1.318   4.590  20.436  0.00  0.00    +0.000 A 
ATOM      8  C   UNL     1       2.362   4.859  19.612  0.00  0.00    +0.000 A 
ATOM      9  N   UNL     1       2.959   3.752  18.968  0.00  0.00    +0.000 N 
ENDROOT
BRANCH   1  13
ATOM     10  C   UNL     1       7.078   6.319  17.039  0.00  0.00    +0.000 A 
ATOM     11  C   UNL     1       5.947   6.119  16.249  0.00  0.00    +0.000 A 
ATOM     12  C   UNL     1       4.988   5.169  16.617  0.00  0.00    +0.000 A 
ATOM     13  C   UNL     1       5.163   4.376  17.759  0.00  0.00    +0.000 A 
ATOM     14  C   UNL     1       6.391   4.459  18.426  0.00  0.00    +0.000 A 
ATOM     15  C   UNL     1       7.315   5.463  18.112  0.00  0.00    +0.000 A 
BRANCH  10  16
ATOM     16  O   UNL     1       7.895   7.341  16.650  0.00  0.00    +0.000 OA
BRANCH  16  18
ATOM     17  F   UNL     1       6.621   8.659  17.970  0.00  0.00    +0.000 F 
ATOM     18  C   UNL     1       7.879   8.479  17.500  0.00  0.00    +0.000 C 
ATOM     19  F   UNL     1       8.660   8.196  18.573  0.00  0.00    +0.000 F 
ENDBRANCH  16  18
ENDBRANCH  10  16
ENDBRANCH   1  13
BRANCH   8  20
ATOM     20  C   UNL     1       2.836   6.283  19.426  0.00  0.00    +0.000 C 
BRANCH  20  21
ATOM     21  C   UNL     1       2.399   7.038  18.166  0.00  0.00    +0.000 C 
BRANCH  21  22
ATOM     22  C   UNL     1       2.571   8.549  18.223  0.00  0.00    +0.000 C 
BRANCH  22  23
ATOM     23  C   UNL     1       1.314   9.199  18.732  0.00  0.00    +0.000 A 
ATOM     24  C   UNL     1       0.416   9.771  17.827  0.00  0.00    +0.000 A 
ATOM     25  C   UNL     1      -0.735  10.406  18.283  0.00  0.00    +0.000 A 
ATOM     26  C   UNL     1      -0.990  10.474  19.653  0.00  0.00    +0.000 A 
ATOM     27  C   UNL     1      -0.097   9.916  20.561  0.00  0.00    +0.000 A 
ATOM     28  C   UNL     1       1.057   9.279  20.108  0.00  0.00    +0.000 A 
ENDBRANCH  22  23
ENDBRANCH  21  22
ENDBRANCH  20  21
ENDBRANCH   8  20
TORSDOF 7
ENDMDL
MODEL 4
REMARK VINA RESULT:      -8.4      1.223      1.718
REMARK  Name = 
REMARK  7 active torsions:
REMARK  status: ('A' for Active; 'I' for Inactive)
REMARK    1  A    between atoms: C_2  and  O_4
REMARK    2  A    between atoms: O_4  and  C_5
REMARK    3  A    between atoms: C_8  and  C_9
REMARK    4  A    between atoms: C_16  and  C_17
REMARK    5  A    between atoms: C_17  and  C_18
REMARK    6  A    between atoms: C_18  and  C_19
REMARK    7  A    between atoms: C_19  and  C_20
REMARK                            x       y       z     vdW  Elec       q    Type
REMARK                         _______ _______ _______ _____ _____    ______ ____
ROOT
ATOM      1  C   UNL     1       3.966   3.160  18.065  0.00  0.00    +0.000 A 
ATOM      2  N   UNL     1       3.729   1.857  17.943  0.00  0.00    +0.000 NA
ATOM      3  N   UNL     1       2.884   1.453  18.940  0.00  0.00    +0.000 NA
ATOM      4  C   UNL     1       2.600   2.521  19.637  0.00  0.00    +0.000 A 
ATOM      5  C   UNL     1       1.789   2.598  20.807  0.00  0.00    +0.000 A 
ATOM      6  N   UNL     1       1.594   3.733  21.418  0.00  0.00    +0.000 NA
ATOM      7  C   UNL     1       2.163   4.858  20.862  0.00  0.00    +0.000 A 
ATOM      8  C   UNL     1       2.889   4.899  19.717  0.00  0.00    +0.000 A 
ATOM      9  N   UNL     1       3.183   3.656  19.112  0.00  0.00    +0.000 N 
ENDROOT
BRANCH   1  13
ATOM     10  C   UNL     1       6.807   4.986  15.430  0.00  0.00    +0.000 A 
ATOM     11  C   UNL     1       7.163   4.638  16.733  0.00  0.00    +0.000 A 
ATOM     12  C   UNL     1       6.218   4.067  17.594  0.00  0.00    +0.000 A 
ATOM     13  C   UNL     1       4.894   3.872  17.179  0.00  0.00    +0.000 A 
ATOM     14  C   UNL     1       4.515   4.402  15.941  0.00  0.00    +0.000 A 
ATOM     15  C   UNL     1       5.471   4.898  15.046  0.00  0.00    +0.000 A 
BRANCH  10  16
ATOM     16  O   UNL     1       7.827   5.435  14.641  0.00  0.00    +0.000 OA
BRANCH  16  18
ATOM     17  F   UNL     1       8.640   5.897  12.584  0.00  0.00    +0.000 F 
ATOM     18  C   UNL     1       7.549   5.444  13.249  0.00  0.00    +0.000 C 
ATOM     19  F   UNL     1       7.363   4.157  12.862  0.00  0.00    +0.000 F 
ENDBRANCH  16  18
ENDBRANCH  10  16
ENDBRANCH   1  13
BRANCH   8  20
ATOM     20  C   UNL     1       3.348   6.225  19.154  0.00  0.00    +0.000 C 
BRANCH  20  21
ATOM     21  C   UNL     1       2.517   6.871  18.041  0.00  0.00    +0.000 C 
BRANCH  21  22
ATOM     22  C   UNL     1       2.603   8.389  17.964  0.00  0.00    +0.000 C 
BRANCH  22  23
ATOM     23  C   UNL     1       1.445   9.015  18.692  0.00  0.00    +0.000 A 
ATOM     24  C   UNL     1       0.540   9.817  17.991  0.00  0.00    +0.000 A 
ATOM     25  C   UNL     1      -0.519  10.431  18.654  0.00  0.00    +0.000 A 
ATOM     26  C   UNL     1      -0.672  10.246  20.029  0.00  0.00    +0.000 A 
ATOM     27  C   UNL     1       0.229   9.458  20.736  0.00  0.00    +0.000 A 
ATOM     28  C   UNL     1       1.290   8.841  20.075  0.00  0.00    +0.000 A 
ENDBRANCH  22  23
ENDBRANCH  21  22
ENDBRANCH  20  21
ENDBRANCH   8  20
TORSDOF 7
ENDMDL
MODEL 5
REMARK VINA RESULT:      -8.2      2.726      3.310
REMARK  Name = 
REMARK  7 active torsions:
REMARK  status: ('A' for Active; 'I' for Inactive)
REMARK    1  A    between atoms: C_2  and  O_4
REMARK    2  A    between atoms: O_4  and  C_5
REMARK    3  A    between atoms: C_8  and  C_9
REMARK    4  A    between atoms: C_16  and  C_17
REMARK    5  A    between atoms: C_17  and  C_18
REMARK    6  A    between atoms: C_18  and  C_19
REMARK    7  A    between atoms: C_19  and  C_20
REMARK                            x       y       z     vdW  Elec       q    Type
REMARK                         _______ _______ _______ _____ _____    ______ ____
ROOT
ATOM      1  C   UNL     1       4.031   4.092  18.126  0.00  0.00    +0.000 A 
ATOM      2  N   UNL     1       4.101   2.970  17.414  0.00  0.00    +0.000 NA
ATOM      3  N   UNL     1       3.128   2.105  17.832  0.00  0.00    +0.000 NA
ATOM      4  C   UNL     1       2.465   2.722  18.772  0.00  0.00    +0.000 A 
ATOM      5  C   UNL     1       1.381   2.208  19.545  0.00  0.00    +0.000 A 
ATOM      6  N   UNL     1       0.811   2.930  20.468  0.00  0.00    +0.000 NA
ATOM      7  C   UNL     1       1.264   4.220  20.635  0.00  0.00    +0.000 A 
ATOM      8  C   UNL     1       2.237   4.822  19.904  0.00  0.00    +0.000 A 
ATOM      9  N   UNL     1       2.921   4.008  18.973  0.00  0.00    +0.000 N 
ENDROOT
BRANCH   1  13
ATOM     10  C   UNL     1       6.993   7.114  17.466  0.00  0.00    +0.000 A 
ATOM     11  C   UNL     1       7.224   6.072  18.363  0.00  0.00    +0.000 A 
ATOM     12  C   UNL     1       6.238   5.106  18.592  0.00  0.00    +0.000 A 
ATOM     13  C   UNL     1       4.992   5.187  17.957  0.00  0.00    +0.000 A 
ATOM     14  C   UNL     1       4.714   6.339  17.213  0.00  0.00    +0.000 A 
ATOM     15  C   UNL     1       5.723   7.265  16.915  0.00  0.00    +0.000 A 
BRANCH  10  16
ATOM     16  O   UNL     1       8.056   7.939  17.235  0.00  0.00    +0.000 OA
BRANCH  16  18
ATOM     17  F   UNL     1       9.076   8.848  19.035  0.00  0.00    +0.000 F 
ATOM     18  C   UNL     1       8.132   9.072  18.088  0.00  0.00    +0.000 C 
ATOM     19  F   UNL     1       8.571  10.116  17.340  0.00  0.00    +0.000 F 
ENDBRANCH  16  18
ENDBRANCH  10  16
ENDBRANCH   1  13
BRANCH   8  20
ATOM     20  C   UNL     1       2.548   6.287  20.112  0.00  0.00    +0.000 C 
BRANCH  20  21
ATOM     21  C   UNL     1       1.458   7.186  20.705  0.00  0.00    +0.000 C 
BRANCH  21  22
ATOM     22  C   UNL     1       1.474   8.630  20.224  0.00  0.00    +0.000 C 
BRANCH  22  23
ATOM     23  C   UNL     1       0.594   9.482  21.097  0.00  0.00    +0.000 A 
ATOM     24  C   UNL     1       0.438   9.157  22.447  0.00  0.00    +0.000 A 
ATOM     25  C   UNL     1      -0.399   9.914  23.262  0.00  0.00    +0.000 A 
ATOM     26  C   UNL     1      -1.089  11.001  22.724  0.00  0.00    +0.000 A 
ATOM     27  C   UNL     1      -0.947  11.325  21.379  0.00  0.00    +0.000 A 
ATOM     28  C   UNL     1      -0.110  10.569  20.560  0.00  0.00    +0.000 A 
ENDBRANCH  22  23
ENDBRANCH  21  22
ENDBRANCH  20  21
ENDBRANCH   8  20
TORSDOF 7
ENDMDL
MODEL 6
REMARK VINA RESULT:      -8.2      2.590      3.313
REMARK  Name = 
REMARK  7 active torsions:
REMARK  status: ('A' for Active; 'I' for Inactive)
REMARK    1  A    between atoms: C_2  and  O_4
REMARK    2  A    between atoms: O_4  and  C_5
REMARK    3  A    between atoms: C_8  and  C_9
REMARK    4  A    between atoms: C_16  and  C_17
REMARK    5  A    between atoms: C_17  and  C_18
REMARK    6  A    between atoms: C_18  and  C_19
REMARK    7  A    between atoms: C_19  and  C_20
REMARK                            x       y       z     vdW  Elec       q    Type
REMARK                         _______ _______ _______ _____ _____    ______ ____
ROOT
ATOM      1  C   UNL     1       4.032   3.823  18.136  0.00  0.00    +0.000 A 
ATOM      2  N   UNL     1       4.018   2.594  17.627  0.00  0.00    +0.000 NA
ATOM      3  N   UNL     1       2.963   1.898  18.149  0.00  0.00    +0.000 NA
ATOM      4  C   UNL     1       2.337   2.720  18.946  0.00  0.00    +0.000 A 
ATOM      5  C   UNL     1       1.196   2.440  19.755  0.00  0.00    +0.000 A 
ATOM      6  N   UNL     1       0.672   3.355  20.521  0.00  0.00    +0.000 NA
ATOM      7  C   UNL     1       1.234   4.612  20.483  0.00  0.00    +0.000 A 
ATOM      8  C   UNL     1       2.272   4.995  19.698  0.00  0.00    +0.000 A 
ATOM      9  N   UNL     1       2.901   3.979  18.944  0.00  0.00    +0.000 N 
ENDROOT
BRANCH   1  13
ATOM     10  C   UNL     1       6.944   6.850  17.298  0.00  0.00    +0.000 A 
ATOM     11  C   UNL     1       5.864   6.641  16.440  0.00  0.00    +0.000 A 
ATOM     12  C   UNL     1       4.935   5.631  16.710  0.00  0.00    +0.000 A 
ATOM     13  C   UNL     1       5.090   4.788  17.818  0.00  0.00    +0.000 A 
ATOM     14  C   UNL     1       6.277   4.891  18.552  0.00  0.00    +0.000 A 
ATOM     15  C   UNL     1       7.167   5.951  18.338  0.00  0.00    +0.000 A 
BRANCH  10  16
ATOM     16  O   UNL     1       7.730   7.928  17.004  0.00  0.00    +0.000 OA
BRANCH  16  18
ATOM     17  F   UNL     1       8.951   8.236  18.880  0.00  0.00    +0.000 F 
ATOM     18  C   UNL     1       7.994   8.793  18.098  0.00  0.00    +0.000 C 
ATOM     19  F   UNL     1       8.522   9.937  17.593  0.00  0.00    +0.000 F 
ENDBRANCH  16  18
ENDBRANCH  10  16
ENDBRANCH   1  13
BRANCH   8  20
ATOM     20  C   UNL     1       2.707   6.443  19.666  0.00  0.00    +0.000 C 
BRANCH  20  21
ATOM     21  C   UNL     1       1.675   7.522  20.011  0.00  0.00    +0.000 C 
BRANCH  21  22
ATOM     22  C   UNL     1       1.768   8.081  21.424  0.00  0.00    +0.000 C 
BRANCH  22  23
ATOM     23  C   UNL     1       0.786   9.205  21.607  0.00  0.00    +0.000 A 
ATOM     24  C   UNL     1       0.608  10.141  20.584  0.00  0.00    +0.000 A 
ATOM     25  C   UNL     1      -0.272  11.206  20.748  0.00  0.00    +0.000 A 
ATOM     26  C   UNL     1      -0.977  11.341  21.945  0.00  0.00    +0.000 A 
ATOM     27  C   UNL     1      -0.800  10.420  22.972  0.00  0.00    +0.000 A 
ATOM     28  C   UNL     1       0.081   9.351  22.810  0.00  0.00    +0.000 A 
ENDBRANCH  22  23
ENDBRANCH  21  22
ENDBRANCH  20  21
ENDBRANCH   8  20
TORSDOF 7
ENDMDL
MODEL 7
REMARK VINA RESULT:      -8.1      2.512      3.161
REMARK  Name = 
REMARK  7 active torsions:
REMARK  status: ('A' for Active; 'I' for Inactive)
REMARK    1  A    between atoms: C_2  and  O_4
REMARK    2  A    between atoms: O_4  and  C_5
REMARK    3  A    between atoms: C_8  and  C_9
REMARK    4  A    between atoms: C_16  and  C_17
REMARK    5  A    between atoms: C_17  and  C_18
REMARK    6  A    between atoms: C_18  and  C_19
REMARK    7  A    between atoms: C_19  and  C_20
REMARK                            x       y       z     vdW  Elec       q    Type
REMARK                         _______ _______ _______ _____ _____    ______ ____
ROOT
ATOM      1  C   UNL     1       3.991   3.788  18.154  0.00  0.00    +0.000 A 
ATOM      2  N   UNL     1       4.063   2.578  17.605  0.00  0.00    +0.000 NA
ATOM      3  N   UNL     1       3.082   1.782  18.128  0.00  0.00    +0.000 NA
ATOM      4  C   UNL     1       2.412   2.526  18.967  0.00  0.00    +0.000 A 
ATOM      5  C   UNL     1       1.318   2.129  19.792  0.00  0.00    +0.000 A 
ATOM      6  N   UNL     1       0.742   2.973  20.600  0.00  0.00    +0.000 NA
ATOM      7  C   UNL     1       1.200   4.273  20.590  0.00  0.00    +0.000 A 
ATOM      8  C   UNL     1       2.182   4.764  19.794  0.00  0.00    +0.000 A 
ATOM      9  N   UNL     1       2.873   3.826  18.992  0.00  0.00    +0.000 N 
ENDROOT
BRANCH   1  13
ATOM     10  C   UNL     1       6.971   6.680  17.106  0.00  0.00    +0.000 A 
ATOM     11  C   UNL     1       7.201   5.755  18.123  0.00  0.00    +0.000 A 
ATOM     12  C   UNL     1       6.209   4.833  18.476  0.00  0.00    +0.000 A 
ATOM     13  C   UNL     1       4.959   4.845  17.844  0.00  0.00    +0.000 A 
ATOM     14  C   UNL     1       4.684   5.900  16.966  0.00  0.00    +0.000 A 
ATOM     15  C   UNL     1       5.697   6.773  16.549  0.00  0.00    +0.000 A 
BRANCH  10  16
ATOM     16  O   UNL     1       8.038   7.462  16.768  0.00  0.00    +0.000 OA
BRANCH  16  18
ATOM     17  F   UNL     1       7.054   9.218  17.794  0.00  0.00    +0.000 F 
ATOM     18  C   UNL     1       8.241   8.593  17.603  0.00  0.00    +0.000 C 
ATOM     19  F   UNL     1       8.642   8.137  18.816  0.00  0.00    +0.000 F 
ENDBRANCH  16  18
ENDBRANCH  10  16
ENDBRANCH   1  13
BRANCH   8  20
ATOM     20  C   UNL     1       2.498   6.242  19.800  0.00  0.00    +0.000 C 
BRANCH  20  21
ATOM     21  C   UNL     1       1.637   7.169  20.665  0.00  0.00    +0.000 C 
BRANCH  21  22
ATOM     22  C   UNL     1       1.481   8.589  20.140  0.00  0.00    +0.000 C 
BRANCH  22  23
ATOM     23  C   UNL     1       0.600   9.391  21.057  0.00  0.00    +0.000 A 
ATOM     24  C   UNL     1      -0.052  10.528  20.570  0.00  0.00    +0.000 A 
ATOM     25  C   UNL     1      -0.845  11.301  21.413  0.00  0.00    +0.000 A 
ATOM     26  C   UNL     1      -0.985  10.939  22.754  0.00  0.00    +0.000 A 
ATOM     27  C   UNL     1      -0.333   9.815  23.249  0.00  0.00    +0.000 A 
ATOM     28  C   UNL     1       0.462   9.038  22.407  0.00  0.00    +0.000 A 
ENDBRANCH  22  23
ENDBRANCH  21  22
ENDBRANCH  20  21
ENDBRANCH   8  20
TORSDOF 7
ENDMDL
MODEL 8
REMARK VINA RESULT:      -8.1      0.413      1.448
REMARK  Name = 
REMARK  7 active torsions:
REMARK  status: ('A' for Active; 'I' for Inactive)
REMARK    1  A    between atoms: C_2  and  O_4
REMARK    2  A    between atoms: O_4  and  C_5
REMARK    3  A    between atoms: C_8  and  C_9
REMARK    4  A    between atoms: C_16  and  C_17
REMARK    5  A    between atoms: C_17  and  C_18
REMARK    6  A    between atoms: C_18  and  C_19
REMARK    7  A    between atoms: C_19  and  C_20
REMARK                            x       y       z     vdW  Elec       q    Type
REMARK                         _______ _______ _______ _____ _____    ______ ____
ROOT
ATOM      1  C   UNL     1       4.454   3.223  19.240  0.00  0.00    +0.000 A 
ATOM      2  N   UNL     1       5.107   2.377  20.033  0.00  0.00    +0.000 NA
ATOM      3  N   UNL     1       4.298   2.013  21.074  0.00  0.00    +0.000 NA
ATOM      4  C   UNL     1       3.157   2.620  20.884  0.00  0.00    +0.000 A 
ATOM      5  C   UNL     1       2.009   2.587  21.730  0.00  0.00    +0.000 A 
ATOM      6  N   UNL     1       0.931   3.253  21.428  0.00  0.00    +0.000 NA
ATOM      7  C   UNL     1       0.928   3.952  20.241  0.00  0.00    +0.000 A 
ATOM      8  C   UNL     1       1.940   3.988  19.338  0.00  0.00    +0.000 A 
ATOM      9  N   UNL     1       3.144   3.348  19.713  0.00  0.00    +0.000 N 
ENDROOT
BRANCH   1  13
ATOM     10  C   UNL     1       6.061   5.198  15.797  0.00  0.00    +0.000 A 
ATOM     11  C   UNL     1       5.113   4.185  15.660  0.00  0.00    +0.000 A 
ATOM     12  C   UNL     1       4.615   3.527  16.791  0.00  0.00    +0.000 A 
ATOM     13  C   UNL     1       5.086   3.845  18.072  0.00  0.00    +0.000 A 
ATOM     14  C   UNL     1       6.170   4.725  18.168  0.00  0.00    +0.000 A 
ATOM     15  C   UNL     1       6.614   5.445  17.051  0.00  0.00    +0.000 A 
BRANCH  10  16
ATOM     16  O   UNL     1       6.399   5.847  14.643  0.00  0.00    +0.000 OA
BRANCH  16  18
ATOM     17  F   UNL     1       8.268   5.504  13.420  0.00  0.00    +0.000 F 
ATOM     18  C   UNL     1       7.019   5.033  13.658  0.00  0.00    +0.000 C 
ATOM     19  F   UNL     1       7.164   3.792  14.187  0.00  0.00    +0.000 F 
ENDBRANCH  16  18
ENDBRANCH  10  16
ENDBRANCH   1  13
BRANCH   8  20
ATOM     20  C   UNL     1       1.754   4.696  18.014  0.00  0.00    +0.000 C 
BRANCH  20  21
ATOM     21  C   UNL     1       2.457   6.040  17.801  0.00  0.00    +0.000 C 
BRANCH  21  22
ATOM     22  C   UNL     1       2.884   6.758  19.074  0.00  0.00    +0.000 C 
BRANCH  22  23
ATOM     23  C   UNL     1       2.000   7.949  19.323  0.00  0.00    +0.000 A 
ATOM     24  C   UNL     1       1.728   8.839  18.280  0.00  0.00    +0.000 A 
ATOM     25  C   UNL     1       0.939   9.964  18.501  0.00  0.00    +0.000 A 
ATOM     26  C   UNL     1       0.421  10.205  19.774  0.00  0.00    +0.000 A 
ATOM     27  C   UNL     1       0.694   9.330  20.820  0.00  0.00    +0.000 A 
ATOM     28  C   UNL     1       1.484   8.202  20.602  0.00  0.00    +0.000 A 
ENDBRANCH  22  23
ENDBRANCH  21  22
ENDBRANCH  20  21
ENDBRANCH   8  20
TORSDOF 7
ENDMDL
MODEL 9
REMARK VINA RESULT:      -8.1      3.265      5.814
REMARK  Name = 
REMARK  7 active torsions:
REMARK  status: ('A' for Active; 'I' for Inactive)
REMARK    1  A    between atoms: C_2  and  O_4
REMARK    2  A    between atoms: O_4  and  C_5
REMARK    3  A    between atoms: C_8  and  C_9
REMARK    4  A    between atoms: C_16  and  C_17
REMARK    5  A    between atoms: C_17  and  C_18
REMARK    6  A    between atoms: C_18  and  C_19
REMARK    7  A    between atoms: C_19  and  C_20
REMARK                            x       y       z     vdW  Elec       q    Type
REMARK                         _______ _______ _______ _____ _____    ______ ____
ROOT
ATOM      1  C   UNL     1       3.527   5.239  19.232  0.00  0.00    +0.000 A 
ATOM      2  N   UNL     1       2.831   5.825  20.202  0.00  0.00    +0.000 NA
ATOM      3  N   UNL     1       1.708   5.091  20.464  0.00  0.00    +0.000 NA
ATOM      4  C   UNL     1       1.751   4.056  19.670  0.00  0.00    +0.000 A 
ATOM      5  C   UNL     1       0.775   3.022  19.543  0.00  0.00    +0.000 A 
ATOM      6  N   UNL     1       0.936   2.045  18.696  0.00  0.00    +0.000 NA
ATOM      7  C   UNL     1       2.103   2.025  17.964  0.00  0.00    +0.000 A 
ATOM      8  C   UNL     1       3.119   2.919  18.063  0.00  0.00    +0.000 A 
ATOM      9  N   UNL     1       2.900   4.031  18.907  0.00  0.00    +0.000 N 
ENDROOT
BRANCH   1  13
ATOM     10  C   UNL     1       7.032   7.208  17.756  0.00  0.00    +0.000 A 
ATOM     11  C   UNL     1       5.783   7.455  17.188  0.00  0.00    +0.000 A 
ATOM     12  C   UNL     1       4.649   6.785  17.661  0.00  0.00    +0.000 A 
ATOM     13  C   UNL     1       4.751   5.829  18.680  0.00  0.00    +0.000 A 
ATOM     14  C   UNL     1       6.034   5.460  19.100  0.00  0.00    +0.000 A 
ATOM     15  C   UNL     1       7.162   6.184  18.691  0.00  0.00    +0.000 A 
BRANCH  10  16
ATOM     16  O   UNL     1       8.052   7.991  17.297  0.00  0.00    +0.000 OA
BRANCH  16  18
ATOM     17  F   UNL     1       8.988   8.845  19.168  0.00  0.00    +0.000 F 
ATOM     18  C   UNL     1       8.290   9.170  18.052  0.00  0.00    +0.000 C 
ATOM     19  F   UNL     1       9.094   9.974  17.310  0.00  0.00    +0.000 F 
ENDBRANCH  16  18
ENDBRANCH  10  16
ENDBRANCH   1  13
BRANCH   8  20
ATOM     20  C   UNL     1       4.399   2.704  17.287  0.00  0.00    +0.000 C 
BRANCH  20  21
ATOM     21  C   UNL     1       4.647   3.561  16.041  0.00  0.00    +0.000 C 
BRANCH  21  22
ATOM     22  C   UNL     1       6.072   4.069  15.876  0.00  0.00    +0.000 C 
BRANCH  22  23
ATOM     23  C   UNL     1       6.421   4.181  14.418  0.00  0.00    +0.000 A 
ATOM     24  C   UNL     1       5.759   3.378  13.485  0.00  0.00    +0.000 A 
ATOM     25  C   UNL     1       6.092   3.444  12.135  0.00  0.00    +0.000 A 
ATOM     26  C   UNL     1       7.098   4.315  11.714  0.00  0.00    +0.000 A 
ATOM     27  C   UNL     1       7.769   5.110  12.636  0.00  0.00    +0.000 A 
ATOM     28  C   UNL     1       7.438   5.047  13.989  0.00  0.00    +0.000 A 
ENDBRANCH  22  23
ENDBRANCH  21  22
ENDBRANCH  20  21
ENDBRANCH   8  20
TORSDOF 7
ENDMDL
