MODEL 1
REMARK VINA RESULT:      -8.1      0.000      0.000
REMARK  Name = 
REMARK  4 active torsions:
REMARK  status: ('A' for Active; 'I' for Inactive)
REMARK    1  A    between atoms: C_2  and  C_3
REMARK    2  A    between atoms: C_3  and  C_4
REMARK    3  A    between atoms: N_11  and  C_12
REMARK    4  A    between atoms: C_17  and  N_18
REMARK                            x       y       z     vdW  Elec       q    Type
REMARK                         _______ _______ _______ _____ _____    ______ ____
ROOT
ATOM      1  C   UNL     1       2.466   4.559  18.094  0.00  0.00    +0.000 A 
ATOM      2  C   UNL     1       1.213   3.985  18.394  0.00  0.00    +0.000 A 
ATOM      3  C   UNL     1       1.066   2.611  18.548  0.00  0.00    +0.000 A 
ATOM      4  C   UNL     1       2.174   1.796  18.417  0.00  0.00    +0.000 A 
ATOM      5  C   UNL     1       3.427   2.360  18.147  0.00  0.00    +0.000 A 
ATOM      6  C   UNL     1       3.637   3.753  17.986  0.00  0.00    +0.000 A 
ENDROOT
BRANCH   6   7
ATOM      7  N   UNL     1       4.944   4.260  17.744  0.00  0.00    +0.000 N 
ATOM      8  C   UNL     1       5.919   4.276  18.846  0.00  0.00    +0.000 C 
ATOM      9  C   UNL     1       6.412   5.714  19.049  0.00  0.00    +0.000 C 
ATOM     10  C   UNL     1       7.475   6.158  18.049  0.00  0.00    +0.000 C 
ATOM     11  C   UNL     1       7.043   6.053  16.587  0.00  0.00    +0.000 C 
ATOM     12  C   UNL     1       6.892   4.606  16.134  0.00  0.00    +0.000 C 
ATOM     13  C   UNL     1       5.516   3.997  16.404  0.00  0.00    +0.000 C 
ENDBRANCH   6   7
BRANCH   1  16
ATOM     14  O   UNL     1       2.760   6.762  19.916  0.00  0.00    +0.000 OA
ATOM     15  C   UNL     1       2.570   6.945  18.714  0.00  0.00    +0.000 C 
ATOM     16  N   UNL     1       2.477   5.938  17.765  0.00  0.00    +0.000 N 
ATOM     17  H   UNL     1       2.752   6.155  16.819  0.00  0.00    +0.000 HD
BRANCH  15  18
ATOM     18  C   UNL     1       2.413   8.347  18.153  0.00  0.00    +0.000 C 
BRANCH  18  19
ATOM     19  C   UNL     1       1.249   9.165  18.667  0.00  0.00    +0.000 A 
ATOM     20  C   UNL     1       1.078   9.488  20.023  0.00  0.00    +0.000 A 
ATOM     21  C   UNL     1      -0.038  10.223  20.446  0.00  0.00    +0.000 A 
ATOM     22  C   UNL     1      -1.013  10.618  19.528  0.00  0.00    +0.000 A 
ATOM     23  C   UNL     1      -0.880  10.257  18.190  0.00  0.00    +0.000 A 
ATOM     24 CL   UNL     1      -2.091  10.703  17.055  0.00  0.00    +0.000 Cl
ATOM     25  C   UNL     1       0.236   9.534  17.764  0.00  0.00    +0.000 A 
ENDBRANCH  18  19
ENDBRANCH  15  18
ENDBRANCH   1  16
TORSDOF 4
ENDMDL
MODEL 2
REMARK VINA RESULT:      -8.1      1.226      1.556
REMARK  Name = 
REMARK  4 active torsions:
REMARK  status: ('A' for Active; 'I' for Inactive)
REMARK    1  A    between atoms: C_2  and  C_3
REMARK    2  A    between atoms: C_3  and  C_4
REMARK    3  A    between atoms: N_11  and  C_12
REMARK    4  A    between atoms: C_17  and  N_18
REMARK                            x       y       z     vdW  Elec       q    Type
REMARK                         _______ _______ _______ _____ _____    ______ ____
ROOT
ATOM      1  C   UNL     1       2.449   4.448  18.105  0.00  0.00    +0.000 A 
ATOM      2  C   UNL     1       1.214   3.860  18.451  0.00  0.00    +0.000 A 
ATOM      3  C   UNL     1       1.084   2.483  18.594  0.00  0.00    +0.000 A 
ATOM      4  C   UNL     1       2.193   1.679  18.406  0.00  0.00    +0.000 A 
ATOM      5  C   UNL     1       3.428   2.257  18.091  0.00  0.00    +0.000 A 
ATOM      6  C   UNL     1       3.620   3.654  17.938  0.00  0.00    +0.000 A 
ENDROOT
BRANCH   6   7
ATOM      7  N   UNL     1       4.912   4.175  17.647  0.00  0.00    +0.000 N 
ATOM      8  C   UNL     1       5.911   4.246  18.724  0.00  0.00    +0.000 C 
ATOM      9  C   UNL     1       6.384   5.699  18.867  0.00  0.00    +0.000 C 
ATOM     10  C   UNL     1       7.414   6.126  17.826  0.00  0.00    +0.000 C 
ATOM     11  C   UNL     1       6.949   5.964  16.380  0.00  0.00    +0.000 C 
ATOM     12  C   UNL     1       6.815   4.499  15.981  0.00  0.00    +0.000 C 
ATOM     13  C   UNL     1       5.457   3.876  16.304  0.00  0.00    +0.000 C 
ENDBRANCH   6   7
BRANCH   1  16
ATOM     14  O   UNL     1       3.099   6.619  19.872  0.00  0.00    +0.000 OA
ATOM     15  C   UNL     1       2.710   6.823  18.722  0.00  0.00    +0.000 C 
ATOM     16  N   UNL     1       2.435   5.831  17.793  0.00  0.00    +0.000 N 
ATOM     17  H   UNL     1       2.548   6.055  16.816  0.00  0.00    +0.000 HD
BRANCH  15  18
ATOM     18  C   UNL     1       2.492   8.235  18.210  0.00  0.00    +0.000 C 
BRANCH  18  19
ATOM     19  C   UNL     1       1.315   8.996  18.779  0.00  0.00    +0.000 A 
ATOM     20  C   UNL     1       0.458   9.783  17.993  0.00  0.00    +0.000 A 
ATOM     21  C   UNL     1      -0.599  10.492  18.581  0.00  0.00    +0.000 A 
ATOM     22  C   UNL     1      -0.797  10.448  19.962  0.00  0.00    +0.000 A 
ATOM     23  C   UNL     1       0.078   9.713  20.756  0.00  0.00    +0.000 A 
ATOM     24 CL   UNL     1      -0.130   9.681  22.463  0.00  0.00    +0.000 Cl
ATOM     25  C   UNL     1       1.127   8.998  20.173  0.00  0.00    +0.000 A 
ENDBRANCH  18  19
ENDBRANCH  15  18
ENDBRANCH   1  16
TORSDOF 4
ENDMDL
MODEL 3
REMARK VINA RESULT:      -8.0      1.927      2.184
REMARK  Name = 
REMARK  4 active torsions:
REMARK  status: ('A' for Active; 'I' for Inactive)
REMARK    1  A    between atoms: C_2  and  C_3
REMARK    2  A    between atoms: C_3  and  C_4
REMARK    3  A    between atoms: N_11  and  C_12
REMARK    4  A    between atoms: C_17  and  N_18
REMARK                            x       y       z     vdW  Elec       q    Type
REMARK                         _______ _______ _______ _____ _____    ______ ____
ROOT
ATOM      1  C   UNL     1       3.207   4.864  20.103  0.00  0.00    +0.000 A 
ATOM      2  C   UNL     1       2.405   4.416  21.172  0.00  0.00    +0.000 A 
ATOM      3  C   UNL     1       2.343   3.070  21.515  0.00  0.00    +0.000 A 
ATOM      4  C   UNL     1       3.094   2.157  20.799  0.00  0.00    +0.000 A 
ATOM      5  C   UNL     1       3.916   2.597  19.754  0.00  0.00    +0.000 A 
ATOM      6  C   UNL     1       4.023   3.957  19.365  0.00  0.00    +0.000 A 
ENDROOT
BRANCH   6   7
ATOM      7  N   UNL     1       4.901   4.337  18.312  0.00  0.00    +0.000 N 
ATOM      8  C   UNL     1       6.316   4.591  18.622  0.00  0.00    +0.000 C 
ATOM      9  C   UNL     1       6.673   6.015  18.174  0.00  0.00    +0.000 C 
ATOM     10  C   UNL     1       6.933   6.153  16.677  0.00  0.00    +0.000 C 
ATOM     11  C   UNL     1       5.770   5.702  15.795  0.00  0.00    +0.000 C 
ATOM     12  C   UNL     1       5.557   4.194  15.852  0.00  0.00    +0.000 C 
ATOM     13  C   UNL     1       4.649   3.725  16.988  0.00  0.00    +0.000 C 
ENDBRANCH   6   7
BRANCH   1  16
ATOM     14  O   UNL     1       1.837   5.834  17.771  0.00  0.00    +0.000 OA
ATOM     15  C   UNL     1       2.422   6.600  18.536  0.00  0.00    +0.000 C 
ATOM     16  N   UNL     1       3.054   6.217  19.709  0.00  0.00    +0.000 N 
ATOM     17  H   UNL     1       3.115   6.894  20.455  0.00  0.00    +0.000 HD
BRANCH  15  18
ATOM     18  C   UNL     1       2.502   8.088  18.241  0.00  0.00    +0.000 C 
BRANCH  18  19
ATOM     19  C   UNL     1       1.403   8.959  18.810  0.00  0.00    +0.000 A 
ATOM     20  C   UNL     1       0.678   9.879  18.037  0.00  0.00    +0.000 A 
ATOM     21  C   UNL     1      -0.309  10.683  18.625  0.00  0.00    +0.000 A 
ATOM     22  C   UNL     1      -0.564  10.600  19.995  0.00  0.00    +0.000 A 
ATOM     23  C   UNL     1       0.185   9.727  20.778  0.00  0.00    +0.000 A 
ATOM     24 CL   UNL     1      -0.091   9.642  22.473  0.00  0.00    +0.000 Cl
ATOM     25  C   UNL     1       1.162   8.919  20.195  0.00  0.00    +0.000 A 
ENDBRANCH  18  19
ENDBRANCH  15  18
ENDBRANCH   1  16
TORSDOF 4
ENDMDL
MODEL 4
REMARK VINA RESULT:      -8.0      1.391      1.884
REMARK  Name = 
REMARK  4 active torsions:
REMARK  status: ('A' for Active; 'I' for Inactive)
REMARK    1  A    between atoms: C_2  and  C_3
REMARK    2  A    between atoms: C_3  and  C_4
REMARK    3  A    between atoms: N_11  and  C_12
REMARK    4  A    between atoms: C_17  and  N_18
REMARK                            x       y       z     vdW  Elec       q    Type
REMARK                         _______ _______ _______ _____ _____    ______ ____
ROOT
ATOM      1  C   UNL     1       2.538   5.296  19.286  0.00  0.00    +0.000 A 
ATOM      2  C   UNL     1       1.420   4.952  20.074  0.00  0.00    +0.000 A 
ATOM      3  C   UNL     1       1.357   3.736  20.747  0.00  0.00    +0.000 A 
ATOM      4  C   UNL     1       2.419   2.857  20.649  0.00  0.00    +0.000 A 
ATOM      5  C   UNL     1       3.545   3.203  19.892  0.00  0.00    +0.000 A 
ATOM      6  C   UNL     1       3.666   4.430  19.190  0.00  0.00    +0.000 A 
ENDROOT
BRANCH   6   7
ATOM      7  N   UNL     1       4.852   4.729  18.465  0.00  0.00    +0.000 N 
ATOM      8  C   UNL     1       4.749   5.058  17.035  0.00  0.00    +0.000 C 
ATOM      9  C   UNL     1       5.625   4.082  16.238  0.00  0.00    +0.000 C 
ATOM     10  C   UNL     1       7.112   4.423  16.251  0.00  0.00    +0.000 C 
ATOM     11  C   UNL     1       7.723   4.507  17.649  0.00  0.00    +0.000 C 
ATOM     12  C   UNL     1       7.206   5.709  18.430  0.00  0.00    +0.000 C 
ATOM     13  C   UNL     1       5.911   5.455  19.201  0.00  0.00    +0.000 C 
ENDBRANCH   6   7
BRANCH   1  16
ATOM     14  O   UNL     1       2.050   7.973  20.209  0.00  0.00    +0.000 OA
ATOM     15  C   UNL     1       2.133   7.714  19.009  0.00  0.00    +0.000 C 
ATOM     16  N   UNL     1       2.424   6.462  18.488  0.00  0.00    +0.000 N 
ATOM     17  H   UNL     1       2.885   6.420  17.592  0.00  0.00    +0.000 HD
BRANCH  15  18
ATOM     18  C   UNL     1       1.912   8.790  17.960  0.00  0.00    +0.000 C 
BRANCH  18  19
ATOM     19  C   UNL     1       0.837   9.816  18.248  0.00  0.00    +0.000 A 
ATOM     20  C   UNL     1       1.080  11.001  18.961  0.00  0.00    +0.000 A 
ATOM     21  C   UNL     1       0.038  11.901  19.225  0.00  0.00    +0.000 A 
ATOM     22  C   UNL     1      -1.263  11.617  18.807  0.00  0.00    +0.000 A 
ATOM     23  C   UNL     1      -1.524  10.421  18.144  0.00  0.00    +0.000 A 
ATOM     24 CL   UNL     1      -3.128  10.040  17.658  0.00  0.00    +0.000 Cl
ATOM     25  C   UNL     1      -0.486   9.527  17.872  0.00  0.00    +0.000 A 
ENDBRANCH  18  19
ENDBRANCH  15  18
ENDBRANCH   1  16
TORSDOF 4
ENDMDL
MODEL 5
REMARK VINA RESULT:      -8.0      1.907      2.464
REMARK  Name = 
REMARK  4 active torsions:
REMARK  status: ('A' for Active; 'I' for Inactive)
REMARK    1  A    between atoms: C_2  and  C_3
REMARK    2  A    between atoms: C_3  and  C_4
REMARK    3  A    between atoms: N_11  and  C_12
REMARK    4  A    between atoms: C_17  and  N_18
REMARK                            x       y       z     vdW  Elec       q    Type
REMARK                         _______ _______ _______ _____ _____    ______ ____
ROOT
ATOM      1  C   UNL     1       3.107   4.906  20.176  0.00  0.00    +0.000 A 
ATOM      2  C   UNL     1       2.165   4.404  21.098  0.00  0.00    +0.000 A 
ATOM      3  C   UNL     1       2.081   3.045  21.378  0.00  0.00    +0.000 A 
ATOM      4  C   UNL     1       2.949   2.173  20.749  0.00  0.00    +0.000 A 
ATOM      5  C   UNL     1       3.906   2.666  19.854  0.00  0.00    +0.000 A 
ATOM      6  C   UNL     1       4.041   4.041  19.535  0.00  0.00    +0.000 A 
ENDROOT
BRANCH   6   7
ATOM      7  N   UNL     1       5.057   4.475  18.639  0.00  0.00    +0.000 N 
ATOM      8  C   UNL     1       4.693   4.795  17.249  0.00  0.00    +0.000 C 
ATOM      9  C   UNL     1       5.535   3.927  16.305  0.00  0.00    +0.000 C 
ATOM     10  C   UNL     1       6.959   4.435  16.092  0.00  0.00    +0.000 C 
ATOM     11  C   UNL     1       7.769   4.584  17.379  0.00  0.00    +0.000 C 
ATOM     12  C   UNL     1       7.251   5.717  18.256  0.00  0.00    +0.000 C 
ATOM     13  C   UNL     1       6.131   5.315  19.215  0.00  0.00    +0.000 C 
ENDBRANCH   6   7
BRANCH   1  16
ATOM     14  O   UNL     1       1.643   5.970  17.943  0.00  0.00    +0.000 OA
ATOM     15  C   UNL     1       2.301   6.699  18.684  0.00  0.00    +0.000 C 
ATOM     16  N   UNL     1       2.984   6.271  19.813  0.00  0.00    +0.000 N 
ATOM     17  H   UNL     1       3.115   6.931  20.564  0.00  0.00    +0.000 HD
BRANCH  15  18
ATOM     18  C   UNL     1       2.423   8.187  18.409  0.00  0.00    +0.000 C 
BRANCH  18  19
ATOM     19  C   UNL     1       1.313   9.073  18.930  0.00  0.00    +0.000 A 
ATOM     20  C   UNL     1       0.616   9.985  18.121  0.00  0.00    +0.000 A 
ATOM     21  C   UNL     1      -0.384  10.804  18.666  0.00  0.00    +0.000 A 
ATOM     22  C   UNL     1      -0.679  10.744  20.029  0.00  0.00    +0.000 A 
ATOM     23  C   UNL     1       0.041   9.881  20.849  0.00  0.00    +0.000 A 
ATOM     24 CL   UNL     1      -0.286   9.826  22.536  0.00  0.00    +0.000 Cl
ATOM     25  C   UNL     1       1.031   9.058  20.308  0.00  0.00    +0.000 A 
ENDBRANCH  18  19
ENDBRANCH  15  18
ENDBRANCH   1  16
TORSDOF 4
ENDMDL
MODEL 6
REMARK VINA RESULT:      -8.0      1.498      1.562
REMARK  Name = 
REMARK  4 active torsions:
REMARK  status: ('A' for Active; 'I' for Inactive)
REMARK    1  A    between atoms: C_2  and  C_3
REMARK    2  A    between atoms: C_3  and  C_4
REMARK    3  A    between atoms: N_11  and  C_12
REMARK    4  A    between atoms: C_17  and  N_18
REMARK                            x       y       z     vdW  Elec       q    Type
REMARK                         _______ _______ _______ _____ _____    ______ ____
ROOT
ATOM      1  C   UNL     1       3.060   5.004  20.126  0.00  0.00    +0.000 A 
ATOM      2  C   UNL     1       2.257   4.586  21.208  0.00  0.00    +0.000 A 
ATOM      3  C   UNL     1       2.162   3.244  21.560  0.00  0.00    +0.000 A 
ATOM      4  C   UNL     1       2.881   2.307  20.842  0.00  0.00    +0.000 A 
ATOM      5  C   UNL     1       3.702   2.717  19.786  0.00  0.00    +0.000 A 
ATOM      6  C   UNL     1       3.842   4.071  19.386  0.00  0.00    +0.000 A 
ENDROOT
BRANCH   6   7
ATOM      7  N   UNL     1       4.719   4.419  18.322  0.00  0.00    +0.000 N 
ATOM      8  C   UNL     1       6.121   4.740  18.629  0.00  0.00    +0.000 C 
ATOM      9  C   UNL     1       6.435   6.147  18.104  0.00  0.00    +0.000 C 
ATOM     10  C   UNL     1       6.707   6.208  16.604  0.00  0.00    +0.000 C 
ATOM     11  C   UNL     1       5.570   5.667  15.738  0.00  0.00    +0.000 C 
ATOM     12  C   UNL     1       5.407   4.158  15.880  0.00  0.00    +0.000 C 
ATOM     13  C   UNL     1       4.503   3.724  17.033  0.00  0.00    +0.000 C 
ENDBRANCH   6   7
BRANCH   1  16
ATOM     14  O   UNL     1       1.795   5.988  17.741  0.00  0.00    +0.000 OA
ATOM     15  C   UNL     1       2.359   6.747  18.527  0.00  0.00    +0.000 C 
ATOM     16  N   UNL     1       2.939   6.359  19.725  0.00  0.00    +0.000 N 
ATOM     17  H   UNL     1       2.979   7.036  20.471  0.00  0.00    +0.000 HD
BRANCH  15  18
ATOM     18  C   UNL     1       2.469   8.233  18.234  0.00  0.00    +0.000 C 
BRANCH  18  19
ATOM     19  C   UNL     1       1.324   9.109  18.693  0.00  0.00    +0.000 A 
ATOM     20  C   UNL     1       1.162   9.523  20.025  0.00  0.00    +0.000 A 
ATOM     21  C   UNL     1       0.063  10.309  20.399  0.00  0.00    +0.000 A 
ATOM     22  C   UNL     1      -0.902  10.667  19.456  0.00  0.00    +0.000 A 
ATOM     23  C   UNL     1      -0.778  10.219  18.145  0.00  0.00    +0.000 A 
ATOM     24 CL   UNL     1      -1.980  10.619  16.982  0.00  0.00    +0.000 Cl
ATOM     25  C   UNL     1       0.320   9.443  17.767  0.00  0.00    +0.000 A 
ENDBRANCH  18  19
ENDBRANCH  15  18
ENDBRANCH   1  16
TORSDOF 4
ENDMDL
MODEL 7
REMARK VINA RESULT:      -7.9      1.296      1.399
REMARK  Name = 
REMARK  4 active torsions:
REMARK  status: ('A' for Active; 'I' for Inactive)
REMARK    1  A    between atoms: C_2  and  C_3
REMARK    2  A    between atoms: C_3  and  C_4
REMARK    3  A    between atoms: N_11  and  C_12
REMARK    4  A    between atoms: C_17  and  N_18
REMARK                            x       y       z     vdW  Elec       q    Type
REMARK                         _______ _______ _______ _____ _____    ______ ____
ROOT
ATOM      1  C   UNL     1       2.487   5.239  19.182  0.00  0.00    +0.000 A 
ATOM      2  C   UNL     1       1.447   5.010  20.106  0.00  0.00    +0.000 A 
ATOM      3  C   UNL     1       1.342   3.804  20.792  0.00  0.00    +0.000 A 
ATOM      4  C   UNL     1       2.287   2.820  20.570  0.00  0.00    +0.000 A 
ATOM      5  C   UNL     1       3.339   3.050  19.676  0.00  0.00    +0.000 A 
ATOM      6  C   UNL     1       3.498   4.261  18.954  0.00  0.00    +0.000 A 
ENDROOT
BRANCH   6   7
ATOM      7  N   UNL     1       4.609   4.438  18.084  0.00  0.00    +0.000 N 
ATOM      8  C   UNL     1       5.943   4.656  18.666  0.00  0.00    +0.000 C 
ATOM      9  C   UNL     1       6.506   5.980  18.132  0.00  0.00    +0.000 C 
ATOM     10  C   UNL     1       7.090   5.889  16.726  0.00  0.00    +0.000 C 
ATOM     11  C   UNL     1       6.107   5.382  15.671  0.00  0.00    +0.000 C 
ATOM     12  C   UNL     1       5.760   3.911  15.870  0.00  0.00    +0.000 C 
ATOM     13  C   UNL     1       4.594   3.659  16.826  0.00  0.00    +0.000 C 
ENDBRANCH   6   7
BRANCH   1  16
ATOM     14  O   UNL     1       2.129   7.927  20.134  0.00  0.00    +0.000 OA
ATOM     15  C   UNL     1       2.168   7.673  18.931  0.00  0.00    +0.000 C 
ATOM     16  N   UNL     1       2.396   6.415  18.394  0.00  0.00    +0.000 N 
ATOM     17  H   UNL     1       2.830   6.361  17.485  0.00  0.00    +0.000 HD
BRANCH  15  18
ATOM     18  C   UNL     1       1.960   8.764  17.895  0.00  0.00    +0.000 C 
BRANCH  18  19
ATOM     19  C   UNL     1       0.879   9.783  18.182  0.00  0.00    +0.000 A 
ATOM     20  C   UNL     1       1.116  10.974  18.886  0.00  0.00    +0.000 A 
ATOM     21  C   UNL     1       0.068  11.868  19.150  0.00  0.00    +0.000 A 
ATOM     22  C   UNL     1      -1.233  11.570  18.741  0.00  0.00    +0.000 A 
ATOM     23  C   UNL     1      -1.487  10.368  18.088  0.00  0.00    +0.000 A 
ATOM     24 CL   UNL     1      -3.091   9.971  17.613  0.00  0.00    +0.000 Cl
ATOM     25  C   UNL     1      -0.444   9.480  17.815  0.00  0.00    +0.000 A 
ENDBRANCH  18  19
ENDBRANCH  15  18
ENDBRANCH   1  16
TORSDOF 4
ENDMDL
MODEL 8
REMARK VINA RESULT:      -7.9      1.455      1.914
REMARK  Name = 
REMARK  4 active torsions:
REMARK  status: ('A' for Active; 'I' for Inactive)
REMARK    1  A    between atoms: C_2  and  C_3
REMARK    2  A    between atoms: C_3  and  C_4
REMARK    3  A    between atoms: N_11  and  C_12
REMARK    4  A    between atoms: C_17  and  N_18
REMARK                            x       y       z     vdW  Elec       q    Type
REMARK                         _______ _______ _______ _____ _____    ______ ____
ROOT
ATOM      1  C   UNL     1       3.031   5.025  20.132  0.00  0.00    +0.000 A 
ATOM      2  C   UNL     1       2.072   4.549  21.050  0.00  0.00    +0.000 A 
ATOM      3  C   UNL     1       1.978   3.197  21.361  0.00  0.00    +0.000 A 
ATOM      4  C   UNL     1       2.853   2.307  20.769  0.00  0.00    +0.000 A 
ATOM      5  C   UNL     1       3.827   2.775  19.878  0.00  0.00    +0.000 A 
ATOM      6  C   UNL     1       3.973   4.142  19.528  0.00  0.00    +0.000 A 
ENDROOT
BRANCH   6   7
ATOM      7  N   UNL     1       5.005   4.551  18.640  0.00  0.00    +0.000 N 
ATOM      8  C   UNL     1       4.659   4.885  17.249  0.00  0.00    +0.000 C 
ATOM      9  C   UNL     1       5.483   3.997  16.307  0.00  0.00    +0.000 C 
ATOM     10  C   UNL     1       6.921   4.466  16.105  0.00  0.00    +0.000 C 
ATOM     11  C   UNL     1       7.728   4.589  17.396  0.00  0.00    +0.000 C 
ATOM     12  C   UNL     1       7.236   5.733  18.275  0.00  0.00    +0.000 C 
ATOM     13  C   UNL     1       6.099   5.359  19.225  0.00  0.00    +0.000 C 
ENDBRANCH   6   7
BRANCH   1  16
ATOM     14  O   UNL     1       1.598   6.041  17.858  0.00  0.00    +0.000 OA
ATOM     15  C   UNL     1       2.252   6.785  18.588  0.00  0.00    +0.000 C 
ATOM     16  N   UNL     1       2.920   6.382  19.735  0.00  0.00    +0.000 N 
ATOM     17  H   UNL     1       3.046   7.060  20.471  0.00  0.00    +0.000 HD
BRANCH  15  18
ATOM     18  C   UNL     1       2.385   8.265  18.278  0.00  0.00    +0.000 C 
BRANCH  18  19
ATOM     19  C   UNL     1       1.275   9.170  18.766  0.00  0.00    +0.000 A 
ATOM     20  C   UNL     1       1.142   9.567  20.106  0.00  0.00    +0.000 A 
ATOM     21  C   UNL     1       0.074  10.382  20.507  0.00  0.00    +0.000 A 
ATOM     22  C   UNL     1      -0.890  10.787  19.582  0.00  0.00    +0.000 A 
ATOM     23  C   UNL     1      -0.796  10.356  18.262  0.00  0.00    +0.000 A 
ATOM     24 CL   UNL     1      -1.998  10.815  17.121  0.00  0.00    +0.000 Cl
ATOM     25  C   UNL     1       0.271   9.552  17.858  0.00  0.00    +0.000 A 
ENDBRANCH  18  19
ENDBRANCH  15  18
ENDBRANCH   1  16
TORSDOF 4
ENDMDL
MODEL 9
REMARK VINA RESULT:      -7.9      0.643      1.405
REMARK  Name = 
REMARK  4 active torsions:
REMARK  status: ('A' for Active; 'I' for Inactive)
REMARK    1  A    between atoms: C_2  and  C_3
REMARK    2  A    between atoms: C_3  and  C_4
REMARK    3  A    between atoms: N_11  and  C_12
REMARK    4  A    between atoms: C_17  and  N_18
REMARK                            x       y       z     vdW  Elec       q    Type
REMARK                         _______ _______ _______ _____ _____    ______ ____
ROOT
ATOM      1  C   UNL     1       2.312   4.511  18.306  0.00  0.00    +0.000 A 
ATOM      2  C   UNL     1       1.116   3.908  18.746  0.00  0.00    +0.000 A 
ATOM      3  C   UNL     1       1.047   2.542  19.000  0.00  0.00    +0.000 A 
ATOM      4  C   UNL     1       2.178   1.767  18.830  0.00  0.00    +0.000 A 
ATOM      5  C   UNL     1       3.377   2.363  18.420  0.00  0.00    +0.000 A 
ATOM      6  C   UNL     1       3.507   3.750  18.152  0.00  0.00    +0.000 A 
ENDROOT
BRANCH   6   7
ATOM      7  N   UNL     1       4.764   4.294  17.769  0.00  0.00    +0.000 N 
ATOM      8  C   UNL     1       4.916   4.856  16.418  0.00  0.00    +0.000 C 
ATOM      9  C   UNL     1       6.067   4.131  15.707  0.00  0.00    +0.000 C 
ATOM     10  C   UNL     1       7.456   4.617  16.110  0.00  0.00    +0.000 C 
ATOM     11  C   UNL     1       7.744   4.519  17.607  0.00  0.00    +0.000 C 
ATOM     12  C   UNL     1       6.913   5.505  18.418  0.00  0.00    +0.000 C 
ATOM     13  C   UNL     1       5.534   4.987  18.827  0.00  0.00    +0.000 C 
ENDBRANCH   6   7
BRANCH   1  16
ATOM     14  O   UNL     1       2.769   6.843  19.923  0.00  0.00    +0.000 OA
ATOM     15  C   UNL     1       2.414   6.936  18.749  0.00  0.00    +0.000 C 
ATOM     16  N   UNL     1       2.230   5.864  17.889  0.00  0.00    +0.000 N 
ATOM     17  H   UNL     1       2.368   6.021  16.902  0.00  0.00    +0.000 HD
BRANCH  15  18
ATOM     18  C   UNL     1       2.135   8.292  18.123  0.00  0.00    +0.000 C 
BRANCH  18  19
ATOM     19  C   UNL     1       1.127   9.176  18.824  0.00  0.00    +0.000 A 
ATOM     20  C   UNL     1       0.987   9.220  20.221  0.00  0.00    +0.000 A 
ATOM     21  C   UNL     1       0.013  10.036  20.815  0.00  0.00    +0.000 A 
ATOM     22  C   UNL     1      -0.852  10.793  20.023  0.00  0.00    +0.000 A 
ATOM     23  C   UNL     1      -0.755  10.716  18.636  0.00  0.00    +0.000 A 
ATOM     24 CL   UNL     1      -1.839  11.613  17.648  0.00  0.00    +0.000 Cl
ATOM     25  C   UNL     1       0.219   9.912  18.042  0.00  0.00    +0.000 A 
ENDBRANCH  18  19
ENDBRANCH  15  18
ENDBRANCH   1  16
TORSDOF 4
ENDMDL
