MODEL 1
REMARK VINA RESULT:      -7.9      0.000      0.000
REMARK  Name = 
REMARK  9 active torsions:
REMARK  status: ('A' for Active; 'I' for Inactive)
REMARK    1  A    between atoms: C_1  and  N_2
REMARK    2  A    between atoms: N_2  and  C_3
REMARK    3  A    between atoms: C_3  and  C_4
REMARK    4  A    between atoms: C_4  and  C_5
REMARK    5  A    between atoms: C_8  and  C_9
REMARK    6  A    between atoms: C_9  and  N_10
REMARK    7  A    between atoms: C_18  and  O_20
REMARK    8  A    between atoms: O_20  and  C_21
REMARK    9  A    between atoms: C_24  and  C_25
REMARK                            x       y       z     vdW  Elec       q    Type
REMARK                         _______ _______ _______ _____ _____    ______ ____
ROOT
ATOM      1  C   UNL     1       0.172   9.542  23.621  0.00  0.00    +0.000 C 
ATOM      2  N   UNL     1       0.287   9.905  22.227  0.00  0.00    +0.000 N 
ATOM      3  C   UNL     1      -0.226  11.137  21.829  0.00  0.00    +0.000 C 
ATOM      4  O   UNL     1      -0.868  11.875  22.568  0.00  0.00    +0.000 OA
ENDROOT
BRANCH   2   5
ATOM      5  C   UNL     1       1.156   9.120  21.363  0.00  0.00    +0.000 C 
BRANCH   5   6
ATOM      6  C   UNL     1       0.772   7.636  21.297  0.00  0.00    +0.000 C 
BRANCH   6   7
ATOM      7  C   UNL     1       1.819   6.799  20.533  0.00  0.00    +0.000 C 
ATOM      8  C   UNL     1       1.456   5.305  20.549  0.00  0.00    +0.000 C 
ATOM      9  C   UNL     1       2.399   4.463  19.707  0.00  0.00    +0.000 C 
ATOM     10  C   UNL     1       2.473   4.991  18.271  0.00  0.00    +0.000 C 
ATOM     11  C   UNL     1       2.939   6.452  18.275  0.00  0.00    +0.000 C 
ATOM     12  C   UNL     1       1.969   7.313  19.089  0.00  0.00    +0.000 C 
BRANCH  10  13
ATOM     13  C   UNL     1       3.378   4.103  17.397  0.00  0.00    +0.000 C 
BRANCH  13  14
ATOM     14  N   UNL     1       4.700   4.705  17.140  0.00  0.00    +0.000 NA
ATOM     15  C   UNL     1       5.719   4.259  18.103  0.00  0.00    +0.000 C 
ATOM     16  C   UNL     1       7.063   4.938  17.854  0.00  0.00    +0.000 C 
ATOM     17  C   UNL     1       7.539   4.702  16.430  0.00  0.00    +0.000 C 
ATOM     18  C   UNL     1       6.455   5.110  15.439  0.00  0.00    +0.000 C 
ATOM     19  C   UNL     1       5.123   4.431  15.760  0.00  0.00    +0.000 C 
ENDBRANCH  13  14
ENDBRANCH  10  13
ENDBRANCH   6   7
ENDBRANCH   5   6
ENDBRANCH   2   5
BRANCH   3  20
ATOM     20  O   UNL     1       0.081  11.434  20.504  0.00  0.00    +0.000 OA
BRANCH  20  21
ATOM     21  C   UNL     1      -0.855  11.194  19.476  0.00  0.00    +0.000 A 
ATOM     22  C   UNL     1      -0.438  10.267  18.517  0.00  0.00    +0.000 A 
ATOM     23  C   UNL     1      -1.220  10.036  17.385  0.00  0.00    +0.000 A 
ATOM     24  C   UNL     1      -2.437  10.711  17.217  0.00  0.00    +0.000 A 
ATOM     25  C   UNL     1      -2.849  11.625  18.201  0.00  0.00    +0.000 A 
ATOM     26  C   UNL     1      -2.061  11.870  19.327  0.00  0.00    +0.000 A 
BRANCH  24  27
ATOM     27  C   UNL     1      -3.311  10.465  16.013  0.00  0.00    +0.000 C 
ATOM     28  F   UNL     1      -4.596  10.885  16.177  0.00  0.00    +0.000 F 
ATOM     29  F   UNL     1      -2.850  11.100  14.899  0.00  0.00    +0.000 F 
ATOM     30  F   UNL     1      -3.390   9.145  15.685  0.00  0.00    +0.000 F 
ENDBRANCH  24  27
ENDBRANCH  20  21
ENDBRANCH   3  20
TORSDOF 8
ENDMDL
MODEL 2
REMARK VINA RESULT:      -7.6      5.027      8.871
REMARK  Name = 
REMARK  9 active torsions:
REMARK  status: ('A' for Active; 'I' for Inactive)
REMARK    1  A    between atoms: C_1  and  N_2
REMARK    2  A    between atoms: N_2  and  C_3
REMARK    3  A    between atoms: C_3  and  C_4
REMARK    4  A    between atoms: C_4  and  C_5
REMARK    5  A    between atoms: C_8  and  C_9
REMARK    6  A    between atoms: C_9  and  N_10
REMARK    7  A    between atoms: C_18  and  O_20
REMARK    8  A    between atoms: O_20  and  C_21
REMARK    9  A    between atoms: C_24  and  C_25
REMARK                            x       y       z     vdW  Elec       q    Type
REMARK                         _______ _______ _______ _____ _____    ______ ____
ROOT
ATOM      1  C   UNL     1       2.291   3.055  21.641  0.00  0.00    +0.000 C 
ATOM      2  N   UNL     1       2.577   3.685  20.373  0.00  0.00    +0.000 N 
ATOM      3  C   UNL     1       3.442   3.030  19.500  0.00  0.00    +0.000 C 
ATOM      4  O   UNL     1       4.061   2.013  19.793  0.00  0.00    +0.000 OA
ENDROOT
BRANCH   2   5
ATOM      5  C   UNL     1       1.762   4.811  19.944  0.00  0.00    +0.000 C 
BRANCH   5   6
ATOM      6  C   UNL     1       2.372   6.175  20.294  0.00  0.00    +0.000 C 
BRANCH   6   7
ATOM      7  C   UNL     1       1.502   7.346  19.793  0.00  0.00    +0.000 C 
ATOM      8  C   UNL     1       1.167   8.319  20.934  0.00  0.00    +0.000 C 
ATOM      9  C   UNL     1       0.411   9.547  20.455  0.00  0.00    +0.000 C 
ATOM     10  C   UNL     1       1.175  10.261  19.337  0.00  0.00    +0.000 C 
ATOM     11  C   UNL     1       1.405   9.300  18.165  0.00  0.00    +0.000 C 
ATOM     12  C   UNL     1       2.202   8.079  18.633  0.00  0.00    +0.000 C 
BRANCH  10  13
ATOM     13  C   UNL     1       0.445  11.542  18.894  0.00  0.00    +0.000 C 
BRANCH  13  14
ATOM     14  N   UNL     1       1.284  12.751  19.006  0.00  0.00    +0.000 NA
ATOM     15  C   UNL     1       0.531  13.986  18.737  0.00  0.00    +0.000 C 
ATOM     16  C   UNL     1       1.430  15.218  18.801  0.00  0.00    +0.000 C 
ATOM     17  C   UNL     1       2.138  15.308  20.143  0.00  0.00    +0.000 C 
ATOM     18  C   UNL     1       2.866  14.003  20.443  0.00  0.00    +0.000 C 
ATOM     19  C   UNL     1       1.927  12.802  20.326  0.00  0.00    +0.000 C 
ENDBRANCH  13  14
ENDBRANCH  10  13
ENDBRANCH   6   7
ENDBRANCH   5   6
ENDBRANCH   2   5
BRANCH   3  20
ATOM     20  O   UNL     1       3.517   3.658  18.259  0.00  0.00    +0.000 OA
BRANCH  20  21
ATOM     21  C   UNL     1       4.521   4.611  17.993  0.00  0.00    +0.000 A 
ATOM     22  C   UNL     1       5.604   4.576  18.875  0.00  0.00    +0.000 A 
ATOM     23  C   UNL     1       6.602   5.546  18.794  0.00  0.00    +0.000 A 
ATOM     24  C   UNL     1       6.538   6.546  17.813  0.00  0.00    +0.000 A 
ATOM     25  C   UNL     1       5.451   6.555  16.922  0.00  0.00    +0.000 A 
ATOM     26  C   UNL     1       4.443   5.594  17.011  0.00  0.00    +0.000 A 
BRANCH  24  27
ATOM     27  C   UNL     1       7.613   7.596  17.690  0.00  0.00    +0.000 C 
ATOM     28  F   UNL     1       8.277   7.560  16.501  0.00  0.00    +0.000 F 
ATOM     29  F   UNL     1       7.119   8.860  17.804  0.00  0.00    +0.000 F 
ATOM     30  F   UNL     1       8.569   7.479  18.653  0.00  0.00    +0.000 F 
ENDBRANCH  24  27
ENDBRANCH  20  21
ENDBRANCH   3  20
TORSDOF 8
ENDMDL
MODEL 3
REMARK VINA RESULT:      -7.6      4.660      9.176
REMARK  Name = 
REMARK  9 active torsions:
REMARK  status: ('A' for Active; 'I' for Inactive)
REMARK    1  A    between atoms: C_1  and  N_2
REMARK    2  A    between atoms: N_2  and  C_3
REMARK    3  A    between atoms: C_3  and  C_4
REMARK    4  A    between atoms: C_4  and  C_5
REMARK    5  A    between atoms: C_8  and  C_9
REMARK    6  A    between atoms: C_9  and  N_10
REMARK    7  A    between atoms: C_18  and  O_20
REMARK    8  A    between atoms: O_20  and  C_21
REMARK    9  A    between atoms: C_24  and  C_25
REMARK                            x       y       z     vdW  Elec       q    Type
REMARK                         _______ _______ _______ _____ _____    ______ ____
ROOT
ATOM      1  C   UNL     1       1.950   2.274  20.772  0.00  0.00    +0.000 C 
ATOM      2  N   UNL     1       3.017   3.236  20.619  0.00  0.00    +0.000 N 
ATOM      3  C   UNL     1       4.202   2.807  20.027  0.00  0.00    +0.000 C 
ATOM      4  O   UNL     1       4.431   1.638  19.737  0.00  0.00    +0.000 OA
ENDROOT
BRANCH   2   5
ATOM      5  C   UNL     1       2.730   4.647  20.826  0.00  0.00    +0.000 C 
BRANCH   5   6
ATOM      6  C   UNL     1       2.007   5.303  19.641  0.00  0.00    +0.000 C 
BRANCH   6   7
ATOM      7  C   UNL     1       2.238   6.828  19.593  0.00  0.00    +0.000 C 
ATOM      8  C   UNL     1       2.176   7.354  18.150  0.00  0.00    +0.000 C 
ATOM      9  C   UNL     1       2.281   8.868  18.073  0.00  0.00    +0.000 C 
ATOM     10  C   UNL     1       1.214   9.538  18.943  0.00  0.00    +0.000 C 
ATOM     11  C   UNL     1       1.362   9.078  20.398  0.00  0.00    +0.000 C 
ATOM     12  C   UNL     1       1.216   7.556  20.487  0.00  0.00    +0.000 C 
BRANCH  10  13
ATOM     13  C   UNL     1       1.275  11.071  18.817  0.00  0.00    +0.000 C 
BRANCH  13  14
ATOM     14  N   UNL     1      -0.059  11.693  18.710  0.00  0.00    +0.000 NA
ATOM     15  C   UNL     1      -1.081  10.753  18.222  0.00  0.00    +0.000 C 
ATOM     16  C   UNL     1      -2.439  11.432  18.064  0.00  0.00    +0.000 C 
ATOM     17  C   UNL     1      -2.885  12.070  19.369  0.00  0.00    +0.000 C 
ATOM     18  C   UNL     1      -1.798  12.996  19.901  0.00  0.00    +0.000 C 
ATOM     19  C   UNL     1      -0.452  12.275  20.001  0.00  0.00    +0.000 C 
ENDBRANCH  13  14
ENDBRANCH  10  13
ENDBRANCH   6   7
ENDBRANCH   5   6
ENDBRANCH   2   5
BRANCH   3  20
ATOM     20  O   UNL     1       5.088   3.856  19.798  0.00  0.00    +0.000 OA
BRANCH  20  21
ATOM     21  C   UNL     1       5.518   4.165  18.491  0.00  0.00    +0.000 A 
ATOM     22  C   UNL     1       4.590   3.868  17.490  0.00  0.00    +0.000 A 
ATOM     23  C   UNL     1       4.941   4.011  16.148  0.00  0.00    +0.000 A 
ATOM     24  C   UNL     1       6.216   4.477  15.797  0.00  0.00    +0.000 A 
ATOM     25  C   UNL     1       7.131   4.790  16.818  0.00  0.00    +0.000 A 
ATOM     26  C   UNL     1       6.786   4.633  18.162  0.00  0.00    +0.000 A 
BRANCH  24  27
ATOM     27  C   UNL     1       6.616   4.660  14.355  0.00  0.00    +0.000 C 
ATOM     28  F   UNL     1       6.609   3.504  13.636  0.00  0.00    +0.000 F 
ATOM     29  F   UNL     1       5.791   5.517  13.693  0.00  0.00    +0.000 F 
ATOM     30  F   UNL     1       7.872   5.172  14.222  0.00  0.00    +0.000 F 
ENDBRANCH  24  27
ENDBRANCH  20  21
ENDBRANCH   3  20
TORSDOF 8
ENDMDL
MODEL 4
REMARK VINA RESULT:      -7.5      4.587      9.157
REMARK  Name = 
REMARK  9 active torsions:
REMARK  status: ('A' for Active; 'I' for Inactive)
REMARK    1  A    between atoms: C_1  and  N_2
REMARK    2  A    between atoms: N_2  and  C_3
REMARK    3  A    between atoms: C_3  and  C_4
REMARK    4  A    between atoms: C_4  and  C_5
REMARK    5  A    between atoms: C_8  and  C_9
REMARK    6  A    between atoms: C_9  and  N_10
REMARK    7  A    between atoms: C_18  and  O_20
REMARK    8  A    between atoms: O_20  and  C_21
REMARK    9  A    between atoms: C_24  and  C_25
REMARK                            x       y       z     vdW  Elec       q    Type
REMARK                         _______ _______ _______ _____ _____    ______ ____
ROOT
ATOM      1  C   UNL     1       6.934   6.128  15.945  0.00  0.00    +0.000 C 
ATOM      2  N   UNL     1       5.575   5.641  16.003  0.00  0.00    +0.000 N 
ATOM      3  C   UNL     1       5.374   4.264  15.962  0.00  0.00    +0.000 C 
ATOM      4  O   UNL     1       6.272   3.452  15.765  0.00  0.00    +0.000 OA
ENDROOT
BRANCH   2   5
ATOM      5  C   UNL     1       4.510   6.561  16.370  0.00  0.00    +0.000 C 
BRANCH   5   6
ATOM      6  C   UNL     1       4.415   6.813  17.881  0.00  0.00    +0.000 C 
BRANCH   6   7
ATOM      7  C   UNL     1       2.985   7.193  18.318  0.00  0.00    +0.000 C 
ATOM      8  C   UNL     1       2.783   6.962  19.824  0.00  0.00    +0.000 C 
ATOM      9  C   UNL     1       1.425   7.436  20.313  0.00  0.00    +0.000 C 
ATOM     10  C   UNL     1       1.193   8.906  19.951  0.00  0.00    +0.000 C 
ATOM     11  C   UNL     1       1.295   9.092  18.432  0.00  0.00    +0.000 C 
ATOM     12  C   UNL     1       2.677   8.653  17.939  0.00  0.00    +0.000 C 
BRANCH  10  13
ATOM     13  C   UNL     1      -0.154   9.408  20.501  0.00  0.00    +0.000 C 
BRANCH  13  14
ATOM     14  N   UNL     1      -0.240  10.881  20.556  0.00  0.00    +0.000 NA
ATOM     15  C   UNL     1      -1.316  11.414  19.706  0.00  0.00    +0.000 C 
ATOM     16  C   UNL     1      -1.349  12.940  19.733  0.00  0.00    +0.000 C 
ATOM     17  C   UNL     1      -1.489  13.458  21.154  0.00  0.00    +0.000 C 
ATOM     18  C   UNL     1      -0.409  12.855  22.044  0.00  0.00    +0.000 C 
ATOM     19  C   UNL     1      -0.396  11.328  21.947  0.00  0.00    +0.000 C 
ENDBRANCH  13  14
ENDBRANCH  10  13
ENDBRANCH   6   7
ENDBRANCH   5   6
ENDBRANCH   2   5
BRANCH   3  20
ATOM     20  O   UNL     1       4.043   3.918  16.178  0.00  0.00    +0.000 OA
BRANCH  20  21
ATOM     21  C   UNL     1       3.586   3.579  17.469  0.00  0.00    +0.000 A 
ATOM     22  C   UNL     1       2.206   3.705  17.648  0.00  0.00    +0.000 A 
ATOM     23  C   UNL     1       1.646   3.519  18.912  0.00  0.00    +0.000 A 
ATOM     24  C   UNL     1       2.461   3.183  20.002  0.00  0.00    +0.000 A 
ATOM     25  C   UNL     1       3.844   3.043  19.801  0.00  0.00    +0.000 A 
ATOM     26  C   UNL     1       4.409   3.242  18.539  0.00  0.00    +0.000 A 
BRANCH  24  27
ATOM     27  C   UNL     1       1.880   2.958  21.375  0.00  0.00    +0.000 C 
ATOM     28  F   UNL     1       0.526   2.807  21.377  0.00  0.00    +0.000 F 
ATOM     29  F   UNL     1       2.380   1.841  21.974  0.00  0.00    +0.000 F 
ATOM     30  F   UNL     1       2.141   3.988  22.228  0.00  0.00    +0.000 F 
ENDBRANCH  24  27
ENDBRANCH  20  21
ENDBRANCH   3  20
TORSDOF 8
ENDMDL
MODEL 5
REMARK VINA RESULT:      -7.5      4.827      9.262
REMARK  Name = 
REMARK  9 active torsions:
REMARK  status: ('A' for Active; 'I' for Inactive)
REMARK    1  A    between atoms: C_1  and  N_2
REMARK    2  A    between atoms: N_2  and  C_3
REMARK    3  A    between atoms: C_3  and  C_4
REMARK    4  A    between atoms: C_4  and  C_5
REMARK    5  A    between atoms: C_8  and  C_9
REMARK    6  A    between atoms: C_9  and  N_10
REMARK    7  A    between atoms: C_18  and  O_20
REMARK    8  A    between atoms: O_20  and  C_21
REMARK    9  A    between atoms: C_24  and  C_25
REMARK                            x       y       z     vdW  Elec       q    Type
REMARK                         _______ _______ _______ _____ _____    ______ ____
ROOT
ATOM      1  C   UNL     1       3.002   4.457  20.273  0.00  0.00    +0.000 C 
ATOM      2  N   UNL     1       4.094   5.087  19.568  0.00  0.00    +0.000 N 
ATOM      3  C   UNL     1       5.099   4.268  19.057  0.00  0.00    +0.000 C 
ATOM      4  O   UNL     1       5.167   3.063  19.270  0.00  0.00    +0.000 OA
ENDROOT
BRANCH   2   5
ATOM      5  C   UNL     1       3.974   6.485  19.184  0.00  0.00    +0.000 C 
BRANCH   5   6
ATOM      6  C   UNL     1       2.940   6.726  18.076  0.00  0.00    +0.000 C 
BRANCH   6   7
ATOM      7  C   UNL     1       1.773   7.615  18.555  0.00  0.00    +0.000 C 
ATOM      8  C   UNL     1       1.909   7.954  20.048  0.00  0.00    +0.000 C 
ATOM      9  C   UNL     1       0.843   8.924  20.528  0.00  0.00    +0.000 C 
ATOM     10  C   UNL     1       0.837  10.198  19.679  0.00  0.00    +0.000 C 
ATOM     11  C   UNL     1       0.595   9.844  18.207  0.00  0.00    +0.000 C 
ATOM     12  C   UNL     1       1.690   8.897  17.706  0.00  0.00    +0.000 C 
BRANCH  10  13
ATOM     13  C   UNL     1      -0.197  11.212  20.203  0.00  0.00    +0.000 C 
BRANCH  13  14
ATOM     14  N   UNL     1       0.266  12.609  20.104  0.00  0.00    +0.000 NA
ATOM     15  C   UNL     1       1.732  12.712  20.024  0.00  0.00    +0.000 C 
ATOM     16  C   UNL     1       2.191  14.167  19.981  0.00  0.00    +0.000 C 
ATOM     17  C   UNL     1       1.543  14.911  18.826  0.00  0.00    +0.000 C 
ATOM     18  C   UNL     1       0.028  14.750  18.880  0.00  0.00    +0.000 C 
ATOM     19  C   UNL     1      -0.373  13.276  18.961  0.00  0.00    +0.000 C 
ENDBRANCH  13  14
ENDBRANCH  10  13
ENDBRANCH   6   7
ENDBRANCH   5   6
ENDBRANCH   2   5
BRANCH   3  20
ATOM     20  O   UNL     1       6.008   4.974  18.273  0.00  0.00    +0.000 OA
BRANCH  20  21
ATOM     21  C   UNL     1       6.078   4.760  16.881  0.00  0.00    +0.000 A 
ATOM     22  C   UNL     1       4.913   4.237  16.315  0.00  0.00    +0.000 A 
ATOM     23  C   UNL     1       4.896   3.865  14.971  0.00  0.00    +0.000 A 
ATOM     24  C   UNL     1       6.037   4.038  14.176  0.00  0.00    +0.000 A 
ATOM     25  C   UNL     1       7.195   4.583  14.757  0.00  0.00    +0.000 A 
ATOM     26  C   UNL     1       7.218   4.942  16.106  0.00  0.00    +0.000 A 
BRANCH  24  27
ATOM     27  C   UNL     1       6.041   3.663  12.716  0.00  0.00    +0.000 C 
ATOM     28  F   UNL     1       6.326   2.350  12.490  0.00  0.00    +0.000 F 
ATOM     29  F   UNL     1       4.840   3.892  12.118  0.00  0.00    +0.000 F 
ATOM     30  F   UNL     1       6.957   4.370  11.997  0.00  0.00    +0.000 F 
ENDBRANCH  24  27
ENDBRANCH  20  21
ENDBRANCH   3  20
TORSDOF 8
ENDMDL
MODEL 6
REMARK VINA RESULT:      -7.5      4.521      8.890
REMARK  Name = 
REMARK  9 active torsions:
REMARK  status: ('A' for Active; 'I' for Inactive)
REMARK    1  A    between atoms: C_1  and  N_2
REMARK    2  A    between atoms: N_2  and  C_3
REMARK    3  A    between atoms: C_3  and  C_4
REMARK    4  A    between atoms: C_4  and  C_5
REMARK    5  A    between atoms: C_8  and  C_9
REMARK    6  A    between atoms: C_9  and  N_10
REMARK    7  A    between atoms: C_18  and  O_20
REMARK    8  A    between atoms: O_20  and  C_21
REMARK    9  A    between atoms: C_24  and  C_25
REMARK                            x       y       z     vdW  Elec       q    Type
REMARK                         _______ _______ _______ _____ _____    ______ ____
ROOT
ATOM      1  C   UNL     1       6.927   7.298  17.281  0.00  0.00    +0.000 C 
ATOM      2  N   UNL     1       5.912   6.361  16.856  0.00  0.00    +0.000 N 
ATOM      3  C   UNL     1       6.302   5.049  16.598  0.00  0.00    +0.000 C 
ATOM      4  O   UNL     1       7.469   4.675  16.601  0.00  0.00    +0.000 OA
ENDROOT
BRANCH   2   5
ATOM      5  C   UNL     1       4.511   6.736  16.975  0.00  0.00    +0.000 C 
BRANCH   5   6
ATOM      6  C   UNL     1       4.011   6.777  18.425  0.00  0.00    +0.000 C 
BRANCH   6   7
ATOM      7  C   UNL     1       2.601   7.393  18.535  0.00  0.00    +0.000 C 
ATOM      8  C   UNL     1       2.209   7.625  20.004  0.00  0.00    +0.000 C 
ATOM      9  C   UNL     1       0.876   8.339  20.149  0.00  0.00    +0.000 C 
ATOM     10  C   UNL     1       0.871   9.657  19.369  0.00  0.00    +0.000 C 
ATOM     11  C   UNL     1       1.161   9.388  17.888  0.00  0.00    +0.000 C 
ATOM     12  C   UNL     1       2.522   8.705  17.732  0.00  0.00    +0.000 C 
BRANCH  10  13
ATOM     13  C   UNL     1      -0.454  10.416  19.566  0.00  0.00    +0.000 C 
BRANCH  13  14
ATOM     14  N   UNL     1      -0.259  11.850  19.855  0.00  0.00    +0.000 NA
ATOM     15  C   UNL     1       1.041  12.124  20.487  0.00  0.00    +0.000 C 
ATOM     16  C   UNL     1       1.198  13.604  20.829  0.00  0.00    +0.000 C 
ATOM     17  C   UNL     1       1.014  14.472  19.595  0.00  0.00    +0.000 C 
ATOM     18  C   UNL     1      -0.307  14.140  18.910  0.00  0.00    +0.000 C 
ATOM     19  C   UNL     1      -0.426  12.641  18.628  0.00  0.00    +0.000 C 
ENDBRANCH  13  14
ENDBRANCH  10  13
ENDBRANCH   6   7
ENDBRANCH   5   6
ENDBRANCH   2   5
BRANCH   3  20
ATOM     20  O   UNL     1       5.215   4.215  16.347  0.00  0.00    +0.000 OA
BRANCH  20  21
ATOM     21  C   UNL     1       4.404   3.750  17.402  0.00  0.00    +0.000 A 
ATOM     22  C   UNL     1       3.047   3.642  17.087  0.00  0.00    +0.000 A 
ATOM     23  C   UNL     1       2.124   3.312  18.080  0.00  0.00    +0.000 A 
ATOM     24  C   UNL     1       2.555   3.063  19.390  0.00  0.00    +0.000 A 
ATOM     25  C   UNL     1       3.926   3.158  19.685  0.00  0.00    +0.000 A 
ATOM     26  C   UNL     1       4.850   3.502  18.697  0.00  0.00    +0.000 A 
BRANCH  24  27
ATOM     27  C   UNL     1       1.582   2.686  20.478  0.00  0.00    +0.000 C 
ATOM     28  F   UNL     1       2.181   2.370  21.660  0.00  0.00    +0.000 F 
ATOM     29  F   UNL     1       0.704   3.688  20.760  0.00  0.00    +0.000 F 
ATOM     30  F   UNL     1       0.821   1.605  20.147  0.00  0.00    +0.000 F 
ENDBRANCH  24  27
ENDBRANCH  20  21
ENDBRANCH   3  20
TORSDOF 8
ENDMDL
MODEL 7
REMARK VINA RESULT:      -7.4      0.715      1.464
REMARK  Name = 
REMARK  9 active torsions:
REMARK  status: ('A' for Active; 'I' for Inactive)
REMARK    1  A    between atoms: C_1  and  N_2
REMARK    2  A    between atoms: N_2  and  C_3
REMARK    3  A    between atoms: C_3  and  C_4
REMARK    4  A    between atoms: C_4  and  C_5
REMARK    5  A    between atoms: C_8  and  C_9
REMARK    6  A    between atoms: C_9  and  N_10
REMARK    7  A    between atoms: C_18  and  O_20
REMARK    8  A    between atoms: O_20  and  C_21
REMARK    9  A    between atoms: C_24  and  C_25
REMARK                            x       y       z     vdW  Elec       q    Type
REMARK                         _______ _______ _______ _____ _____    ______ ____
ROOT
ATOM      1  C   UNL     1       0.118   9.603  23.347  0.00  0.00    +0.000 C 
ATOM      2  N   UNL     1       0.127  10.015  21.961  0.00  0.00    +0.000 N 
ATOM      3  C   UNL     1      -0.221  11.331  21.670  0.00  0.00    +0.000 C 
ATOM      4  O   UNL     1      -0.644  12.122  22.506  0.00  0.00    +0.000 OA
ENDROOT
BRANCH   2   5
ATOM      5  C   UNL     1       0.749   9.149  20.972  0.00  0.00    +0.000 C 
BRANCH   5   6
ATOM      6  C   UNL     1       0.790   7.673  21.391  0.00  0.00    +0.000 C 
BRANCH   6   7
ATOM      7  C   UNL     1       1.829   6.868  20.583  0.00  0.00    +0.000 C 
ATOM      8  C   UNL     1       1.497   5.367  20.590  0.00  0.00    +0.000 C 
ATOM      9  C   UNL     1       2.431   4.556  19.707  0.00  0.00    +0.000 C 
ATOM     10  C   UNL     1       2.449   5.105  18.277  0.00  0.00    +0.000 C 
ATOM     11  C   UNL     1       2.885   6.574  18.287  0.00  0.00    +0.000 C 
ATOM     12  C   UNL     1       1.923   7.404  19.143  0.00  0.00    +0.000 C 
BRANCH  10  13
ATOM     13  C   UNL     1       3.344   4.246  17.364  0.00  0.00    +0.000 C 
BRANCH  13  14
ATOM     14  N   UNL     1       4.707   4.792  17.217  0.00  0.00    +0.000 NA
ATOM     15  C   UNL     1       5.629   4.288  18.247  0.00  0.00    +0.000 C 
ATOM     16  C   UNL     1       7.017   4.909  18.112  0.00  0.00    +0.000 C 
ATOM     17  C   UNL     1       7.589   4.670  16.724  0.00  0.00    +0.000 C 
ATOM     18  C   UNL     1       6.603   5.139  15.661  0.00  0.00    +0.000 C 
ATOM     19  C   UNL     1       5.221   4.517  15.869  0.00  0.00    +0.000 C 
ENDBRANCH  13  14
ENDBRANCH  10  13
ENDBRANCH   6   7
ENDBRANCH   5   6
ENDBRANCH   2   5
BRANCH   3  20
ATOM     20  O   UNL     1      -0.027  11.644  20.327  0.00  0.00    +0.000 OA
BRANCH  20  21
ATOM     21  C   UNL     1      -1.097  11.581  19.410  0.00  0.00    +0.000 A 
ATOM     22  C   UNL     1      -2.260  12.231  19.831  0.00  0.00    +0.000 A 
ATOM     23  C   UNL     1      -3.426  12.136  19.070  0.00  0.00    +0.000 A 
ATOM     24  C   UNL     1      -3.429  11.411  17.870  0.00  0.00    +0.000 A 
ATOM     25  C   UNL     1      -2.245  10.780  17.453  0.00  0.00    +0.000 A 
ATOM     26  C   UNL     1      -1.081  10.861  18.220  0.00  0.00    +0.000 A 
BRANCH  24  27
ATOM     27  C   UNL     1      -4.669  11.309  17.019  0.00  0.00    +0.000 C 
ATOM     28  F   UNL     1      -4.472  10.647  15.845  0.00  0.00    +0.000 F 
ATOM     29  F   UNL     1      -5.681  10.652  17.652  0.00  0.00    +0.000 F 
ATOM     30  F   UNL     1      -5.172  12.528  16.678  0.00  0.00    +0.000 F 
ENDBRANCH  24  27
ENDBRANCH  20  21
ENDBRANCH   3  20
TORSDOF 8
ENDMDL
MODEL 8
REMARK VINA RESULT:      -7.4      4.731      9.147
REMARK  Name = 
REMARK  9 active torsions:
REMARK  status: ('A' for Active; 'I' for Inactive)
REMARK    1  A    between atoms: C_1  and  N_2
REMARK    2  A    between atoms: N_2  and  C_3
REMARK    3  A    between atoms: C_3  and  C_4
REMARK    4  A    between atoms: C_4  and  C_5
REMARK    5  A    between atoms: C_8  and  C_9
REMARK    6  A    between atoms: C_9  and  N_10
REMARK    7  A    between atoms: C_18  and  O_20
REMARK    8  A    between atoms: O_20  and  C_21
REMARK    9  A    between atoms: C_24  and  C_25
REMARK                            x       y       z     vdW  Elec       q    Type
REMARK                         _______ _______ _______ _____ _____    ______ ____
ROOT
ATOM      1  C   UNL     1       1.290   3.278  20.700  0.00  0.00    +0.000 C 
ATOM      2  N   UNL     1       2.013   3.881  19.604  0.00  0.00    +0.000 N 
ATOM      3  C   UNL     1       2.678   3.036  18.719  0.00  0.00    +0.000 C 
ATOM      4  O   UNL     1       2.779   1.825  18.883  0.00  0.00    +0.000 OA
ENDROOT
BRANCH   2   5
ATOM      5  C   UNL     1       1.801   5.289  19.308  0.00  0.00    +0.000 C 
BRANCH   5   6
ATOM      6  C   UNL     1       2.567   6.232  20.245  0.00  0.00    +0.000 C 
BRANCH   6   7
ATOM      7  C   UNL     1       2.108   7.698  20.096  0.00  0.00    +0.000 C 
ATOM      8  C   UNL     1       1.918   8.073  18.617  0.00  0.00    +0.000 C 
ATOM      9  C   UNL     1       1.353   9.471  18.435  0.00  0.00    +0.000 C 
ATOM     10  C   UNL     1       0.045   9.641  19.213  0.00  0.00    +0.000 C 
ATOM     11  C   UNL     1       0.283   9.364  20.702  0.00  0.00    +0.000 C 
ATOM     12  C   UNL     1       0.814   7.941  20.895  0.00  0.00    +0.000 C 
BRANCH  10  13
ATOM     13  C   UNL     1      -0.565  11.036  18.979  0.00  0.00    +0.000 C 
BRANCH  13  14
ATOM     14  N   UNL     1      -2.039  11.015  18.912  0.00  0.00    +0.000 NA
ATOM     15  C   UNL     1      -2.639  12.290  19.336  0.00  0.00    +0.000 C 
ATOM     16  C   UNL     1      -4.164  12.227  19.314  0.00  0.00    +0.000 C 
ATOM     17  C   UNL     1      -4.676  11.830  17.939  0.00  0.00    +0.000 C 
ATOM     18  C   UNL     1      -4.005  10.541  17.481  0.00  0.00    +0.000 C 
ATOM     19  C   UNL     1      -2.481  10.647  17.560  0.00  0.00    +0.000 C 
ENDBRANCH  13  14
ENDBRANCH  10  13
ENDBRANCH   6   7
ENDBRANCH   5   6
ENDBRANCH   2   5
BRANCH   3  20
ATOM     20  O   UNL     1       3.205   3.723  17.629  0.00  0.00    +0.000 OA
BRANCH  20  21
ATOM     21  C   UNL     1       4.286   4.614  17.792  0.00  0.00    +0.000 A 
ATOM     22  C   UNL     1       4.233   5.746  16.974  0.00  0.00    +0.000 A 
ATOM     23  C   UNL     1       5.303   6.641  16.951  0.00  0.00    +0.000 A 
ATOM     24  C   UNL     1       6.423   6.423  17.765  0.00  0.00    +0.000 A 
ATOM     25  C   UNL     1       6.451   5.290  18.595  0.00  0.00    +0.000 A 
ATOM     26  C   UNL     1       5.388   4.385  18.609  0.00  0.00    +0.000 A 
BRANCH  24  27
ATOM     27  C   UNL     1       7.584   7.385  17.775  0.00  0.00    +0.000 C 
ATOM     28  F   UNL     1       8.253   7.444  16.590  0.00  0.00    +0.000 F 
ATOM     29  F   UNL     1       7.199   8.661  18.051  0.00  0.00    +0.000 F 
ATOM     30  F   UNL     1       8.519   7.065  18.713  0.00  0.00    +0.000 F 
ENDBRANCH  24  27
ENDBRANCH  20  21
ENDBRANCH   3  20
TORSDOF 8
ENDMDL
MODEL 9
REMARK VINA RESULT:      -7.4      4.370      8.960
REMARK  Name = 
REMARK  9 active torsions:
REMARK  status: ('A' for Active; 'I' for Inactive)
REMARK    1  A    between atoms: C_1  and  N_2
REMARK    2  A    between atoms: N_2  and  C_3
REMARK    3  A    between atoms: C_3  and  C_4
REMARK    4  A    between atoms: C_4  and  C_5
REMARK    5  A    between atoms: C_8  and  C_9
REMARK    6  A    between atoms: C_9  and  N_10
REMARK    7  A    between atoms: C_18  and  O_20
REMARK    8  A    between atoms: O_20  and  C_21
REMARK    9  A    between atoms: C_24  and  C_25
REMARK                            x       y       z     vdW  Elec       q    Type
REMARK                         _______ _______ _______ _____ _____    ______ ____
ROOT
ATOM      1  C   UNL     1       7.155   6.930  16.832  0.00  0.00    +0.000 C 
ATOM      2  N   UNL     1       6.015   6.082  16.568  0.00  0.00    +0.000 N 
ATOM      3  C   UNL     1       6.237   4.714  16.429  0.00  0.00    +0.000 C 
ATOM      4  O   UNL     1       7.353   4.207  16.405  0.00  0.00    +0.000 OA
ENDROOT
BRANCH   2   5
ATOM      5  C   UNL     1       4.676   6.629  16.725  0.00  0.00    +0.000 C 
BRANCH   5   6
ATOM      6  C   UNL     1       4.325   6.974  18.179  0.00  0.00    +0.000 C 
BRANCH   6   7
ATOM      7  C   UNL     1       2.865   7.450  18.326  0.00  0.00    +0.000 C 
ATOM      8  C   UNL     1       2.423   7.441  19.798  0.00  0.00    +0.000 C 
ATOM      9  C   UNL     1       1.030   8.016  19.996  0.00  0.00    +0.000 C 
ATOM     10  C   UNL     1       0.929   9.425  19.405  0.00  0.00    +0.000 C 
ATOM     11  C   UNL     1       1.272   9.391  17.911  0.00  0.00    +0.000 C 
ATOM     12  C   UNL     1       2.691   8.851  17.709  0.00  0.00    +0.000 C 
BRANCH  10  13
ATOM     13  C   UNL     1      -0.461  10.037  19.661  0.00  0.00    +0.000 C 
BRANCH  13  14
ATOM     14  N   UNL     1      -0.409  11.485  19.941  0.00  0.00    +0.000 NA
ATOM     15  C   UNL     1      -1.671  11.995  20.502  0.00  0.00    +0.000 C 
ATOM     16  C   UNL     1      -1.614  13.503  20.730  0.00  0.00    +0.000 C 
ATOM     17  C   UNL     1      -0.446  13.877  21.626  0.00  0.00    +0.000 C 
ATOM     18  C   UNL     1       0.849  13.294  21.073  0.00  0.00    +0.000 C 
ATOM     19  C   UNL     1       0.723  11.790  20.827  0.00  0.00    +0.000 C 
ENDBRANCH  13  14
ENDBRANCH  10  13
ENDBRANCH   6   7
ENDBRANCH   5   6
ENDBRANCH   2   5
BRANCH   3  20
ATOM     20  O   UNL     1       5.050   3.993  16.330  0.00  0.00    +0.000 OA
BRANCH  20  21
ATOM     21  C   UNL     1       4.242   3.776  17.465  0.00  0.00    +0.000 A 
ATOM     22  C   UNL     1       2.868   3.817  17.216  0.00  0.00    +0.000 A 
ATOM     23  C   UNL     1       1.964   3.740  18.275  0.00  0.00    +0.000 A 
ATOM     24  C   UNL     1       2.427   3.595  19.590  0.00  0.00    +0.000 A 
ATOM     25  C   UNL     1       3.813   3.536  19.821  0.00  0.00    +0.000 A 
ATOM     26  C   UNL     1       4.720   3.629  18.763  0.00  0.00    +0.000 A 
BRANCH  24  27
ATOM     27  C   UNL     1       1.473   3.490  20.752  0.00  0.00    +0.000 C 
ATOM     28  F   UNL     1       0.988   2.231  20.947  0.00  0.00    +0.000 F 
ATOM     29  F   UNL     1       2.047   3.855  21.931  0.00  0.00    +0.000 F 
ATOM     30  F   UNL     1       0.380   4.289  20.605  0.00  0.00    +0.000 F 
ENDBRANCH  24  27
ENDBRANCH  20  21
ENDBRANCH   3  20
TORSDOF 8
ENDMDL
