MODEL 1
REMARK VINA RESULT:      -8.1      0.000      0.000
REMARK  Name = 
REMARK  4 active torsions:
REMARK  status: ('A' for Active; 'I' for Inactive)
REMARK    1  A    between atoms: N_3  and  C_4
REMARK    2  A    between atoms: N_10  and  C_11
REMARK    3  A    between atoms: N_10  and  C_18
REMARK    4  A    between atoms: C_11  and  C_12
REMARK                            x       y       z     vdW  Elec       q    Type
REMARK                         _______ _______ _______ _____ _____    ______ ____
ROOT
ATOM      1  O   UNL     1       3.508   7.923  17.827  0.00  0.00    +0.000 OA
ATOM      2  C   UNL     1       2.690   7.195  18.381  0.00  0.00    +0.000 C 
ATOM      3  N   UNL     1       1.684   7.703  19.162  0.00  0.00    +0.000 N 
ATOM      4  N   UNL     1       2.695   5.802  18.238  0.00  0.00    +0.000 N 
ATOM      5  H   UNL     1       1.446   7.153  19.969  0.00  0.00    +0.000 HD
ENDROOT
BRANCH   4   6
ATOM      6  C   UNL     1       2.045   4.836  19.143  0.00  0.00    +0.000 C 
ATOM      7  C   UNL     1       1.875   3.479  18.431  0.00  0.00    +0.000 C 
ATOM      8  C   UNL     1       1.559   2.460  19.502  0.00  0.00    +0.000 C 
ATOM      9  S   UNL     1       2.672   2.883  20.819  0.00  0.00    +0.000 S 
ATOM     10  O   UNL     1       3.984   2.389  20.460  0.00  0.00    +0.000 OA
ATOM     11  O   UNL     1       2.044   2.588  22.086  0.00  0.00    +0.000 OA
ATOM     12  C   UNL     1       2.665   4.645  20.538  0.00  0.00    +0.000 C 
ENDBRANCH   4   6
BRANCH   3  13
ATOM     13  C   UNL     1       1.455   9.133  19.412  0.00  0.00    +0.000 C 
ATOM     14  C   UNL     1       0.799   9.273  20.794  0.00  0.00    +0.000 C 
ATOM     15  C   UNL     1       0.448  10.716  21.110  0.00  0.00    +0.000 C 
ATOM     16  O   UNL     1      -0.373  11.270  20.085  0.00  0.00    +0.000 OA
ATOM     17  C   UNL     1       0.279  11.268  18.817  0.00  0.00    +0.000 C 
ATOM     18  C   UNL     1       0.587   9.843  18.367  0.00  0.00    +0.000 C 
ENDBRANCH   3  13
BRANCH   4  19
ATOM     19  C   UNL     1       3.741   5.249  17.363  0.00  0.00    +0.000 C 
BRANCH  19  20
ATOM     20  C   UNL     1       5.137   5.610  17.816  0.00  0.00    +0.000 A 
ATOM     21  C   UNL     1       5.976   6.349  16.970  0.00  0.00    +0.000 A 
ATOM     22  C   UNL     1       7.282   6.659  17.350  0.00  0.00    +0.000 A 
ATOM     23  C   UNL     1       7.763   6.239  18.587  0.00  0.00    +0.000 A 
ATOM     24  C   UNL     1       6.934   5.520  19.448  0.00  0.00    +0.000 A 
ATOM     25  C   UNL     1       5.626   5.206  19.066  0.00  0.00    +0.000 A 
ENDBRANCH  19  20
ENDBRANCH   4  19
TORSDOF 4
ENDMDL
MODEL 2
REMARK VINA RESULT:      -7.8      2.508      3.238
REMARK  Name = 
REMARK  4 active torsions:
REMARK  status: ('A' for Active; 'I' for Inactive)
REMARK    1  A    between atoms: N_3  and  C_4
REMARK    2  A    between atoms: N_10  and  C_11
REMARK    3  A    between atoms: N_10  and  C_18
REMARK    4  A    between atoms: C_11  and  C_12
REMARK                            x       y       z     vdW  Elec       q    Type
REMARK                         _______ _______ _______ _____ _____    ______ ____
ROOT
ATOM      1  O   UNL     1       5.391   6.722  17.948  0.00  0.00    +0.000 OA
ATOM      2  C   UNL     1       4.465   5.917  17.914  0.00  0.00    +0.000 C 
ATOM      3  N   UNL     1       3.183   6.279  18.241  0.00  0.00    +0.000 N 
ATOM      4  N   UNL     1       4.629   4.586  17.511  0.00  0.00    +0.000 N 
ATOM      5  H   UNL     1       2.649   5.579  18.724  0.00  0.00    +0.000 HD
ENDROOT
BRANCH   4   6
ATOM      6  C   UNL     1       3.712   3.471  17.810  0.00  0.00    +0.000 C 
ATOM      7  C   UNL     1       3.879   3.032  19.279  0.00  0.00    +0.000 C 
ATOM      8  C   UNL     1       2.683   2.170  19.615  0.00  0.00    +0.000 C 
ATOM      9  S   UNL     1       1.324   3.035  18.869  0.00  0.00    +0.000 S 
ATOM     10  O   UNL     1       0.999   4.159  19.721  0.00  0.00    +0.000 OA
ATOM     11  O   UNL     1       0.337   2.078  18.426  0.00  0.00    +0.000 OA
ATOM     12  C   UNL     1       2.225   3.666  17.465  0.00  0.00    +0.000 C 
ENDBRANCH   4   6
BRANCH   3  13
ATOM     13  C   UNL     1       2.768   7.630  18.643  0.00  0.00    +0.000 C 
ATOM     14  C   UNL     1       1.955   7.510  19.941  0.00  0.00    +0.000 C 
ATOM     15  C   UNL     1       1.411   8.853  20.394  0.00  0.00    +0.000 C 
ATOM     16  O   UNL     1       0.648   9.463  19.356  0.00  0.00    +0.000 OA
ATOM     17  C   UNL     1       1.430   9.703  18.188  0.00  0.00    +0.000 C 
ATOM     18  C   UNL     1       1.943   8.393  17.600  0.00  0.00    +0.000 C 
ENDBRANCH   3  13
BRANCH   4  19
ATOM     19  C   UNL     1       5.992   4.200  17.111  0.00  0.00    +0.000 C 
BRANCH  19  20
ATOM     20  C   UNL     1       6.214   4.292  15.619  0.00  0.00    +0.000 A 
ATOM     21  C   UNL     1       5.334   3.642  14.741  0.00  0.00    +0.000 A 
ATOM     22  C   UNL     1       5.541   3.679  13.363  0.00  0.00    +0.000 A 
ATOM     23  C   UNL     1       6.630   4.373  12.843  0.00  0.00    +0.000 A 
ATOM     24  C   UNL     1       7.504   5.041  13.702  0.00  0.00    +0.000 A 
ATOM     25  C   UNL     1       7.298   5.001  15.084  0.00  0.00    +0.000 A 
ENDBRANCH  19  20
ENDBRANCH   4  19
TORSDOF 4
ENDMDL
MODEL 3
REMARK VINA RESULT:      -7.5      2.556      3.277
REMARK  Name = 
REMARK  4 active torsions:
REMARK  status: ('A' for Active; 'I' for Inactive)
REMARK    1  A    between atoms: N_3  and  C_4
REMARK    2  A    between atoms: N_10  and  C_11
REMARK    3  A    between atoms: N_10  and  C_18
REMARK    4  A    between atoms: C_11  and  C_12
REMARK                            x       y       z     vdW  Elec       q    Type
REMARK                         _______ _______ _______ _____ _____    ______ ____
ROOT
ATOM      1  O   UNL     1       5.531   6.886  17.756  0.00  0.00    +0.000 OA
ATOM      2  C   UNL     1       4.660   6.024  17.821  0.00  0.00    +0.000 C 
ATOM      3  N   UNL     1       3.379   6.320  18.210  0.00  0.00    +0.000 N 
ATOM      4  N   UNL     1       4.888   4.687  17.473  0.00  0.00    +0.000 N 
ATOM      5  H   UNL     1       2.922   5.614  18.760  0.00  0.00    +0.000 HD
ENDROOT
BRANCH   4   6
ATOM      6  C   UNL     1       4.067   3.533  17.884  0.00  0.00    +0.000 C 
ATOM      7  C   UNL     1       4.196   3.309  19.405  0.00  0.00    +0.000 C 
ATOM      8  C   UNL     1       3.072   2.381  19.807  0.00  0.00    +0.000 C 
ATOM      9  S   UNL     1       1.678   2.998  18.896  0.00  0.00    +0.000 S 
ATOM     10  O   UNL     1       1.202   4.185  19.573  0.00  0.00    +0.000 OA
ATOM     11  O   UNL     1       0.813   1.895  18.548  0.00  0.00    +0.000 OA
ATOM     12  C   UNL     1       2.589   3.528  17.456  0.00  0.00    +0.000 C 
ENDBRANCH   4   6
BRANCH   3  13
ATOM     13  C   UNL     1       2.899   7.661  18.571  0.00  0.00    +0.000 C 
ATOM     14  C   UNL     1       2.004   7.526  19.813  0.00  0.00    +0.000 C 
ATOM     15  C   UNL     1       1.393   8.856  20.216  0.00  0.00    +0.000 C 
ATOM     16  O   UNL     1       0.685   9.437  19.124  0.00  0.00    +0.000 OA
ATOM     17  C   UNL     1       1.537   9.691  18.009  0.00  0.00    +0.000 C 
ATOM     18  C   UNL     1       2.126   8.393  17.468  0.00  0.00    +0.000 C 
ENDBRANCH   3  13
BRANCH   4  19
ATOM     19  C   UNL     1       6.247   4.367  17.007  0.00  0.00    +0.000 C 
BRANCH  19  20
ATOM     20  C   UNL     1       6.356   4.327  15.500  0.00  0.00    +0.000 A 
ATOM     21  C   UNL     1       7.386   5.028  14.856  0.00  0.00    +0.000 A 
ATOM     22  C   UNL     1       7.483   5.038  13.465  0.00  0.00    +0.000 A 
ATOM     23  C   UNL     1       6.553   4.340  12.699  0.00  0.00    +0.000 A 
ATOM     24  C   UNL     1       5.535   3.621  13.326  0.00  0.00    +0.000 A 
ATOM     25  C   UNL     1       5.435   3.614  14.720  0.00  0.00    +0.000 A 
ENDBRANCH  19  20
ENDBRANCH   4  19
TORSDOF 4
ENDMDL
MODEL 4
REMARK VINA RESULT:      -7.4      0.750      1.073
REMARK  Name = 
REMARK  4 active torsions:
REMARK  status: ('A' for Active; 'I' for Inactive)
REMARK    1  A    between atoms: N_3  and  C_4
REMARK    2  A    between atoms: N_10  and  C_11
REMARK    3  A    between atoms: N_10  and  C_18
REMARK    4  A    between atoms: C_11  and  C_12
REMARK                            x       y       z     vdW  Elec       q    Type
REMARK                         _______ _______ _______ _____ _____    ______ ____
ROOT
ATOM      1  O   UNL     1       3.487   7.743  17.632  0.00  0.00    +0.000 OA
ATOM      2  C   UNL     1       2.777   6.978  18.278  0.00  0.00    +0.000 C 
ATOM      3  N   UNL     1       1.880   7.438  19.208  0.00  0.00    +0.000 N 
ATOM      4  N   UNL     1       2.797   5.589  18.098  0.00  0.00    +0.000 N 
ATOM      5  H   UNL     1       1.775   6.863  20.026  0.00  0.00    +0.000 HD
ENDROOT
BRANCH   4   6
ATOM      6  C   UNL     1       2.309   4.584  19.060  0.00  0.00    +0.000 C 
ATOM      7  C   UNL     1       2.210   3.205  18.377  0.00  0.00    +0.000 C 
ATOM      8  C   UNL     1       2.073   2.180  19.479  0.00  0.00    +0.000 C 
ATOM      9  S   UNL     1       3.240   2.725  20.701  0.00  0.00    +0.000 S 
ATOM     10  O   UNL     1       4.560   2.345  20.246  0.00  0.00    +0.000 OA
ATOM     11  O   UNL     1       2.741   2.395  22.016  0.00  0.00    +0.000 OA
ATOM     12  C   UNL     1       3.050   4.473  20.405  0.00  0.00    +0.000 C 
ENDBRANCH   4   6
BRANCH   3  13
ATOM     13  C   UNL     1       1.652   8.854  19.527  0.00  0.00    +0.000 C 
ATOM     14  C   UNL     1       0.948   8.925  20.891  0.00  0.00    +0.000 C 
ATOM     15  C   UNL     1       0.596  10.352  21.271  0.00  0.00    +0.000 C 
ATOM     16  O   UNL     1      -0.184  10.968  20.250  0.00  0.00    +0.000 OA
ATOM     17  C   UNL     1       0.514  11.028  19.007  0.00  0.00    +0.000 C 
ATOM     18  C   UNL     1       0.828   9.628  18.492  0.00  0.00    +0.000 C 
ENDBRANCH   3  13
BRANCH   4  19
ATOM     19  C   UNL     1       3.720   5.089  17.067  0.00  0.00    +0.000 C 
BRANCH  19  20
ATOM     20  C   UNL     1       5.155   5.039  17.538  0.00  0.00    +0.000 A 
ATOM     21  C   UNL     1       5.487   5.513  18.816  0.00  0.00    +0.000 A 
ATOM     22  C   UNL     1       6.810   5.515  19.257  0.00  0.00    +0.000 A 
ATOM     23  C   UNL     1       7.819   5.036  18.427  0.00  0.00    +0.000 A 
ATOM     24  C   UNL     1       7.503   4.543  17.161  0.00  0.00    +0.000 A 
ATOM     25  C   UNL     1       6.177   4.544  16.717  0.00  0.00    +0.000 A 
ENDBRANCH  19  20
ENDBRANCH   4  19
TORSDOF 4
ENDMDL
MODEL 5
REMARK VINA RESULT:      -7.4      2.538      4.714
REMARK  Name = 
REMARK  4 active torsions:
REMARK  status: ('A' for Active; 'I' for Inactive)
REMARK    1  A    between atoms: N_3  and  C_4
REMARK    2  A    between atoms: N_10  and  C_11
REMARK    3  A    between atoms: N_10  and  C_18
REMARK    4  A    between atoms: C_11  and  C_12
REMARK                            x       y       z     vdW  Elec       q    Type
REMARK                         _______ _______ _______ _____ _____    ______ ____
ROOT
ATOM      1  O   UNL     1       1.492   6.141  18.086  0.00  0.00    +0.000 OA
ATOM      2  C   UNL     1       2.689   6.408  18.038  0.00  0.00    +0.000 C 
ATOM      3  N   UNL     1       3.153   7.682  18.246  0.00  0.00    +0.000 N 
ATOM      4  N   UNL     1       3.673   5.440  17.804  0.00  0.00    +0.000 N 
ATOM      5  H   UNL     1       3.942   7.949  17.684  0.00  0.00    +0.000 HD
ENDROOT
BRANCH   4   6
ATOM      6  C   UNL     1       5.048   5.699  17.337  0.00  0.00    +0.000 C 
ATOM      7  C   UNL     1       6.021   4.687  17.976  0.00  0.00    +0.000 C 
ATOM      8  C   UNL     1       7.309   4.763  17.189  0.00  0.00    +0.000 C 
ATOM      9  S   UNL     1       6.762   4.854  15.502  0.00  0.00    +0.000 S 
ATOM     10  O   UNL     1       6.365   3.523  15.097  0.00  0.00    +0.000 OA
ATOM     11  O   UNL     1       7.692   5.659  14.744  0.00  0.00    +0.000 OA
ATOM     12  C   UNL     1       5.275   5.787  15.817  0.00  0.00    +0.000 C 
ENDBRANCH   4   6
BRANCH   3  13
ATOM     13  C   UNL     1       2.309   8.843  18.557  0.00  0.00    +0.000 C 
ATOM     14  C   UNL     1       1.738   8.649  19.971  0.00  0.00    +0.000 C 
ATOM     15  C   UNL     1       0.783   9.766  20.353  0.00  0.00    +0.000 C 
ATOM     16  O   UNL     1      -0.255   9.895  19.385  0.00  0.00    +0.000 OA
ATOM     17  C   UNL     1       0.256  10.208  18.092  0.00  0.00    +0.000 C 
ATOM     18  C   UNL     1       1.156   9.090  17.577  0.00  0.00    +0.000 C 
ENDBRANCH   3  13
BRANCH   4  19
ATOM     19  C   UNL     1       3.190   4.061  17.628  0.00  0.00    +0.000 C 
BRANCH  19  20
ATOM     20  C   UNL     1       2.538   3.505  18.873  0.00  0.00    +0.000 A 
ATOM     21  C   UNL     1       3.213   3.564  20.100  0.00  0.00    +0.000 A 
ATOM     22  C   UNL     1       2.648   3.021  21.254  0.00  0.00    +0.000 A 
ATOM     23  C   UNL     1       1.396   2.417  21.196  0.00  0.00    +0.000 A 
ATOM     24  C   UNL     1       0.703   2.368  19.987  0.00  0.00    +0.000 A 
ATOM     25  C   UNL     1       1.270   2.909  18.829  0.00  0.00    +0.000 A 
ENDBRANCH  19  20
ENDBRANCH   4  19
TORSDOF 4
ENDMDL
MODEL 6
REMARK VINA RESULT:      -7.3      2.474      4.620
REMARK  Name = 
REMARK  4 active torsions:
REMARK  status: ('A' for Active; 'I' for Inactive)
REMARK    1  A    between atoms: N_3  and  C_4
REMARK    2  A    between atoms: N_10  and  C_11
REMARK    3  A    between atoms: N_10  and  C_18
REMARK    4  A    between atoms: C_11  and  C_12
REMARK                            x       y       z     vdW  Elec       q    Type
REMARK                         _______ _______ _______ _____ _____    ______ ____
ROOT
ATOM      1  O   UNL     1       1.386   6.268  18.122  0.00  0.00    +0.000 OA
ATOM      2  C   UNL     1       2.577   6.557  18.064  0.00  0.00    +0.000 C 
ATOM      3  N   UNL     1       3.023   7.832  18.297  0.00  0.00    +0.000 N 
ATOM      4  N   UNL     1       3.574   5.612  17.790  0.00  0.00    +0.000 N 
ATOM      5  H   UNL     1       3.798   8.128  17.730  0.00  0.00    +0.000 HD
ENDROOT
BRANCH   4   6
ATOM      6  C   UNL     1       4.937   5.906  17.310  0.00  0.00    +0.000 C 
ATOM      7  C   UNL     1       5.970   5.114  18.137  0.00  0.00    +0.000 C 
ATOM      8  C   UNL     1       7.273   5.165  17.373  0.00  0.00    +0.000 C 
ATOM      9  S   UNL     1       6.778   4.908  15.688  0.00  0.00    +0.000 S 
ATOM     10  O   UNL     1       6.510   3.496  15.520  0.00  0.00    +0.000 OA
ATOM     11  O   UNL     1       7.662   5.646  14.815  0.00  0.00    +0.000 OA
ATOM     12  C   UNL     1       5.207   5.745  15.803  0.00  0.00    +0.000 C 
ENDBRANCH   4   6
BRANCH   3  13
ATOM     13  C   UNL     1       2.164   8.971  18.651  0.00  0.00    +0.000 C 
ATOM     14  C   UNL     1       1.524   8.675  20.016  0.00  0.00    +0.000 C 
ATOM     15  C   UNL     1       0.550   9.764  20.431  0.00  0.00    +0.000 C 
ATOM     16  O   UNL     1      -0.438   9.968  19.425  0.00  0.00    +0.000 OA
ATOM     17  C   UNL     1       0.137  10.373  18.185  0.00  0.00    +0.000 C 
ATOM     18  C   UNL     1       1.062   9.293  17.635  0.00  0.00    +0.000 C 
ENDBRANCH   3  13
BRANCH   4  19
ATOM     19  C   UNL     1       3.112   4.230  17.586  0.00  0.00    +0.000 C 
BRANCH  19  20
ATOM     20  C   UNL     1       2.563   3.603  18.847  0.00  0.00    +0.000 A 
ATOM     21  C   UNL     1       1.212   3.230  18.910  0.00  0.00    +0.000 A 
ATOM     22  C   UNL     1       0.674   2.686  20.076  0.00  0.00    +0.000 A 
ATOM     23  C   UNL     1       1.483   2.502  21.194  0.00  0.00    +0.000 A 
ATOM     24  C   UNL     1       2.833   2.849  21.140  0.00  0.00    +0.000 A 
ATOM     25  C   UNL     1       3.373   3.397  19.973  0.00  0.00    +0.000 A 
ENDBRANCH  19  20
ENDBRANCH   4  19
TORSDOF 4
ENDMDL
MODEL 7
REMARK VINA RESULT:      -7.2      2.509      4.734
REMARK  Name = 
REMARK  4 active torsions:
REMARK  status: ('A' for Active; 'I' for Inactive)
REMARK    1  A    between atoms: N_3  and  C_4
REMARK    2  A    between atoms: N_10  and  C_11
REMARK    3  A    between atoms: N_10  and  C_18
REMARK    4  A    between atoms: C_11  and  C_12
REMARK                            x       y       z     vdW  Elec       q    Type
REMARK                         _______ _______ _______ _____ _____    ______ ____
ROOT
ATOM      1  O   UNL     1       1.280   6.228  17.879  0.00  0.00    +0.000 OA
ATOM      2  C   UNL     1       2.461   6.562  17.878  0.00  0.00    +0.000 C 
ATOM      3  N   UNL     1       2.841   7.870  18.037  0.00  0.00    +0.000 N 
ATOM      4  N   UNL     1       3.510   5.643  17.750  0.00  0.00    +0.000 N 
ATOM      5  H   UNL     1       3.643   8.153  17.502  0.00  0.00    +0.000 HD
ENDROOT
BRANCH   4   6
ATOM      6  C   UNL     1       4.891   5.957  17.341  0.00  0.00    +0.000 C 
ATOM      7  C   UNL     1       5.891   5.174  18.216  0.00  0.00    +0.000 C 
ATOM      8  C   UNL     1       7.231   5.245  17.520  0.00  0.00    +0.000 C 
ATOM      9  S   UNL     1       6.825   4.990  15.811  0.00  0.00    +0.000 S 
ATOM     10  O   UNL     1       6.584   3.576  15.624  0.00  0.00    +0.000 OA
ATOM     11  O   UNL     1       7.742   5.743  14.987  0.00  0.00    +0.000 OA
ATOM     12  C   UNL     1       5.240   5.806  15.849  0.00  0.00    +0.000 C 
ENDBRANCH   4   6
BRANCH   3  13
ATOM     13  C   UNL     1       1.917   8.995  18.239  0.00  0.00    +0.000 C 
ATOM     14  C   UNL     1       2.672  10.293  17.910  0.00  0.00    +0.000 C 
ATOM     15  C   UNL     1       1.820  11.523  18.167  0.00  0.00    +0.000 C 
ATOM     16  O   UNL     1       1.334  11.528  19.506  0.00  0.00    +0.000 OA
ATOM     17  C   UNL     1       0.519  10.391  19.784  0.00  0.00    +0.000 C 
ATOM     18  C   UNL     1       1.320   9.101  19.646  0.00  0.00    +0.000 C 
ENDBRANCH   3  13
BRANCH   4  19
ATOM     19  C   UNL     1       3.115   4.231  17.628  0.00  0.00    +0.000 C 
BRANCH  19  20
ATOM     20  C   UNL     1       2.511   3.677  18.898  0.00  0.00    +0.000 A 
ATOM     21  C   UNL     1       1.309   2.958  18.843  0.00  0.00    +0.000 A 
ATOM     22  C   UNL     1       0.713   2.472  20.007  0.00  0.00    +0.000 A 
ATOM     23  C   UNL     1       1.316   2.695  21.242  0.00  0.00    +0.000 A 
ATOM     24  C   UNL     1       2.523   3.392  21.310  0.00  0.00    +0.000 A 
ATOM     25  C   UNL     1       3.120   3.882  20.145  0.00  0.00    +0.000 A 
ENDBRANCH  19  20
ENDBRANCH   4  19
TORSDOF 4
ENDMDL
MODEL 8
REMARK VINA RESULT:      -7.1      3.245      6.449
REMARK  Name = 
REMARK  4 active torsions:
REMARK  status: ('A' for Active; 'I' for Inactive)
REMARK    1  A    between atoms: N_3  and  C_4
REMARK    2  A    between atoms: N_10  and  C_11
REMARK    3  A    between atoms: N_10  and  C_18
REMARK    4  A    between atoms: C_11  and  C_12
REMARK                            x       y       z     vdW  Elec       q    Type
REMARK                         _______ _______ _______ _____ _____    ______ ____
ROOT
ATOM      1  O   UNL     1       5.590   6.293  16.420  0.00  0.00    +0.000 OA
ATOM      2  C   UNL     1       5.089   5.177  16.522  0.00  0.00    +0.000 C 
ATOM      3  N   UNL     1       5.053   4.303  15.466  0.00  0.00    +0.000 N 
ATOM      4  N   UNL     1       4.549   4.695  17.721  0.00  0.00    +0.000 N 
ATOM      5  H   UNL     1       4.227   3.735  15.407  0.00  0.00    +0.000 HD
ENDROOT
BRANCH   4   6
ATOM      6  C   UNL     1       3.593   3.580  17.852  0.00  0.00    +0.000 C 
ATOM      7  C   UNL     1       3.815   2.852  19.194  0.00  0.00    +0.000 C 
ATOM      8  C   UNL     1       2.597   1.988  19.429  0.00  0.00    +0.000 C 
ATOM      9  S   UNL     1       1.245   3.037  18.952  0.00  0.00    +0.000 S 
ATOM     10  O   UNL     1       1.023   3.981  20.025  0.00  0.00    +0.000 OA
ATOM     11  O   UNL     1       0.189   2.225  18.392  0.00  0.00    +0.000 OA
ATOM     12  C   UNL     1       2.101   3.897  17.645  0.00  0.00    +0.000 C 
ENDBRANCH   4   6
BRANCH   3  13
ATOM     13  C   UNL     1       5.605   4.574  14.132  0.00  0.00    +0.000 C 
ATOM     14  C   UNL     1       5.241   3.392  13.220  0.00  0.00    +0.000 C 
ATOM     15  C   UNL     1       5.840   3.544  11.833  0.00  0.00    +0.000 C 
ATOM     16  O   UNL     1       7.251   3.728  11.910  0.00  0.00    +0.000 OA
ATOM     17  C   UNL     1       7.598   4.900  12.644  0.00  0.00    +0.000 C 
ATOM     18  C   UNL     1       7.121   4.798  14.088  0.00  0.00    +0.000 C 
ENDBRANCH   3  13
BRANCH   4  19
ATOM     19  C   UNL     1       4.626   5.607  18.873  0.00  0.00    +0.000 C 
BRANCH  19  20
ATOM     20  C   UNL     1       3.514   6.630  18.888  0.00  0.00    +0.000 A 
ATOM     21  C   UNL     1       3.338   7.485  17.791  0.00  0.00    +0.000 A 
ATOM     22  C   UNL     1       2.344   8.464  17.799  0.00  0.00    +0.000 A 
ATOM     23  C   UNL     1       1.508   8.595  18.904  0.00  0.00    +0.000 A 
ATOM     24  C   UNL     1       1.658   7.739  19.995  0.00  0.00    +0.000 A 
ATOM     25  C   UNL     1       2.656   6.760  19.989  0.00  0.00    +0.000 A 
ENDBRANCH  19  20
ENDBRANCH   4  19
TORSDOF 4
ENDMDL
MODEL 9
REMARK VINA RESULT:      -7.0      2.534      4.828
REMARK  Name = 
REMARK  4 active torsions:
REMARK  status: ('A' for Active; 'I' for Inactive)
REMARK    1  A    between atoms: N_3  and  C_4
REMARK    2  A    between atoms: N_10  and  C_11
REMARK    3  A    between atoms: N_10  and  C_18
REMARK    4  A    between atoms: C_11  and  C_12
REMARK                            x       y       z     vdW  Elec       q    Type
REMARK                         _______ _______ _______ _____ _____    ______ ____
ROOT
ATOM      1  O   UNL     1       1.514   5.757  18.181  0.00  0.00    +0.000 OA
ATOM      2  C   UNL     1       2.593   6.279  17.916  0.00  0.00    +0.000 C 
ATOM      3  N   UNL     1       2.786   7.632  18.023  0.00  0.00    +0.000 N 
ATOM      4  N   UNL     1       3.715   5.541  17.520  0.00  0.00    +0.000 N 
ATOM      5  H   UNL     1       3.385   8.037  17.325  0.00  0.00    +0.000 HD
ENDROOT
BRANCH   4   6
ATOM      6  C   UNL     1       4.894   6.071  16.810  0.00  0.00    +0.000 C 
ATOM      7  C   UNL     1       5.990   6.455  17.825  0.00  0.00    +0.000 C 
ATOM      8  C   UNL     1       7.270   6.630  17.039  0.00  0.00    +0.000 C 
ATOM      9  S   UNL     1       7.248   5.267  15.901  0.00  0.00    +0.000 S 
ATOM     10  O   UNL     1       7.630   4.078  16.633  0.00  0.00    +0.000 OA
ATOM     11  O   UNL     1       7.888   5.667  14.669  0.00  0.00    +0.000 OA
ATOM     12  C   UNL     1       5.480   5.215  15.673  0.00  0.00    +0.000 C 
ENDBRANCH   4   6
BRANCH   3  13
ATOM     13  C   UNL     1       1.768   8.594  18.467  0.00  0.00    +0.000 C 
ATOM     14  C   UNL     1       2.193   9.990  17.985  0.00  0.00    +0.000 C 
ATOM     15  C   UNL     1       1.239  11.068  18.468  0.00  0.00    +0.000 C 
ATOM     16  O   UNL     1       1.106  11.025  19.886  0.00  0.00    +0.000 OA
ATOM     17  C   UNL     1       0.585   9.777  20.337  0.00  0.00    +0.000 C 
ATOM     18  C   UNL     1       1.530   8.634  19.981  0.00  0.00    +0.000 C 
ENDBRANCH   3  13
BRANCH   4  19
ATOM     19  C   UNL     1       3.532   4.082  17.449  0.00  0.00    +0.000 C 
BRANCH  19  20
ATOM     20  C   UNL     1       2.855   3.515  18.676  0.00  0.00    +0.000 A 
ATOM     21  C   UNL     1       3.490   3.597  19.924  0.00  0.00    +0.000 A 
ATOM     22  C   UNL     1       2.903   3.045  21.062  0.00  0.00    +0.000 A 
ATOM     23  C   UNL     1       1.668   2.410  20.968  0.00  0.00    +0.000 A 
ATOM     24  C   UNL     1       1.015   2.338  19.738  0.00  0.00    +0.000 A 
ATOM     25  C   UNL     1       1.604   2.888  18.595  0.00  0.00    +0.000 A 
ENDBRANCH  19  20
ENDBRANCH   4  19
TORSDOF 4
ENDMDL
