MODEL 1
REMARK VINA RESULT:      -6.8      0.000      0.000
REMARK  Name = 
REMARK  8 active torsions:
REMARK  status: ('A' for Active; 'I' for Inactive)
REMARK    1  A    between atoms: C_1  and  C_2
REMARK    2  A    between atoms: C_2  and  C_3
REMARK    3  A    between atoms: C_3  and  N_4
REMARK    4  A    between atoms: C_12  and  O_13
REMARK    5  A    between atoms: C_15  and  C_16
REMARK    6  A    between atoms: C_16  and  C_17
REMARK    7  A    between atoms: C_19  and  O_20
REMARK    8  A    between atoms: O_20  and  C_21
REMARK                            x       y       z     vdW  Elec       q    Type
REMARK                         _______ _______ _______ _____ _____    ______ ____
ROOT
ATOM      1  N   UNL     1       1.946   7.300  18.290  0.00  0.00    +0.000 NA
ATOM      2  C   UNL     1       2.131   7.387  19.734  0.00  0.00    +0.000 C 
ATOM      3  C   UNL     1       2.025   6.017  20.414  0.00  0.00    +0.000 C 
ATOM      4  C   UNL     1       2.458   4.827  19.584  0.00  0.00    +0.000 A 
ATOM      5  C   UNL     1       2.402   3.522  20.103  0.00  0.00    +0.000 A 
ATOM      6 BR   UNL     1       1.934   3.171  21.912  0.00  0.00    +0.000 Br
ATOM      7  C   UNL     1       2.679   2.418  19.293  0.00  0.00    +0.000 A 
ATOM      8  C   UNL     1       3.005   2.596  17.952  0.00  0.00    +0.000 A 
ATOM      9  C   UNL     1       3.080   3.885  17.431  0.00  0.00    +0.000 A 
ATOM     10  C   UNL     1       2.831   5.011  18.233  0.00  0.00    +0.000 A 
ATOM     11  C   UNL     1       2.952   6.414  17.654  0.00  0.00    +0.000 C 
ENDROOT
BRANCH   9  12
ATOM     12  O   UNL     1       3.421   4.064  16.118  0.00  0.00    +0.000 OA
ATOM     13  H   UNL     1       2.820   4.719  15.725  0.00  0.00    +0.000 HD
ENDBRANCH   9  12
BRANCH   1  14
ATOM     14  C   UNL     1       1.695   8.592  17.659  0.00  0.00    +0.000 C 
BRANCH  14  16
ATOM     15  C   UNL     1      -0.154  10.118  18.589  0.00  0.00    +0.000 C 
ATOM     16  C   UNL     1       1.321   9.736  18.619  0.00  0.00    +0.000 C 
ENDBRANCH  14  16
ENDBRANCH   1  14
BRANCH  11  17
ATOM     17  C   UNL     1       4.443   6.900  17.524  0.00  0.00    +0.000 C 
BRANCH  17  18
ATOM     18  C   UNL     1       5.520   6.034  16.881  0.00  0.00    +0.000 A 
ATOM     19  C   UNL     1       5.507   5.894  15.472  0.00  0.00    +0.000 A 
ATOM     20  C   UNL     1       6.436   5.095  14.797  0.00  0.00    +0.000 A 
ATOM     21  C   UNL     1       7.402   4.412  15.530  0.00  0.00    +0.000 A 
ATOM     22  C   UNL     1       7.425   4.506  16.919  0.00  0.00    +0.000 A 
ATOM     23  C   UNL     1       6.484   5.295  17.593  0.00  0.00    +0.000 A 
ATOM     24 BR   UNL     1       6.550   5.191  19.486  0.00  0.00    +0.000 Br
BRANCH  20  25
ATOM     25  O   UNL     1       6.498   4.893  13.447  0.00  0.00    +0.000 OA
ATOM     26  C   UNL     1       6.206   3.587  12.969  0.00  0.00    +0.000 C 
ENDBRANCH  20  25
ENDBRANCH  17  18
ENDBRANCH  11  17
TORSDOF 6
ENDMDL
MODEL 2
REMARK VINA RESULT:      -6.3      8.042     11.012
REMARK  Name = 
REMARK  8 active torsions:
REMARK  status: ('A' for Active; 'I' for Inactive)
REMARK    1  A    between atoms: C_1  and  C_2
REMARK    2  A    between atoms: C_2  and  C_3
REMARK    3  A    between atoms: C_3  and  N_4
REMARK    4  A    between atoms: C_12  and  O_13
REMARK    5  A    between atoms: C_15  and  C_16
REMARK    6  A    between atoms: C_16  and  C_17
REMARK    7  A    between atoms: C_19  and  O_20
REMARK    8  A    between atoms: O_20  and  C_21
REMARK                            x       y       z     vdW  Elec       q    Type
REMARK                         _______ _______ _______ _____ _____    ______ ____
ROOT
ATOM      1  N   UNL     1      -0.722  10.399  19.776  0.00  0.00    +0.000 NA
ATOM      2  C   UNL     1      -0.089  10.287  18.467  0.00  0.00    +0.000 C 
ATOM      3  C   UNL     1      -1.117  10.181  17.335  0.00  0.00    +0.000 C 
ATOM      4  C   UNL     1      -2.439  10.881  17.569  0.00  0.00    +0.000 A 
ATOM      5  C   UNL     1      -3.458  10.850  16.601  0.00  0.00    +0.000 A 
ATOM      6 BR   UNL     1      -3.201  10.070  14.886  0.00  0.00    +0.000 Br
ATOM      7  C   UNL     1      -4.719  11.386  16.872  0.00  0.00    +0.000 A 
ATOM      8  C   UNL     1      -4.988  11.950  18.116  0.00  0.00    +0.000 A 
ATOM      9  C   UNL     1      -3.981  12.003  19.077  0.00  0.00    +0.000 A 
ATOM     10  C   UNL     1      -2.699  11.494  18.816  0.00  0.00    +0.000 A 
ATOM     11  C   UNL     1      -1.601  11.591  19.867  0.00  0.00    +0.000 C 
ENDROOT
BRANCH   9  12
ATOM     12  O   UNL     1      -4.238  12.577  20.292  0.00  0.00    +0.000 OA
ATOM     13  H   UNL     1      -4.956  12.085  20.725  0.00  0.00    +0.000 HD
ENDBRANCH   9  12
BRANCH   1  14
ATOM     14  C   UNL     1       0.194  10.154  20.885  0.00  0.00    +0.000 C 
BRANCH  14  16
ATOM     15  C   UNL     1      -0.843  10.162  23.238  0.00  0.00    +0.000 C 
ATOM     16  C   UNL     1      -0.381   9.328  22.050  0.00  0.00    +0.000 C 
ENDBRANCH  14  16
ENDBRANCH   1  14
BRANCH  11  17
ATOM     17  C   UNL     1      -0.959  13.024  19.956  0.00  0.00    +0.000 C 
BRANCH  17  18
ATOM     18  C   UNL     1      -0.897  13.801  21.266  0.00  0.00    +0.000 A 
ATOM     19  C   UNL     1      -1.880  13.526  22.248  0.00  0.00    +0.000 A 
ATOM     20  C   UNL     1      -1.922  14.209  23.467  0.00  0.00    +0.000 A 
ATOM     21  C   UNL     1      -0.973  15.193  23.726  0.00  0.00    +0.000 A 
ATOM     22  C   UNL     1      -0.009  15.507  22.771  0.00  0.00    +0.000 A 
ATOM     23  C   UNL     1       0.020  14.831  21.545  0.00  0.00    +0.000 A 
ATOM     24 BR   UNL     1       1.289  15.484  20.294  0.00  0.00    +0.000 Br
BRANCH  20  25
ATOM     25  O   UNL     1      -2.833  14.020  24.469  0.00  0.00    +0.000 OA
ATOM     26  C   UNL     1      -3.821  13.017  24.272  0.00  0.00    +0.000 C 
ENDBRANCH  20  25
ENDBRANCH  17  18
ENDBRANCH  11  17
TORSDOF 6
ENDMDL
MODEL 3
REMARK VINA RESULT:      -6.1      4.987      8.064
REMARK  Name = 
REMARK  8 active torsions:
REMARK  status: ('A' for Active; 'I' for Inactive)
REMARK    1  A    between atoms: C_1  and  C_2
REMARK    2  A    between atoms: C_2  and  C_3
REMARK    3  A    between atoms: C_3  and  N_4
REMARK    4  A    between atoms: C_12  and  O_13
REMARK    5  A    between atoms: C_15  and  C_16
REMARK    6  A    between atoms: C_16  and  C_17
REMARK    7  A    between atoms: C_19  and  O_20
REMARK    8  A    between atoms: O_20  and  C_21
REMARK                            x       y       z     vdW  Elec       q    Type
REMARK                         _______ _______ _______ _____ _____    ______ ____
ROOT
ATOM      1  N   UNL     1      -0.619  10.600  20.551  0.00  0.00    +0.000 NA
ATOM      2  C   UNL     1      -0.349   9.782  21.727  0.00  0.00    +0.000 C 
ATOM      3  C   UNL     1       0.348   8.464  21.368  0.00  0.00    +0.000 C 
ATOM      4  C   UNL     1       1.242   8.497  20.147  0.00  0.00    +0.000 A 
ATOM      5  C   UNL     1       1.931   7.348  19.722  0.00  0.00    +0.000 A 
ATOM      6 BR   UNL     1       1.915   5.730  20.721  0.00  0.00    +0.000 Br
ATOM      7  C   UNL     1       2.651   7.347  18.525  0.00  0.00    +0.000 A 
ATOM      8  C   UNL     1       2.688   8.488  17.728  0.00  0.00    +0.000 A 
ATOM      9  C   UNL     1       2.024   9.639  18.148  0.00  0.00    +0.000 A 
ATOM     10  C   UNL     1       1.315   9.669  19.360  0.00  0.00    +0.000 A 
ATOM     11  C   UNL     1       0.624  10.946  19.819  0.00  0.00    +0.000 C 
ENDROOT
BRANCH   9  12
ATOM     12  O   UNL     1       2.076  10.767  17.376  0.00  0.00    +0.000 OA
ATOM     13  H   UNL     1       1.285  10.797  16.812  0.00  0.00    +0.000 HD
ENDBRANCH   9  12
BRANCH   1  14
ATOM     14  C   UNL     1      -1.573  11.677  20.800  0.00  0.00    +0.000 C 
BRANCH  14  16
ATOM     15  C   UNL     1      -2.643  11.426  18.476  0.00  0.00    +0.000 C 
ATOM     16  C   UNL     1      -2.123  12.378  19.545  0.00  0.00    +0.000 C 
ENDBRANCH  14  16
ENDBRANCH   1  14
BRANCH  11  17
ATOM     17  C   UNL     1       1.620  11.998  20.433  0.00  0.00    +0.000 C 
BRANCH  17  18
ATOM     18  C   UNL     1       1.651  13.449  19.963  0.00  0.00    +0.000 A 
ATOM     19  C   UNL     1       2.455  13.766  18.842  0.00  0.00    +0.000 A 
ATOM     20  C   UNL     1       2.571  15.073  18.358  0.00  0.00    +0.000 A 
ATOM     21  C   UNL     1       1.880  16.096  18.998  0.00  0.00    +0.000 A 
ATOM     22  C   UNL     1       1.102  15.823  20.120  0.00  0.00    +0.000 A 
ATOM     23  C   UNL     1       1.001  14.515  20.611  0.00  0.00    +0.000 A 
ATOM     24 BR   UNL     1       0.036  14.335  22.235  0.00  0.00    +0.000 Br
BRANCH  20  25
ATOM     25  O   UNL     1       3.326  15.476  17.292  0.00  0.00    +0.000 OA
ATOM     26  C   UNL     1       3.163  16.817  16.848  0.00  0.00    +0.000 C 
ENDBRANCH  20  25
ENDBRANCH  17  18
ENDBRANCH  11  17
TORSDOF 6
ENDMDL
MODEL 4
REMARK VINA RESULT:      -6.1      6.626      9.134
REMARK  Name = 
REMARK  8 active torsions:
REMARK  status: ('A' for Active; 'I' for Inactive)
REMARK    1  A    between atoms: C_1  and  C_2
REMARK    2  A    between atoms: C_2  and  C_3
REMARK    3  A    between atoms: C_3  and  N_4
REMARK    4  A    between atoms: C_12  and  O_13
REMARK    5  A    between atoms: C_15  and  C_16
REMARK    6  A    between atoms: C_16  and  C_17
REMARK    7  A    between atoms: C_19  and  O_20
REMARK    8  A    between atoms: O_20  and  C_21
REMARK                            x       y       z     vdW  Elec       q    Type
REMARK                         _______ _______ _______ _____ _____    ______ ____
ROOT
ATOM      1  N   UNL     1       1.601  12.591  19.301  0.00  0.00    +0.000 NA
ATOM      2  C   UNL     1       1.545  11.373  18.501  0.00  0.00    +0.000 C 
ATOM      3  C   UNL     1       1.276  10.130  19.358  0.00  0.00    +0.000 C 
ATOM      4  C   UNL     1       0.450  10.351  20.607  0.00  0.00    +0.000 A 
ATOM      5  C   UNL     1       0.142   9.285  21.470  0.00  0.00    +0.000 A 
ATOM      6 BR   UNL     1       0.598   7.485  21.059  0.00  0.00    +0.000 Br
ATOM      7  C   UNL     1      -0.508   9.513  22.686  0.00  0.00    +0.000 A 
ATOM      8  C   UNL     1      -0.851  10.808  23.065  0.00  0.00    +0.000 A 
ATOM      9  C   UNL     1      -0.567  11.870  22.210  0.00  0.00    +0.000 A 
ATOM     10  C   UNL     1       0.063  11.661  20.972  0.00  0.00    +0.000 A 
ATOM     11  C   UNL     1       0.335  12.830  20.036  0.00  0.00    +0.000 C 
ENDROOT
BRANCH   9  12
ATOM     12  O   UNL     1      -0.922  13.141  22.572  0.00  0.00    +0.000 OA
ATOM     13  H   UNL     1      -1.007  13.682  21.769  0.00  0.00    +0.000 HD
ENDBRANCH   9  12
BRANCH   1  14
ATOM     14  C   UNL     1       2.189  13.723  18.592  0.00  0.00    +0.000 C 
BRANCH  14  16
ATOM     15  C   UNL     1       2.925  16.154  18.992  0.00  0.00    +0.000 C 
ATOM     16  C   UNL     1       2.991  14.706  19.463  0.00  0.00    +0.000 C 
ENDBRANCH  14  16
ENDBRANCH   1  14
BRANCH  11  17
ATOM     17  C   UNL     1      -0.944  13.299  19.249  0.00  0.00    +0.000 C 
BRANCH  17  18
ATOM     18  C   UNL     1      -1.969  12.307  18.711  0.00  0.00    +0.000 A 
ATOM     19  C   UNL     1      -1.649  11.598  17.528  0.00  0.00    +0.000 A 
ATOM     20  C   UNL     1      -2.538  10.691  16.943  0.00  0.00    +0.000 A 
ATOM     21  C   UNL     1      -3.779  10.479  17.537  0.00  0.00    +0.000 A 
ATOM     22  C   UNL     1      -4.136  11.181  18.686  0.00  0.00    +0.000 A 
ATOM     23  C   UNL     1      -3.248  12.100  19.260  0.00  0.00    +0.000 A 
ATOM     24 BR   UNL     1      -3.943  13.088  20.723  0.00  0.00    +0.000 Br
BRANCH  20  25
ATOM     25  O   UNL     1      -2.323   9.969  15.803  0.00  0.00    +0.000 OA
ATOM     26  C   UNL     1      -3.189  10.213  14.703  0.00  0.00    +0.000 C 
ENDBRANCH  20  25
ENDBRANCH  17  18
ENDBRANCH  11  17
TORSDOF 6
ENDMDL
MODEL 5
REMARK VINA RESULT:      -6.0      6.820     10.489
REMARK  Name = 
REMARK  8 active torsions:
REMARK  status: ('A' for Active; 'I' for Inactive)
REMARK    1  A    between atoms: C_1  and  C_2
REMARK    2  A    between atoms: C_2  and  C_3
REMARK    3  A    between atoms: C_3  and  N_4
REMARK    4  A    between atoms: C_12  and  O_13
REMARK    5  A    between atoms: C_15  and  C_16
REMARK    6  A    between atoms: C_16  and  C_17
REMARK    7  A    between atoms: C_19  and  O_20
REMARK    8  A    between atoms: O_20  and  C_21
REMARK                            x       y       z     vdW  Elec       q    Type
REMARK                         _______ _______ _______ _____ _____    ______ ____
ROOT
ATOM      1  N   UNL     1      -4.538  12.133  19.344  0.00  0.00    +0.000 NA
ATOM      2  C   UNL     1      -5.513  13.218  19.320  0.00  0.00    +0.000 C 
ATOM      3  C   UNL     1      -6.104  13.495  20.707  0.00  0.00    +0.000 C 
ATOM      4  C   UNL     1      -5.197  13.209  21.885  0.00  0.00    +0.000 A 
ATOM      5  C   UNL     1      -5.632  13.424  23.204  0.00  0.00    +0.000 A 
ATOM      6 BR   UNL     1      -7.311  14.225  23.599  0.00  0.00    +0.000 Br
ATOM      7  C   UNL     1      -4.841  13.039  24.290  0.00  0.00    +0.000 A 
ATOM      8  C   UNL     1      -3.611  12.424  24.079  0.00  0.00    +0.000 A 
ATOM      9  C   UNL     1      -3.161  12.222  22.776  0.00  0.00    +0.000 A 
ATOM     10  C   UNL     1      -3.927  12.624  21.670  0.00  0.00    +0.000 A 
ATOM     11  C   UNL     1      -3.404  12.426  20.254  0.00  0.00    +0.000 C 
ENDROOT
BRANCH   9  12
ATOM     12  O   UNL     1      -1.942  11.636  22.566  0.00  0.00    +0.000 OA
ATOM     13  H   UNL     1      -2.051  10.671  22.593  0.00  0.00    +0.000 HD
ENDBRANCH   9  12
BRANCH   1  14
ATOM     14  C   UNL     1      -4.218  11.612  18.018  0.00  0.00    +0.000 C 
BRANCH  14  16
ATOM     15  C   UNL     1      -2.592   9.956  16.912  0.00  0.00    +0.000 C 
ATOM     16  C   UNL     1      -3.647  10.183  17.988  0.00  0.00    +0.000 C 
ENDBRANCH  14  16
ENDBRANCH   1  14
BRANCH  11  17
ATOM     17  C   UNL     1      -2.332  13.499  19.838  0.00  0.00    +0.000 C 
BRANCH  17  18
ATOM     18  C   UNL     1      -0.943  13.104  19.349  0.00  0.00    +0.000 A 
ATOM     19  C   UNL     1      -0.577  11.739  19.420  0.00  0.00    +0.000 A 
ATOM     20  C   UNL     1       0.685  11.286  19.024  0.00  0.00    +0.000 A 
ATOM     21  C   UNL     1       1.616  12.205  18.549  0.00  0.00    +0.000 A 
ATOM     22  C   UNL     1       1.298  13.560  18.492  0.00  0.00    +0.000 A 
ATOM     23  C   UNL     1       0.038  14.011  18.904  0.00  0.00    +0.000 A 
ATOM     24 BR   UNL     1      -0.181  15.895  18.916  0.00  0.00    +0.000 Br
BRANCH  20  25
ATOM     25  O   UNL     1       1.131   9.994  19.063  0.00  0.00    +0.000 OA
ATOM     26  C   UNL     1       1.894   9.535  17.956  0.00  0.00    +0.000 C 
ENDBRANCH  20  25
ENDBRANCH  17  18
ENDBRANCH  11  17
TORSDOF 6
ENDMDL
MODEL 6
REMARK VINA RESULT:      -6.0      7.587      9.909
REMARK  Name = 
REMARK  8 active torsions:
REMARK  status: ('A' for Active; 'I' for Inactive)
REMARK    1  A    between atoms: C_1  and  C_2
REMARK    2  A    between atoms: C_2  and  C_3
REMARK    3  A    between atoms: C_3  and  N_4
REMARK    4  A    between atoms: C_12  and  O_13
REMARK    5  A    between atoms: C_15  and  C_16
REMARK    6  A    between atoms: C_16  and  C_17
REMARK    7  A    between atoms: C_19  and  O_20
REMARK    8  A    between atoms: O_20  and  C_21
REMARK                            x       y       z     vdW  Elec       q    Type
REMARK                         _______ _______ _______ _____ _____    ______ ____
ROOT
ATOM      1  N   UNL     1       0.302  12.198  20.968  0.00  0.00    +0.000 NA
ATOM      2  C   UNL     1       0.066  13.361  21.816  0.00  0.00    +0.000 C 
ATOM      3  C   UNL     1       1.232  14.355  21.773  0.00  0.00    +0.000 C 
ATOM      4  C   UNL     1       2.012  14.408  20.477  0.00  0.00    +0.000 A 
ATOM      5  C   UNL     1       3.104  15.280  20.323  0.00  0.00    +0.000 A 
ATOM      6 BR   UNL     1       3.579  16.551  21.655  0.00  0.00    +0.000 Br
ATOM      7  C   UNL     1       3.899  15.235  19.175  0.00  0.00    +0.000 A 
ATOM      8  C   UNL     1       3.627  14.313  18.169  0.00  0.00    +0.000 A 
ATOM      9  C   UNL     1       2.537  13.455  18.302  0.00  0.00    +0.000 A 
ATOM     10  C   UNL     1       1.709  13.501  19.435  0.00  0.00    +0.000 A 
ATOM     11  C   UNL     1       0.503  12.579  19.548  0.00  0.00    +0.000 C 
ENDROOT
BRANCH   9  12
ATOM     12  O   UNL     1       2.255  12.563  17.305  0.00  0.00    +0.000 OA
ATOM     13  H   UNL     1       1.310  12.625  17.087  0.00  0.00    +0.000 HD
ENDBRANCH   9  12
BRANCH   1  14
ATOM     14  C   UNL     1      -0.603  11.087  21.243  0.00  0.00    +0.000 C 
BRANCH  14  16
ATOM     15  C   UNL     1       0.251   8.678  21.525  0.00  0.00    +0.000 C 
ATOM     16  C   UNL     1      -0.241   9.753  20.564  0.00  0.00    +0.000 C 
ENDBRANCH  14  16
ENDBRANCH   1  14
BRANCH  11  17
ATOM     17  C   UNL     1      -0.726  13.065  18.693  0.00  0.00    +0.000 C 
BRANCH  17  18
ATOM     18  C   UNL     1      -1.855  12.121  18.295  0.00  0.00    +0.000 A 
ATOM     19  C   UNL     1      -1.690  11.344  17.123  0.00  0.00    +0.000 A 
ATOM     20  C   UNL     1      -2.683  10.475  16.663  0.00  0.00    +0.000 A 
ATOM     21  C   UNL     1      -3.875  10.370  17.374  0.00  0.00    +0.000 A 
ATOM     22  C   UNL     1      -4.081  11.140  18.515  0.00  0.00    +0.000 A 
ATOM     23  C   UNL     1      -3.089  12.022  18.965  0.00  0.00    +0.000 A 
ATOM     24 BR   UNL     1      -3.585  13.112  20.436  0.00  0.00    +0.000 Br
BRANCH  20  25
ATOM     25  O   UNL     1      -2.618   9.693  15.543  0.00  0.00    +0.000 OA
ATOM     26  C   UNL     1      -3.370  10.111  14.412  0.00  0.00    +0.000 C 
ENDBRANCH  20  25
ENDBRANCH  17  18
ENDBRANCH  11  17
TORSDOF 6
ENDMDL
MODEL 7
REMARK VINA RESULT:      -6.0      6.742     11.272
REMARK  Name = 
REMARK  8 active torsions:
REMARK  status: ('A' for Active; 'I' for Inactive)
REMARK    1  A    between atoms: C_1  and  C_2
REMARK    2  A    between atoms: C_2  and  C_3
REMARK    3  A    between atoms: C_3  and  N_4
REMARK    4  A    between atoms: C_12  and  O_13
REMARK    5  A    between atoms: C_15  and  C_16
REMARK    6  A    between atoms: C_16  and  C_17
REMARK    7  A    between atoms: C_19  and  O_20
REMARK    8  A    between atoms: O_20  and  C_21
REMARK                            x       y       z     vdW  Elec       q    Type
REMARK                         _______ _______ _______ _____ _____    ______ ____
ROOT
ATOM      1  N   UNL     1      -0.132  13.358  20.281  0.00  0.00    +0.000 NA
ATOM      2  C   UNL     1      -0.197  12.940  18.885  0.00  0.00    +0.000 C 
ATOM      3  C   UNL     1       0.509  11.600  18.648  0.00  0.00    +0.000 C 
ATOM      4  C   UNL     1       0.508  10.633  19.813  0.00  0.00    +0.000 A 
ATOM      5  C   UNL     1       1.127   9.375  19.712  0.00  0.00    +0.000 A 
ATOM      6 BR   UNL     1       1.867   8.740  18.080  0.00  0.00    +0.000 Br
ATOM      7  C   UNL     1       1.236   8.540  20.826  0.00  0.00    +0.000 A 
ATOM      8  C   UNL     1       0.740   8.949  22.061  0.00  0.00    +0.000 A 
ATOM      9  C   UNL     1       0.108  10.186  22.170  0.00  0.00    +0.000 A 
ATOM     10  C   UNL     1      -0.035  11.031  21.057  0.00  0.00    +0.000 A 
ATOM     11  C   UNL     1      -0.758  12.364  21.187  0.00  0.00    +0.000 C 
ENDROOT
BRANCH   9  12
ATOM     12  O   UNL     1      -0.399  10.581  23.377  0.00  0.00    +0.000 OA
ATOM     13  H   UNL     1      -0.643  11.520  23.322  0.00  0.00    +0.000 HD
ENDBRANCH   9  12
BRANCH   1  14
ATOM     14  C   UNL     1      -0.477  14.761  20.483  0.00  0.00    +0.000 C 
BRANCH  14  16
ATOM     15  C   UNL     1      -0.441  16.555  18.641  0.00  0.00    +0.000 C 
ATOM     16  C   UNL     1       0.358  15.771  19.675  0.00  0.00    +0.000 C 
ENDBRANCH  14  16
ENDBRANCH   1  14
BRANCH  11  17
ATOM     17  C   UNL     1      -2.324  12.215  21.213  0.00  0.00    +0.000 C 
BRANCH  17  18
ATOM     18  C   UNL     1      -3.195  13.010  22.180  0.00  0.00    +0.000 A 
ATOM     19  C   UNL     1      -2.596  13.492  23.369  0.00  0.00    +0.000 A 
ATOM     20  C   UNL     1      -3.322  14.204  24.329  0.00  0.00    +0.000 A 
ATOM     21  C   UNL     1      -4.676  14.444  24.115  0.00  0.00    +0.000 A 
ATOM     22  C   UNL     1      -5.302  13.960  22.969  0.00  0.00    +0.000 A 
ATOM     23  C   UNL     1      -4.574  13.234  22.017  0.00  0.00    +0.000 A 
ATOM     24 BR   UNL     1      -5.603  12.509  20.597  0.00  0.00    +0.000 Br
BRANCH  20  25
ATOM     25  O   UNL     1      -2.836  14.701  25.506  0.00  0.00    +0.000 OA
ATOM     26  C   UNL     1      -1.905  15.772  25.427  0.00  0.00    +0.000 C 
ENDBRANCH  20  25
ENDBRANCH  17  18
ENDBRANCH  11  17
TORSDOF 6
ENDMDL
MODEL 8
REMARK VINA RESULT:      -6.0      6.671     10.236
REMARK  Name = 
REMARK  8 active torsions:
REMARK  status: ('A' for Active; 'I' for Inactive)
REMARK    1  A    between atoms: C_1  and  C_2
REMARK    2  A    between atoms: C_2  and  C_3
REMARK    3  A    between atoms: C_3  and  N_4
REMARK    4  A    between atoms: C_12  and  O_13
REMARK    5  A    between atoms: C_15  and  C_16
REMARK    6  A    between atoms: C_16  and  C_17
REMARK    7  A    between atoms: C_19  and  O_20
REMARK    8  A    between atoms: O_20  and  C_21
REMARK                            x       y       z     vdW  Elec       q    Type
REMARK                         _______ _______ _______ _____ _____    ______ ____
ROOT
ATOM      1  N   UNL     1       0.360  11.144  21.967  0.00  0.00    +0.000 NA
ATOM      2  C   UNL     1      -1.067  10.856  22.065  0.00  0.00    +0.000 C 
ATOM      3  C   UNL     1      -1.825  11.942  22.837  0.00  0.00    +0.000 C 
ATOM      4  C   UNL     1      -1.258  13.342  22.743  0.00  0.00    +0.000 A 
ATOM      5  C   UNL     1      -1.868  14.418  23.411  0.00  0.00    +0.000 A 
ATOM      6 BR   UNL     1      -3.515  14.229  24.341  0.00  0.00    +0.000 Br
ATOM      7  C   UNL     1      -1.271  15.682  23.428  0.00  0.00    +0.000 A 
ATOM      8  C   UNL     1      -0.052  15.889  22.790  0.00  0.00    +0.000 A 
ATOM      9  C   UNL     1       0.554  14.836  22.110  0.00  0.00    +0.000 A 
ATOM     10  C   UNL     1      -0.041  13.565  22.058  0.00  0.00    +0.000 A 
ATOM     11  C   UNL     1       0.619  12.433  21.281  0.00  0.00    +0.000 C 
ENDROOT
BRANCH   9  12
ATOM     12  O   UNL     1       1.742  15.043  21.464  0.00  0.00    +0.000 OA
ATOM     13  H   UNL     1       1.557  15.341  20.557  0.00  0.00    +0.000 HD
ENDBRANCH   9  12
BRANCH   1  14
ATOM     14  C   UNL     1       1.156   9.993  21.556  0.00  0.00    +0.000 C 
BRANCH  14  16
ATOM     15  C   UNL     1       1.261   7.472  21.060  0.00  0.00    +0.000 C 
ATOM     16  C   UNL     1       0.404   8.651  21.504  0.00  0.00    +0.000 C 
ENDBRANCH  14  16
ENDBRANCH   1  14
BRANCH  11  17
ATOM     17  C   UNL     1       0.400  12.544  19.727  0.00  0.00    +0.000 C 
BRANCH  17  18
ATOM     18  C   UNL     1      -0.708  11.778  19.012  0.00  0.00    +0.000 A 
ATOM     19  C   UNL     1      -2.041  12.224  19.184  0.00  0.00    +0.000 A 
ATOM     20  C   UNL     1      -3.125  11.567  18.593  0.00  0.00    +0.000 A 
ATOM     21  C   UNL     1      -2.891  10.438  17.815  0.00  0.00    +0.000 A 
ATOM     22  C   UNL     1      -1.595   9.957  17.649  0.00  0.00    +0.000 A 
ATOM     23  C   UNL     1      -0.513  10.609  18.255  0.00  0.00    +0.000 A 
ATOM     24 BR   UNL     1       1.162   9.740  18.064  0.00  0.00    +0.000 Br
BRANCH  20  25
ATOM     25  O   UNL     1      -4.442  11.917  18.707  0.00  0.00    +0.000 OA
ATOM     26  C   UNL     1      -5.301  11.584  17.625  0.00  0.00    +0.000 C 
ENDBRANCH  20  25
ENDBRANCH  17  18
ENDBRANCH  11  17
TORSDOF 6
ENDMDL
MODEL 9
REMARK VINA RESULT:      -6.0      9.619     12.142
REMARK  Name = 
REMARK  8 active torsions:
REMARK  status: ('A' for Active; 'I' for Inactive)
REMARK    1  A    between atoms: C_1  and  C_2
REMARK    2  A    between atoms: C_2  and  C_3
REMARK    3  A    between atoms: C_3  and  N_4
REMARK    4  A    between atoms: C_12  and  O_13
REMARK    5  A    between atoms: C_15  and  C_16
REMARK    6  A    between atoms: C_16  and  C_17
REMARK    7  A    between atoms: C_19  and  O_20
REMARK    8  A    between atoms: O_20  and  C_21
REMARK                            x       y       z     vdW  Elec       q    Type
REMARK                         _______ _______ _______ _____ _____    ______ ____
ROOT
ATOM      1  N   UNL     1      10.110  12.833  18.423  0.00  0.00    +0.000 NA
ATOM      2  C   UNL     1      11.308  13.599  18.097  0.00  0.00    +0.000 C 
ATOM      3  C   UNL     1      10.994  15.073  17.816  0.00  0.00    +0.000 C 
ATOM      4  C   UNL     1       9.805  15.651  18.553  0.00  0.00    +0.000 A 
ATOM      5  C   UNL     1       9.422  16.992  18.373  0.00  0.00    +0.000 A 
ATOM      6 BR   UNL     1      10.445  18.204  17.325  0.00  0.00    +0.000 Br
ATOM      7  C   UNL     1       8.251  17.485  18.954  0.00  0.00    +0.000 A 
ATOM      8  C   UNL     1       7.439  16.649  19.714  0.00  0.00    +0.000 A 
ATOM      9  C   UNL     1       7.817  15.324  19.914  0.00  0.00    +0.000 A 
ATOM     10  C   UNL     1       9.003  14.813  19.361  0.00  0.00    +0.000 A 
ATOM     11  C   UNL     1       9.417  13.371  19.619  0.00  0.00    +0.000 C 
ENDROOT
BRANCH   9  12
ATOM     12  O   UNL     1       7.030  14.506  20.679  0.00  0.00    +0.000 OA
ATOM     13  H   UNL     1       7.102  14.783  21.608  0.00  0.00    +0.000 HD
ENDBRANCH   9  12
BRANCH   1  14
ATOM     14  C   UNL     1      10.309  11.389  18.355  0.00  0.00    +0.000 C 
BRANCH  14  16
ATOM     15  C   UNL     1       8.520   9.547  18.218  0.00  0.00    +0.000 C 
ATOM     16  C   UNL     1       9.264  10.540  19.102  0.00  0.00    +0.000 C 
ENDBRANCH  14  16
ENDBRANCH   1  14
BRANCH  11  17
ATOM     17  C   UNL     1      10.050  13.158  21.044  0.00  0.00    +0.000 C 
BRANCH  17  18
ATOM     18  C   UNL     1       9.210  13.211  22.316  0.00  0.00    +0.000 A 
ATOM     19  C   UNL     1       8.363  12.112  22.598  0.00  0.00    +0.000 A 
ATOM     20  C   UNL     1       7.533  12.084  23.723  0.00  0.00    +0.000 A 
ATOM     21  C   UNL     1       7.535  13.170  24.593  0.00  0.00    +0.000 A 
ATOM     22  C   UNL     1       8.336  14.278  24.331  0.00  0.00    +0.000 A 
ATOM     23  C   UNL     1       9.154  14.309  23.194  0.00  0.00    +0.000 A 
ATOM     24 BR   UNL     1      10.059  15.949  22.895  0.00  0.00    +0.000 Br
BRANCH  20  25
ATOM     25  O   UNL     1       6.679  11.076  24.074  0.00  0.00    +0.000 OA
ATOM     26  C   UNL     1       5.928  11.244  25.269  0.00  0.00    +0.000 C 
ENDBRANCH  20  25
ENDBRANCH  17  18
ENDBRANCH  11  17
TORSDOF 6
ENDMDL
