MODEL 1
REMARK VINA RESULT:      -7.2      0.000      0.000
REMARK  Name = 
REMARK  10 active torsions:
REMARK  status: ('A' for Active; 'I' for Inactive)
REMARK    1  A    between atoms: C_1  and  O_2
REMARK    2  A    between atoms: O_2  and  C_3
REMARK    3  A    between atoms: C_6  and  C_7
REMARK    4  A    between atoms: C_7  and  C_8
REMARK    5  A    between atoms: N_10  and  O_11
REMARK    6  A    between atoms: O_11  and  C_12
REMARK    7  A    between atoms: C_12  and  C_14
REMARK    8  A    between atoms: C_14  and  O_15
REMARK    9  A    between atoms: O_15  and  C_16
REMARK   10  A    between atoms: C_21  and  C_22
REMARK                            x       y       z     vdW  Elec       q    Type
REMARK                         _______ _______ _______ _____ _____    ______ ____
ROOT
ATOM      1  C   UNL     1       6.291   4.971  18.734  0.00  0.00    +0.000 C 
ATOM      2  N   UNL     1       6.912   5.436  19.775  0.00  0.00    +0.000 NA
ATOM      3  N   UNL     1       5.823   3.671  18.637  0.00  0.00    +0.000 N 
ATOM      4  H   UNL     1       7.197   6.410  19.632  0.00  0.00    +0.000 HD
ATOM      5  H   UNL     1       6.503   2.999  18.286  0.00  0.00    +0.000 HD
ENDROOT
BRANCH   1   6
ATOM      6  C   UNL     1       6.007   5.901  17.567  0.00  0.00    +0.000 C 
BRANCH   6  10
ATOM      7  C   UNL     1       6.251   4.053  13.666  0.00  0.00    +0.000 A 
ATOM      8  C   UNL     1       7.341   4.696  14.238  0.00  0.00    +0.000 A 
ATOM      9  C   UNL     1       7.242   5.286  15.494  0.00  0.00    +0.000 A 
ATOM     10  C   UNL     1       6.028   5.270  16.200  0.00  0.00    +0.000 A 
ATOM     11  C   UNL     1       4.937   4.605  15.631  0.00  0.00    +0.000 A 
ATOM     12  C   UNL     1       5.040   4.004  14.373  0.00  0.00    +0.000 A 
BRANCH   7  14
ATOM     13  C   UNL     1       5.343   3.036  11.726  0.00  0.00    +0.000 C 
ATOM     14  O   UNL     1       6.474   3.540  12.421  0.00  0.00    +0.000 OA
ENDBRANCH   7  14
ENDBRANCH   6  10
ENDBRANCH   1   6
BRANCH   3  15
ATOM     15  O   UNL     1       5.201   3.214  19.818  0.00  0.00    +0.000 OA
BRANCH  15  16
ATOM     16  C   UNL     1       4.763   1.903  19.803  0.00  0.00    +0.000 C 
ATOM     17  O   UNL     1       5.089   1.036  20.600  0.00  0.00    +0.000 OA
BRANCH  16  18
ATOM     18  C   UNL     1       3.827   1.764  18.607  0.00  0.00    +0.000 C 
BRANCH  18  19
ATOM     19  O   UNL     1       2.518   2.126  19.004  0.00  0.00    +0.000 OA
BRANCH  19  20
ATOM     20  C   UNL     1       2.251   3.442  19.266  0.00  0.00    +0.000 A 
ATOM     21  C   UNL     1       2.382   4.250  18.125  0.00  0.00    +0.000 A 
ATOM     22  C   UNL     1       2.293   5.639  18.201  0.00  0.00    +0.000 A 
ATOM     23  C   UNL     1       2.078   6.241  19.433  0.00  0.00    +0.000 A 
ATOM     24  C   UNL     1       1.934   5.450  20.575  0.00  0.00    +0.000 A 
ATOM     25  C   UNL     1       2.021   4.043  20.517  0.00  0.00    +0.000 A 
ATOM     26  C   UNL     1       1.901   3.304  21.819  0.00  0.00    +0.000 C 
ENDBRANCH  19  20
ENDBRANCH  18  19
ENDBRANCH  16  18
ENDBRANCH  15  16
ENDBRANCH   3  15
TORSDOF 8
ENDMDL
MODEL 2
REMARK VINA RESULT:      -7.2      2.646      6.097
REMARK  Name = 
REMARK  10 active torsions:
REMARK  status: ('A' for Active; 'I' for Inactive)
REMARK    1  A    between atoms: C_1  and  O_2
REMARK    2  A    between atoms: O_2  and  C_3
REMARK    3  A    between atoms: C_6  and  C_7
REMARK    4  A    between atoms: C_7  and  C_8
REMARK    5  A    between atoms: N_10  and  O_11
REMARK    6  A    between atoms: O_11  and  C_12
REMARK    7  A    between atoms: C_12  and  C_14
REMARK    8  A    between atoms: C_14  and  O_15
REMARK    9  A    between atoms: O_15  and  C_16
REMARK   10  A    between atoms: C_21  and  C_22
REMARK                            x       y       z     vdW  Elec       q    Type
REMARK                         _______ _______ _______ _____ _____    ______ ____
ROOT
ATOM      1  C   UNL     1       1.708   3.441  20.360  0.00  0.00    +0.000 C 
ATOM      2  N   UNL     1       0.443   3.386  20.073  0.00  0.00    +0.000 NA
ATOM      3  N   UNL     1       2.622   2.471  19.983  0.00  0.00    +0.000 N 
ATOM      4  H   UNL     1      -0.061   4.187  20.468  0.00  0.00    +0.000 HD
ATOM      5  H   UNL     1       2.710   1.693  20.633  0.00  0.00    +0.000 HD
ENDROOT
BRANCH   1   6
ATOM      6  C   UNL     1       2.245   4.650  21.105  0.00  0.00    +0.000 C 
BRANCH   6  10
ATOM      7  C   UNL     1       2.082   8.313  18.812  0.00  0.00    +0.000 A 
ATOM      8  C   UNL     1       2.691   7.168  18.316  0.00  0.00    +0.000 A 
ATOM      9  C   UNL     1       2.735   6.000  19.069  0.00  0.00    +0.000 A 
ATOM     10  C   UNL     1       2.188   5.960  20.362  0.00  0.00    +0.000 A 
ATOM     11  C   UNL     1       1.558   7.107  20.853  0.00  0.00    +0.000 A 
ATOM     12  C   UNL     1       1.507   8.279  20.091  0.00  0.00    +0.000 A 
BRANCH   7  14
ATOM     13  C   UNL     1       1.436  10.558  18.409  0.00  0.00    +0.000 C 
ATOM     14  O   UNL     1       2.132   9.397  17.983  0.00  0.00    +0.000 OA
ENDBRANCH   7  14
ENDBRANCH   6  10
ENDBRANCH   1   6
BRANCH   3  15
ATOM     15  O   UNL     1       2.443   2.023  18.657  0.00  0.00    +0.000 OA
BRANCH  15  16
ATOM     16  C   UNL     1       2.866   2.888  17.664  0.00  0.00    +0.000 C 
ATOM     17  O   UNL     1       2.165   3.343  16.773  0.00  0.00    +0.000 OA
BRANCH  16  18
ATOM     18  C   UNL     1       4.352   3.136  17.899  0.00  0.00    +0.000 C 
BRANCH  18  19
ATOM     19  O   UNL     1       4.861   3.917  16.834  0.00  0.00    +0.000 OA
BRANCH  19  20
ATOM     20  C   UNL     1       5.782   4.889  17.114  0.00  0.00    +0.000 A 
ATOM     21  C   UNL     1       6.611   4.543  18.193  0.00  0.00    +0.000 A 
ATOM     22  C   UNL     1       7.523   5.449  18.732  0.00  0.00    +0.000 A 
ATOM     23  C   UNL     1       7.610   6.726  18.196  0.00  0.00    +0.000 A 
ATOM     24  C   UNL     1       6.801   7.081  17.116  0.00  0.00    +0.000 A 
ATOM     25  C   UNL     1       5.872   6.177  16.557  0.00  0.00    +0.000 A 
ATOM     26  C   UNL     1       5.022   6.691  15.431  0.00  0.00    +0.000 C 
ENDBRANCH  19  20
ENDBRANCH  18  19
ENDBRANCH  16  18
ENDBRANCH  15  16
ENDBRANCH   3  15
TORSDOF 8
ENDMDL
MODEL 3
REMARK VINA RESULT:      -7.0      2.470      4.088
REMARK  Name = 
REMARK  10 active torsions:
REMARK  status: ('A' for Active; 'I' for Inactive)
REMARK    1  A    between atoms: C_1  and  O_2
REMARK    2  A    between atoms: O_2  and  C_3
REMARK    3  A    between atoms: C_6  and  C_7
REMARK    4  A    between atoms: C_7  and  C_8
REMARK    5  A    between atoms: N_10  and  O_11
REMARK    6  A    between atoms: O_11  and  C_12
REMARK    7  A    between atoms: C_12  and  C_14
REMARK    8  A    between atoms: C_14  and  O_15
REMARK    9  A    between atoms: O_15  and  C_16
REMARK   10  A    between atoms: C_21  and  C_22
REMARK                            x       y       z     vdW  Elec       q    Type
REMARK                         _______ _______ _______ _____ _____    ______ ____
ROOT
ATOM      1  C   UNL     1       2.990   2.737  18.009  0.00  0.00    +0.000 C 
ATOM      2  N   UNL     1       1.913   2.123  17.622  0.00  0.00    +0.000 NA
ATOM      3  N   UNL     1       3.119   3.356  19.242  0.00  0.00    +0.000 N 
ATOM      4  H   UNL     1       2.017   1.759  16.670  0.00  0.00    +0.000 HD
ATOM      5  H   UNL     1       2.796   4.321  19.269  0.00  0.00    +0.000 HD
ENDROOT
BRANCH   1   6
ATOM      6  C   UNL     1       4.204   2.744  17.097  0.00  0.00    +0.000 C 
BRANCH   6  10
ATOM      7  C   UNL     1       6.421   6.453  16.963  0.00  0.00    +0.000 A 
ATOM      8  C   UNL     1       5.701   5.995  15.869  0.00  0.00    +0.000 A 
ATOM      9  C   UNL     1       4.995   4.797  15.931  0.00  0.00    +0.000 A 
ATOM     10  C   UNL     1       5.019   4.011  17.094  0.00  0.00    +0.000 A 
ATOM     11  C   UNL     1       5.729   4.484  18.202  0.00  0.00    +0.000 A 
ATOM     12  C   UNL     1       6.431   5.692  18.141  0.00  0.00    +0.000 A 
BRANCH   7  14
ATOM     13  C   UNL     1       7.750   8.187  17.886  0.00  0.00    +0.000 C 
ATOM     14  O   UNL     1       7.090   7.627  16.761  0.00  0.00    +0.000 OA
ENDBRANCH   7  14
ENDBRANCH   6  10
ENDBRANCH   1   6
BRANCH   3  15
ATOM     15  O   UNL     1       2.582   2.598  20.304  0.00  0.00    +0.000 OA
BRANCH  15  16
ATOM     16  C   UNL     1       1.962   3.317  21.308  0.00  0.00    +0.000 C 
ATOM     17  O   UNL     1       1.939   3.012  22.491  0.00  0.00    +0.000 OA
BRANCH  16  18
ATOM     18  C   UNL     1       1.315   4.530  20.647  0.00  0.00    +0.000 C 
BRANCH  18  19
ATOM     19  O   UNL     1       2.118   5.669  20.892  0.00  0.00    +0.000 OA
BRANCH  19  20
ATOM     20  C   UNL     1       2.056   6.718  20.015  0.00  0.00    +0.000 A 
ATOM     21  C   UNL     1       2.740   6.453  18.818  0.00  0.00    +0.000 A 
ATOM     22  C   UNL     1       2.920   7.437  17.848  0.00  0.00    +0.000 A 
ATOM     23  C   UNL     1       2.420   8.712  18.071  0.00  0.00    +0.000 A 
ATOM     24  C   UNL     1       1.729   8.989  19.252  0.00  0.00    +0.000 A 
ATOM     25  C   UNL     1       1.536   8.004  20.245  0.00  0.00    +0.000 A 
ATOM     26  C   UNL     1       0.821   8.435  21.494  0.00  0.00    +0.000 C 
ENDBRANCH  19  20
ENDBRANCH  18  19
ENDBRANCH  16  18
ENDBRANCH  15  16
ENDBRANCH   3  15
TORSDOF 8
ENDMDL
MODEL 4
REMARK VINA RESULT:      -7.0      2.787      4.305
REMARK  Name = 
REMARK  10 active torsions:
REMARK  status: ('A' for Active; 'I' for Inactive)
REMARK    1  A    between atoms: C_1  and  O_2
REMARK    2  A    between atoms: O_2  and  C_3
REMARK    3  A    between atoms: C_6  and  C_7
REMARK    4  A    between atoms: C_7  and  C_8
REMARK    5  A    between atoms: N_10  and  O_11
REMARK    6  A    between atoms: O_11  and  C_12
REMARK    7  A    between atoms: C_12  and  C_14
REMARK    8  A    between atoms: C_14  and  O_15
REMARK    9  A    between atoms: O_15  and  C_16
REMARK   10  A    between atoms: C_21  and  C_22
REMARK                            x       y       z     vdW  Elec       q    Type
REMARK                         _______ _______ _______ _____ _____    ______ ____
ROOT
ATOM      1  C   UNL     1       2.949   2.136  18.193  0.00  0.00    +0.000 C 
ATOM      2  N   UNL     1       3.733   1.137  18.462  0.00  0.00    +0.000 NA
ATOM      3  N   UNL     1       1.748   2.365  18.845  0.00  0.00    +0.000 N 
ATOM      4  H   UNL     1       4.554   1.136  17.848  0.00  0.00    +0.000 HD
ATOM      5  H   UNL     1       0.947   1.883  18.443  0.00  0.00    +0.000 HD
ENDROOT
BRANCH   1   6
ATOM      6  C   UNL     1       3.376   3.150  17.146  0.00  0.00    +0.000 C 
BRANCH   6  10
ATOM      7  C   UNL     1       6.868   5.431  18.284  0.00  0.00    +0.000 A 
ATOM      8  C   UNL     1       5.917   5.042  19.216  0.00  0.00    +0.000 A 
ATOM      9  C   UNL     1       4.798   4.309  18.830  0.00  0.00    +0.000 A 
ATOM     10  C   UNL     1       4.593   3.971  17.483  0.00  0.00    +0.000 A 
ATOM     11  C   UNL     1       5.562   4.348  16.548  0.00  0.00    +0.000 A 
ATOM     12  C   UNL     1       6.690   5.077  16.938  0.00  0.00    +0.000 A 
BRANCH   7  14
ATOM     13  C   UNL     1       8.151   7.423  18.175  0.00  0.00    +0.000 C 
ATOM     14  O   UNL     1       7.902   6.168  18.788  0.00  0.00    +0.000 OA
ENDBRANCH   7  14
ENDBRANCH   6  10
ENDBRANCH   1   6
BRANCH   3  15
ATOM     15  O   UNL     1       1.827   2.170  20.241  0.00  0.00    +0.000 OA
BRANCH  15  16
ATOM     16  C   UNL     1       2.110   3.294  20.994  0.00  0.00    +0.000 C 
ATOM     17  O   UNL     1       2.789   3.316  22.009  0.00  0.00    +0.000 OA
BRANCH  16  18
ATOM     18  C   UNL     1       1.405   4.466  20.320  0.00  0.00    +0.000 C 
BRANCH  18  19
ATOM     19  O   UNL     1       1.947   5.675  20.816  0.00  0.00    +0.000 OA
BRANCH  19  20
ATOM     20  C   UNL     1       1.833   6.808  20.055  0.00  0.00    +0.000 A 
ATOM     21  C   UNL     1       2.315   6.623  18.749  0.00  0.00    +0.000 A 
ATOM     22  C   UNL     1       2.423   7.686  17.855  0.00  0.00    +0.000 A 
ATOM     23  C   UNL     1       2.053   8.960  18.264  0.00  0.00    +0.000 A 
ATOM     24  C   UNL     1       1.562   9.157  19.556  0.00  0.00    +0.000 A 
ATOM     25  C   UNL     1       1.446   8.092  20.475  0.00  0.00    +0.000 A 
ATOM     26  C   UNL     1       0.952   8.438  21.851  0.00  0.00    +0.000 C 
ENDBRANCH  19  20
ENDBRANCH  18  19
ENDBRANCH  16  18
ENDBRANCH  15  16
ENDBRANCH   3  15
TORSDOF 8
ENDMDL
MODEL 5
REMARK VINA RESULT:      -7.0      2.882      4.749
REMARK  Name = 
REMARK  10 active torsions:
REMARK  status: ('A' for Active; 'I' for Inactive)
REMARK    1  A    between atoms: C_1  and  O_2
REMARK    2  A    between atoms: O_2  and  C_3
REMARK    3  A    between atoms: C_6  and  C_7
REMARK    4  A    between atoms: C_7  and  C_8
REMARK    5  A    between atoms: N_10  and  O_11
REMARK    6  A    between atoms: O_11  and  C_12
REMARK    7  A    between atoms: C_12  and  C_14
REMARK    8  A    between atoms: C_14  and  O_15
REMARK    9  A    between atoms: O_15  and  C_16
REMARK   10  A    between atoms: C_21  and  C_22
REMARK                            x       y       z     vdW  Elec       q    Type
REMARK                         _______ _______ _______ _____ _____    ______ ____
ROOT
ATOM      1  C   UNL     1       1.681   2.566  18.438  0.00  0.00    +0.000 C 
ATOM      2  N   UNL     1       2.049   1.392  18.855  0.00  0.00    +0.000 NA
ATOM      3  N   UNL     1       0.682   3.315  19.038  0.00  0.00    +0.000 N 
ATOM      4  H   UNL     1       2.782   1.000  18.255  0.00  0.00    +0.000 HD
ATOM      5  H   UNL     1      -0.258   3.118  18.701  0.00  0.00    +0.000 HD
ENDROOT
BRANCH   1   6
ATOM      6  C   UNL     1       2.408   3.192  17.260  0.00  0.00    +0.000 C 
BRANCH   6  10
ATOM      7  C   UNL     1       6.405   4.714  17.891  0.00  0.00    +0.000 A 
ATOM      8  C   UNL     1       5.875   4.565  16.617  0.00  0.00    +0.000 A 
ATOM      9  C   UNL     1       4.587   4.072  16.434  0.00  0.00    +0.000 A 
ATOM     10  C   UNL     1       3.804   3.687  17.535  0.00  0.00    +0.000 A 
ATOM     11  C   UNL     1       4.332   3.856  18.819  0.00  0.00    +0.000 A 
ATOM     12  C   UNL     1       5.624   4.360  19.001  0.00  0.00    +0.000 A 
BRANCH   7  14
ATOM     13  C   UNL     1       8.023   6.037  19.012  0.00  0.00    +0.000 C 
ATOM     14  O   UNL     1       7.687   5.183  17.930  0.00  0.00    +0.000 OA
ENDBRANCH   7  14
ENDBRANCH   6  10
ENDBRANCH   1   6
BRANCH   3  15
ATOM     15  O   UNL     1       0.745   3.297  20.448  0.00  0.00    +0.000 OA
BRANCH  15  16
ATOM     16  C   UNL     1       1.732   4.078  21.019  0.00  0.00    +0.000 C 
ATOM     17  O   UNL     1       2.713   3.660  21.615  0.00  0.00    +0.000 OA
BRANCH  16  18
ATOM     18  C   UNL     1       1.342   5.532  20.772  0.00  0.00    +0.000 C 
BRANCH  18  19
ATOM     19  O   UNL     1       2.365   6.161  20.025  0.00  0.00    +0.000 OA
BRANCH  19  20
ATOM     20  C   UNL     1       2.156   7.433  19.565  0.00  0.00    +0.000 A 
ATOM     21  C   UNL     1       1.302   8.169  20.402  0.00  0.00    +0.000 A 
ATOM     22  C   UNL     1       0.845   9.437  20.046  0.00  0.00    +0.000 A 
ATOM     23  C   UNL     1       1.238   9.984  18.832  0.00  0.00    +0.000 A 
ATOM     24  C   UNL     1       2.095   9.270  17.994  0.00  0.00    +0.000 A 
ATOM     25  C   UNL     1       2.567   7.985  18.339  0.00  0.00    +0.000 A 
ATOM     26  C   UNL     1       3.444   7.295  17.333  0.00  0.00    +0.000 C 
ENDBRANCH  19  20
ENDBRANCH  18  19
ENDBRANCH  16  18
ENDBRANCH  15  16
ENDBRANCH   3  15
TORSDOF 8
ENDMDL
MODEL 6
REMARK VINA RESULT:      -6.8      2.638      7.159
REMARK  Name = 
REMARK  10 active torsions:
REMARK  status: ('A' for Active; 'I' for Inactive)
REMARK    1  A    between atoms: C_1  and  O_2
REMARK    2  A    between atoms: O_2  and  C_3
REMARK    3  A    between atoms: C_6  and  C_7
REMARK    4  A    between atoms: C_7  and  C_8
REMARK    5  A    between atoms: N_10  and  O_11
REMARK    6  A    between atoms: O_11  and  C_12
REMARK    7  A    between atoms: C_12  and  C_14
REMARK    8  A    between atoms: C_14  and  O_15
REMARK    9  A    between atoms: O_15  and  C_16
REMARK   10  A    between atoms: C_21  and  C_22
REMARK                            x       y       z     vdW  Elec       q    Type
REMARK                         _______ _______ _______ _____ _____    ______ ____
ROOT
ATOM      1  C   UNL     1       4.630   4.303  19.249  0.00  0.00    +0.000 C 
ATOM      2  N   UNL     1       5.124   3.105  19.161  0.00  0.00    +0.000 NA
ATOM      3  N   UNL     1       5.395   5.431  19.500  0.00  0.00    +0.000 N 
ATOM      4  H   UNL     1       4.385   2.412  18.999  0.00  0.00    +0.000 HD
ATOM      5  H   UNL     1       5.545   5.633  20.486  0.00  0.00    +0.000 HD
ENDROOT
BRANCH   1   6
ATOM      6  C   UNL     1       3.144   4.509  19.017  0.00  0.00    +0.000 C 
BRANCH   6  10
ATOM      7  C   UNL     1       1.648   8.556  19.299  0.00  0.00    +0.000 A 
ATOM      8  C   UNL     1       2.152   8.046  18.110  0.00  0.00    +0.000 A 
ATOM      9  C   UNL     1       2.630   6.742  18.040  0.00  0.00    +0.000 A 
ATOM     10  C   UNL     1       2.641   5.919  19.179  0.00  0.00    +0.000 A 
ATOM     11  C   UNL     1       2.115   6.428  20.370  0.00  0.00    +0.000 A 
ATOM     12  C   UNL     1       1.627   7.737  20.438  0.00  0.00    +0.000 A 
BRANCH   7  14
ATOM     13  C   UNL     1       0.165  10.148  18.355  0.00  0.00    +0.000 C 
ATOM     14  O   UNL     1       1.237   9.856  19.239  0.00  0.00    +0.000 OA
ENDBRANCH   7  14
ENDBRANCH   6  10
ENDBRANCH   1   6
BRANCH   3  15
ATOM     15  O   UNL     1       6.605   5.455  18.773  0.00  0.00    +0.000 OA
BRANCH  15  16
ATOM     16  C   UNL     1       6.526   5.944  17.483  0.00  0.00    +0.000 C 
ATOM     17  O   UNL     1       6.100   7.043  17.164  0.00  0.00    +0.000 OA
BRANCH  16  18
ATOM     18  C   UNL     1       7.053   4.847  16.562  0.00  0.00    +0.000 C 
BRANCH  18  19
ATOM     19  O   UNL     1       7.538   5.440  15.373  0.00  0.00    +0.000 OA
BRANCH  19  20
ATOM     20  C   UNL     1       7.115   4.944  14.170  0.00  0.00    +0.000 A 
ATOM     21  C   UNL     1       6.041   4.050  14.311  0.00  0.00    +0.000 A 
ATOM     22  C   UNL     1       5.550   3.323  13.228  0.00  0.00    +0.000 A 
ATOM     23  C   UNL     1       6.139   3.479  11.981  0.00  0.00    +0.000 A 
ATOM     24  C   UNL     1       7.200   4.372  11.823  0.00  0.00    +0.000 A 
ATOM     25  C   UNL     1       7.711   5.116  12.908  0.00  0.00    +0.000 A 
ATOM     26  C   UNL     1       8.887   6.006  12.624  0.00  0.00    +0.000 C 
ENDBRANCH  19  20
ENDBRANCH  18  19
ENDBRANCH  16  18
ENDBRANCH  15  16
ENDBRANCH   3  15
TORSDOF 8
ENDMDL
MODEL 7
REMARK VINA RESULT:      -6.8      2.887      4.695
REMARK  Name = 
REMARK  10 active torsions:
REMARK  status: ('A' for Active; 'I' for Inactive)
REMARK    1  A    between atoms: C_1  and  O_2
REMARK    2  A    between atoms: O_2  and  C_3
REMARK    3  A    between atoms: C_6  and  C_7
REMARK    4  A    between atoms: C_7  and  C_8
REMARK    5  A    between atoms: N_10  and  O_11
REMARK    6  A    between atoms: O_11  and  C_12
REMARK    7  A    between atoms: C_12  and  C_14
REMARK    8  A    between atoms: C_14  and  O_15
REMARK    9  A    between atoms: O_15  and  C_16
REMARK   10  A    between atoms: C_21  and  C_22
REMARK                            x       y       z     vdW  Elec       q    Type
REMARK                         _______ _______ _______ _____ _____    ______ ____
ROOT
ATOM      1  C   UNL     1       3.674   2.888  17.665  0.00  0.00    +0.000 C 
ATOM      2  N   UNL     1       3.936   1.664  18.008  0.00  0.00    +0.000 NA
ATOM      3  N   UNL     1       2.682   3.655  18.255  0.00  0.00    +0.000 N 
ATOM      4  H   UNL     1       4.686   1.270  17.431  0.00  0.00    +0.000 HD
ATOM      5  H   UNL     1       1.759   3.549  17.839  0.00  0.00    +0.000 HD
ENDROOT
BRANCH   1   6
ATOM      6  C   UNL     1       4.524   3.554  16.597  0.00  0.00    +0.000 C 
BRANCH   6  10
ATOM      7  C   UNL     1       7.176   6.720  17.875  0.00  0.00    +0.000 A 
ATOM      8  C   UNL     1       7.573   5.390  17.881  0.00  0.00    +0.000 A 
ATOM      9  C   UNL     1       6.704   4.385  17.468  0.00  0.00    +0.000 A 
ATOM     10  C   UNL     1       5.395   4.691  17.061  0.00  0.00    +0.000 A 
ATOM     11  C   UNL     1       5.003   6.033  17.038  0.00  0.00    +0.000 A 
ATOM     12  C   UNL     1       5.881   7.043  17.445  0.00  0.00    +0.000 A 
BRANCH   7  14
ATOM     13  C   UNL     1       8.071   8.915  17.790  0.00  0.00    +0.000 C 
ATOM     14  O   UNL     1       8.114   7.603  18.330  0.00  0.00    +0.000 OA
ENDBRANCH   7  14
ENDBRANCH   6  10
ENDBRANCH   1   6
BRANCH   3  15
ATOM     15  O   UNL     1       2.639   3.523  19.659  0.00  0.00    +0.000 OA
BRANCH  15  16
ATOM     16  C   UNL     1       1.655   4.249  20.305  0.00  0.00    +0.000 C 
ATOM     17  O   UNL     1       0.481   3.923  20.404  0.00  0.00    +0.000 OA
BRANCH  16  18
ATOM     18  C   UNL     1       2.318   5.513  20.840  0.00  0.00    +0.000 C 
BRANCH  18  19
ATOM     19  O   UNL     1       2.464   6.439  19.779  0.00  0.00    +0.000 OA
BRANCH  19  20
ATOM     20  C   UNL     1       1.919   7.686  19.916  0.00  0.00    +0.000 A 
ATOM     21  C   UNL     1       1.323   7.873  21.173  0.00  0.00    +0.000 A 
ATOM     22  C   UNL     1       0.588   9.019  21.469  0.00  0.00    +0.000 A 
ATOM     23  C   UNL     1       0.432   9.998  20.497  0.00  0.00    +0.000 A 
ATOM     24  C   UNL     1       1.028   9.831  19.245  0.00  0.00    +0.000 A 
ATOM     25  C   UNL     1       1.776   8.677  18.928  0.00  0.00    +0.000 A 
ATOM     26  C   UNL     1       2.324   8.590  17.533  0.00  0.00    +0.000 C 
ENDBRANCH  19  20
ENDBRANCH  18  19
ENDBRANCH  16  18
ENDBRANCH  15  16
ENDBRANCH   3  15
TORSDOF 8
ENDMDL
MODEL 8
REMARK VINA RESULT:      -6.8      3.016      4.651
REMARK  Name = 
REMARK  10 active torsions:
REMARK  status: ('A' for Active; 'I' for Inactive)
REMARK    1  A    between atoms: C_1  and  O_2
REMARK    2  A    between atoms: O_2  and  C_3
REMARK    3  A    between atoms: C_6  and  C_7
REMARK    4  A    between atoms: C_7  and  C_8
REMARK    5  A    between atoms: N_10  and  O_11
REMARK    6  A    between atoms: O_11  and  C_12
REMARK    7  A    between atoms: C_12  and  C_14
REMARK    8  A    between atoms: C_14  and  O_15
REMARK    9  A    between atoms: O_15  and  C_16
REMARK   10  A    between atoms: C_21  and  C_22
REMARK                            x       y       z     vdW  Elec       q    Type
REMARK                         _______ _______ _______ _____ _____    ______ ____
ROOT
ATOM      1  C   UNL     1       2.449   2.636  18.237  0.00  0.00    +0.000 C 
ATOM      2  N   UNL     1       1.894   1.664  18.896  0.00  0.00    +0.000 NA
ATOM      3  N   UNL     1       1.846   3.866  18.032  0.00  0.00    +0.000 N 
ATOM      4  H   UNL     1       2.496   0.834  18.908  0.00  0.00    +0.000 HD
ATOM      5  H   UNL     1       1.247   3.914  17.211  0.00  0.00    +0.000 HD
ENDROOT
BRANCH   1   6
ATOM      6  C   UNL     1       3.857   2.452  17.697  0.00  0.00    +0.000 C 
BRANCH   6  10
ATOM      7  C   UNL     1       6.136   6.037  16.890  0.00  0.00    +0.000 A 
ATOM      8  C   UNL     1       6.118   5.452  18.148  0.00  0.00    +0.000 A 
ATOM      9  C   UNL     1       5.377   4.300  18.389  0.00  0.00    +0.000 A 
ATOM     10  C   UNL     1       4.607   3.717  17.370  0.00  0.00    +0.000 A 
ATOM     11  C   UNL     1       4.641   4.296  16.097  0.00  0.00    +0.000 A 
ATOM     12  C   UNL     1       5.393   5.449  15.855  0.00  0.00    +0.000 A 
BRANCH   7  14
ATOM     13  C   UNL     1       7.718   7.488  17.897  0.00  0.00    +0.000 C 
ATOM     14  O   UNL     1       6.880   7.178  16.794  0.00  0.00    +0.000 OA
ENDBRANCH   7  14
ENDBRANCH   6  10
ENDBRANCH   1   6
BRANCH   3  15
ATOM     15  O   UNL     1       1.198   4.366  19.181  0.00  0.00    +0.000 OA
BRANCH  15  16
ATOM     16  C   UNL     1       2.024   4.805  20.200  0.00  0.00    +0.000 C 
ATOM     17  O   UNL     1       2.225   4.220  21.253  0.00  0.00    +0.000 OA
BRANCH  16  18
ATOM     18  C   UNL     1       2.603   6.143  19.752  0.00  0.00    +0.000 C 
BRANCH  18  19
ATOM     19  O   UNL     1       2.083   7.167  20.578  0.00  0.00    +0.000 OA
BRANCH  19  20
ATOM     20  C   UNL     1       1.484   8.247  19.987  0.00  0.00    +0.000 A 
ATOM     21  C   UNL     1       1.970   8.484  18.692  0.00  0.00    +0.000 A 
ATOM     22  C   UNL     1       1.598   9.616  17.968  0.00  0.00    +0.000 A 
ATOM     23  C   UNL     1       0.732  10.535  18.543  0.00  0.00    +0.000 A 
ATOM     24  C   UNL     1       0.231  10.308  19.826  0.00  0.00    +0.000 A 
ATOM     25  C   UNL     1       0.598   9.168  20.573  0.00  0.00    +0.000 A 
ATOM     26  C   UNL     1       0.034   9.059  21.961  0.00  0.00    +0.000 C 
ENDBRANCH  19  20
ENDBRANCH  18  19
ENDBRANCH  16  18
ENDBRANCH  15  16
ENDBRANCH   3  15
TORSDOF 8
ENDMDL
MODEL 9
REMARK VINA RESULT:      -6.8      2.806      5.986
REMARK  Name = 
REMARK  10 active torsions:
REMARK  status: ('A' for Active; 'I' for Inactive)
REMARK    1  A    between atoms: C_1  and  O_2
REMARK    2  A    between atoms: O_2  and  C_3
REMARK    3  A    between atoms: C_6  and  C_7
REMARK    4  A    between atoms: C_7  and  C_8
REMARK    5  A    between atoms: N_10  and  O_11
REMARK    6  A    between atoms: O_11  and  C_12
REMARK    7  A    between atoms: C_12  and  C_14
REMARK    8  A    between atoms: C_14  and  O_15
REMARK    9  A    between atoms: O_15  and  C_16
REMARK   10  A    between atoms: C_21  and  C_22
REMARK                            x       y       z     vdW  Elec       q    Type
REMARK                         _______ _______ _______ _____ _____    ______ ____
ROOT
ATOM      1  C   UNL     1       1.878   4.257  20.468  0.00  0.00    +0.000 C 
ATOM      2  N   UNL     1       0.981   4.269  19.529  0.00  0.00    +0.000 NA
ATOM      3  N   UNL     1       2.378   3.097  21.037  0.00  0.00    +0.000 N 
ATOM      4  H   UNL     1       0.730   5.229  19.269  0.00  0.00    +0.000 HD
ATOM      5  H   UNL     1       1.837   2.740  21.821  0.00  0.00    +0.000 HD
ENDROOT
BRANCH   1   6
ATOM      6  C   UNL     1       2.462   5.574  20.948  0.00  0.00    +0.000 C 
BRANCH   6  10
ATOM      7  C   UNL     1       1.548   9.143  18.685  0.00  0.00    +0.000 A 
ATOM      8  C   UNL     1       1.106   8.975  19.989  0.00  0.00    +0.000 A 
ATOM      9  C   UNL     1       1.409   7.818  20.701  0.00  0.00    +0.000 A 
ATOM     10  C   UNL     1       2.146   6.782  20.105  0.00  0.00    +0.000 A 
ATOM     11  C   UNL     1       2.607   6.961  18.797  0.00  0.00    +0.000 A 
ATOM     12  C   UNL     1       2.309   8.128  18.086  0.00  0.00    +0.000 A 
BRANCH   7  14
ATOM     13  C   UNL     1       1.707  11.509  18.619  0.00  0.00    +0.000 C 
ATOM     14  O   UNL     1       1.160  10.310  18.091  0.00  0.00    +0.000 OA
ENDBRANCH   7  14
ENDBRANCH   6  10
ENDBRANCH   1   6
BRANCH   3  15
ATOM     15  O   UNL     1       2.651   2.087  20.090  0.00  0.00    +0.000 OA
BRANCH  15  16
ATOM     16  C   UNL     1       3.904   2.127  19.507  0.00  0.00    +0.000 C 
ATOM     17  O   UNL     1       4.967   2.023  20.100  0.00  0.00    +0.000 OA
BRANCH  16  18
ATOM     18  C   UNL     1       3.689   2.340  18.012  0.00  0.00    +0.000 C 
BRANCH  18  19
ATOM     19  O   UNL     1       3.724   3.727  17.736  0.00  0.00    +0.000 OA
BRANCH  19  20
ATOM     20  C   UNL     1       4.851   4.256  17.167  0.00  0.00    +0.000 A 
ATOM     21  C   UNL     1       4.961   3.935  15.805  0.00  0.00    +0.000 A 
ATOM     22  C   UNL     1       6.102   4.254  15.070  0.00  0.00    +0.000 A 
ATOM     23  C   UNL     1       7.159   4.897  15.700  0.00  0.00    +0.000 A 
ATOM     24  C   UNL     1       7.060   5.232  17.051  0.00  0.00    +0.000 A 
ATOM     25  C   UNL     1       5.912   4.917  17.811  0.00  0.00    +0.000 A 
ATOM     26  C   UNL     1       5.945   5.283  19.267  0.00  0.00    +0.000 C 
ENDBRANCH  19  20
ENDBRANCH  18  19
ENDBRANCH  16  18
ENDBRANCH  15  16
ENDBRANCH   3  15
TORSDOF 8
ENDMDL
