MODEL 1
REMARK VINA RESULT:      -7.7      0.000      0.000
REMARK  Name = 
REMARK  5 active torsions:
REMARK  status: ('A' for Active; 'I' for Inactive)
REMARK    1  A    between atoms: C_2  and  C_10
REMARK    2  A    between atoms: N_3  and  C_4
REMARK    3  A    between atoms: C_18  and  N_19
REMARK    4  A    between atoms: N_19  and  S_20
REMARK    5  A    between atoms: S_20  and  C_23
REMARK                            x       y       z     vdW  Elec       q    Type
REMARK                         _______ _______ _______ _____ _____    ______ ____
ROOT
ATOM      1  C   UNL     1      -2.794  12.747  19.864  0.00  0.00    +0.000 A 
ATOM      2  C   UNL     1      -4.061  13.075  20.365  0.00  0.00    +0.000 A 
ATOM      3  C   UNL     1      -5.203  12.497  19.824  0.00  0.00    +0.000 A 
ATOM      4  C   UNL     1      -5.102  11.629  18.743  0.00  0.00    +0.000 A 
ATOM      5  C   UNL     1      -3.858  11.219  18.255  0.00  0.00    +0.000 A 
ATOM      6  C   UNL     1      -3.840  10.313  17.176  0.00  0.00    +0.000 A 
ATOM      7  C   UNL     1      -2.654   9.754  16.718  0.00  0.00    +0.000 A 
ATOM      8  C   UNL     1      -1.464  10.082  17.365  0.00  0.00    +0.000 A 
ATOM      9  C   UNL     1      -1.460  11.037  18.403  0.00  0.00    +0.000 A 
ATOM     10  C   UNL     1      -2.658  11.693  18.857  0.00  0.00    +0.000 A 
ENDROOT
BRANCH   1  12
ATOM     11  O   UNL     1      -1.122  13.527  21.339  0.00  0.00    +0.000 OA
ATOM     12  C   UNL     1      -1.653  13.675  20.253  0.00  0.00    +0.000 C 
ATOM     13  N   UNL     1      -1.221  14.660  19.348  0.00  0.00    +0.000 N 
ATOM     14  H   UNL     1      -1.726  14.793  18.483  0.00  0.00    +0.000 HD
BRANCH  13  15
ATOM     15  C   UNL     1      -0.280  15.729  19.759  0.00  0.00    +0.000 C 
ATOM     16  C   UNL     1       1.204  15.399  19.517  0.00  0.00    +0.000 C 
ATOM     17  C   UNL     1       1.966  16.107  18.395  0.00  0.00    +0.000 C 
ATOM     18  C   UNL     1       1.448  17.442  17.893  0.00  0.00    +0.000 C 
ATOM     19  C   UNL     1      -0.052  17.648  17.993  0.00  0.00    +0.000 C 
ATOM     20  C   UNL     1      -0.698  17.126  19.271  0.00  0.00    +0.000 C 
ENDBRANCH  13  15
ENDBRANCH   1  12
BRANCH   9  21
ATOM     21  N   UNL     1      -0.257  11.263  19.110  0.00  0.00    +0.000 N 
ATOM     22  H   UNL     1       0.445  11.857  18.676  0.00  0.00    +0.000 HD
BRANCH  21  23
ATOM     23  S   UNL     1       0.439  10.231  20.225  0.00  0.00    +0.000 S 
ATOM     24  O   UNL     1       1.296  11.106  21.010  0.00  0.00    +0.000 OA
ATOM     25  O   UNL     1      -0.632   9.505  20.876  0.00  0.00    +0.000 OA
BRANCH  23  26
ATOM     26  C   UNL     1       1.486   8.996  19.492  0.00  0.00    +0.000 A 
ATOM     27  C   UNL     1       2.002   9.049  18.198  0.00  0.00    +0.000 A 
ATOM     28  C   UNL     1       2.709   7.966  17.670  0.00  0.00    +0.000 A 
ATOM     29  C   UNL     1       2.915   6.824  18.438  0.00  0.00    +0.000 A 
ATOM     30 CL   UNL     1       3.782   5.489  17.788  0.00  0.00    +0.000 Cl
ATOM     31  C   UNL     1       2.415   6.754  19.735  0.00  0.00    +0.000 A 
ATOM     32  C   UNL     1       1.700   7.838  20.252  0.00  0.00    +0.000 A 
ENDBRANCH  23  26
ENDBRANCH  21  23
ENDBRANCH   9  21
TORSDOF 5
ENDMDL
MODEL 2
REMARK VINA RESULT:      -7.5      0.512      1.016
REMARK  Name = 
REMARK  5 active torsions:
REMARK  status: ('A' for Active; 'I' for Inactive)
REMARK    1  A    between atoms: C_2  and  C_10
REMARK    2  A    between atoms: N_3  and  C_4
REMARK    3  A    between atoms: C_18  and  N_19
REMARK    4  A    between atoms: N_19  and  S_20
REMARK    5  A    between atoms: S_20  and  C_23
REMARK                            x       y       z     vdW  Elec       q    Type
REMARK                         _______ _______ _______ _____ _____    ______ ____
ROOT
ATOM      1  C   UNL     1      -2.930  13.114  20.179  0.00  0.00    +0.000 A 
ATOM      2  C   UNL     1      -4.162  13.435  20.762  0.00  0.00    +0.000 A 
ATOM      3  C   UNL     1      -5.330  12.827  20.319  0.00  0.00    +0.000 A 
ATOM      4  C   UNL     1      -5.293  11.934  19.253  0.00  0.00    +0.000 A 
ATOM      5  C   UNL     1      -4.081  11.532  18.687  0.00  0.00    +0.000 A 
ATOM      6  C   UNL     1      -4.124  10.600  17.631  0.00  0.00    +0.000 A 
ATOM      7  C   UNL     1      -2.966  10.047  17.102  0.00  0.00    +0.000 A 
ATOM      8  C   UNL     1      -1.738  10.409  17.653  0.00  0.00    +0.000 A 
ATOM      9  C   UNL     1      -1.676  11.389  18.665  0.00  0.00    +0.000 A 
ATOM     10  C   UNL     1      -2.848  12.038  19.189  0.00  0.00    +0.000 A 
ENDROOT
BRANCH   1  12
ATOM     11  O   UNL     1      -1.192  13.978  21.525  0.00  0.00    +0.000 OA
ATOM     12  C   UNL     1      -1.780  14.069  20.463  0.00  0.00    +0.000 C 
ATOM     13  N   UNL     1      -1.404  15.011  19.489  0.00  0.00    +0.000 N 
ATOM     14  H   UNL     1      -1.954  15.098  18.646  0.00  0.00    +0.000 HD
BRANCH  13  15
ATOM     15  C   UNL     1      -0.454  16.106  19.798  0.00  0.00    +0.000 C 
ATOM     16  C   UNL     1       1.020  15.773  19.505  0.00  0.00    +0.000 C 
ATOM     17  C   UNL     1       1.723  16.424  18.313  0.00  0.00    +0.000 C 
ATOM     18  C   UNL     1       1.170  17.728  17.765  0.00  0.00    +0.000 C 
ATOM     19  C   UNL     1      -0.325  17.930  17.925  0.00  0.00    +0.000 C 
ATOM     20  C   UNL     1      -0.907  17.473  19.257  0.00  0.00    +0.000 C 
ENDBRANCH  13  15
ENDBRANCH   1  12
BRANCH   9  21
ATOM     21  N   UNL     1      -0.429  11.651  19.279  0.00  0.00    +0.000 N 
ATOM     22  H   UNL     1       0.248  12.205  18.761  0.00  0.00    +0.000 HD
BRANCH  21  23
ATOM     23  S   UNL     1       0.329  10.691  20.418  0.00  0.00    +0.000 S 
ATOM     24  O   UNL     1       1.360  11.562  20.964  0.00  0.00    +0.000 OA
ATOM     25  O   UNL     1      -0.696  10.159  21.292  0.00  0.00    +0.000 OA
BRANCH  23  26
ATOM     26  C   UNL     1       1.154   9.280  19.722  0.00  0.00    +0.000 A 
ATOM     27  C   UNL     1       1.478   8.117  20.419  0.00  0.00    +0.000 A 
ATOM     28  C   UNL     1       2.243   7.116  19.815  0.00  0.00    +0.000 A 
ATOM     29  C   UNL     1       2.680   7.266  18.501  0.00  0.00    +0.000 A 
ATOM     30 CL   UNL     1       3.622   6.036  17.757  0.00  0.00    +0.000 Cl
ATOM     31  C   UNL     1       2.360   8.416  17.785  0.00  0.00    +0.000 A 
ATOM     32  C   UNL     1       1.604   9.417  18.401  0.00  0.00    +0.000 A 
ENDBRANCH  23  26
ENDBRANCH  21  23
ENDBRANCH   9  21
TORSDOF 5
ENDMDL
MODEL 3
REMARK VINA RESULT:      -7.5      1.340      1.627
REMARK  Name = 
REMARK  5 active torsions:
REMARK  status: ('A' for Active; 'I' for Inactive)
REMARK    1  A    between atoms: C_2  and  C_10
REMARK    2  A    between atoms: N_3  and  C_4
REMARK    3  A    between atoms: C_18  and  N_19
REMARK    4  A    between atoms: N_19  and  S_20
REMARK    5  A    between atoms: S_20  and  C_23
REMARK                            x       y       z     vdW  Elec       q    Type
REMARK                         _______ _______ _______ _____ _____    ______ ____
ROOT
ATOM      1  C   UNL     1      -3.792  12.359  19.434  0.00  0.00    +0.000 A 
ATOM      2  C   UNL     1      -5.082  12.906  19.438  0.00  0.00    +0.000 A 
ATOM      3  C   UNL     1      -5.924  12.729  18.347  0.00  0.00    +0.000 A 
ATOM      4  C   UNL     1      -5.474  12.054  17.218  0.00  0.00    +0.000 A 
ATOM      5  C   UNL     1      -4.222  11.433  17.195  0.00  0.00    +0.000 A 
ATOM      6  C   UNL     1      -3.851  10.742  16.025  0.00  0.00    +0.000 A 
ATOM      7  C   UNL     1      -2.687   9.987  15.966  0.00  0.00    +0.000 A 
ATOM      8  C   UNL     1      -1.888   9.897  17.104  0.00  0.00    +0.000 A 
ATOM      9  C   UNL     1      -2.214  10.636  18.260  0.00  0.00    +0.000 A 
ATOM     10  C   UNL     1      -3.372  11.486  18.337  0.00  0.00    +0.000 A 
ENDROOT
BRANCH   1  12
ATOM     11  O   UNL     1      -2.881  12.444  21.612  0.00  0.00    +0.000 OA
ATOM     12  C   UNL     1      -2.829  12.895  20.482  0.00  0.00    +0.000 C 
ATOM     13  N   UNL     1      -1.886  13.874  20.121  0.00  0.00    +0.000 N 
ATOM     14  H   UNL     1      -1.913  14.268  19.191  0.00  0.00    +0.000 HD
BRANCH  13  15
ATOM     15  C   UNL     1      -1.086  14.592  21.143  0.00  0.00    +0.000 C 
ATOM     16  C   UNL     1       0.391  14.801  20.763  0.00  0.00    +0.000 C 
ATOM     17  C   UNL     1       0.887  16.198  20.385  0.00  0.00    +0.000 C 
ATOM     18  C   UNL     1       0.103  17.405  20.869  0.00  0.00    +0.000 C 
ATOM     19  C   UNL     1      -1.386  17.191  21.060  0.00  0.00    +0.000 C 
ATOM     20  C   UNL     1      -1.780  15.855  21.679  0.00  0.00    +0.000 C 
ENDBRANCH  13  15
ENDBRANCH   1  12
BRANCH   9  21
ATOM     21  N   UNL     1      -1.447  10.434  19.431  0.00  0.00    +0.000 N 
ATOM     22  H   UNL     1      -1.931  10.442  20.324  0.00  0.00    +0.000 HD
BRANCH  21  23
ATOM     23  S   UNL     1       0.171  10.810  19.625  0.00  0.00    +0.000 S 
ATOM     24  O   UNL     1       0.381  11.902  18.686  0.00  0.00    +0.000 OA
ATOM     25  O   UNL     1       0.402  11.025  21.039  0.00  0.00    +0.000 OA
BRANCH  23  26
ATOM     26  C   UNL     1       1.267   9.494  19.149  0.00  0.00    +0.000 A 
ATOM     27  C   UNL     1       1.879   9.373  17.903  0.00  0.00    +0.000 A 
ATOM     28  C   UNL     1       2.620   8.233  17.583  0.00  0.00    +0.000 A 
ATOM     29  C   UNL     1       2.765   7.209  18.514  0.00  0.00    +0.000 A 
ATOM     30 CL   UNL     1       3.675   5.805  18.121  0.00  0.00    +0.000 Cl
ATOM     31  C   UNL     1       2.169   7.314  19.768  0.00  0.00    +0.000 A 
ATOM     32  C   UNL     1       1.420   8.453  20.075  0.00  0.00    +0.000 A 
ENDBRANCH  23  26
ENDBRANCH  21  23
ENDBRANCH   9  21
TORSDOF 5
ENDMDL
MODEL 4
REMARK VINA RESULT:      -7.2      2.637      5.297
REMARK  Name = 
REMARK  5 active torsions:
REMARK  status: ('A' for Active; 'I' for Inactive)
REMARK    1  A    between atoms: C_2  and  C_10
REMARK    2  A    between atoms: N_3  and  C_4
REMARK    3  A    between atoms: C_18  and  N_19
REMARK    4  A    between atoms: N_19  and  S_20
REMARK    5  A    between atoms: S_20  and  C_23
REMARK                            x       y       z     vdW  Elec       q    Type
REMARK                         _______ _______ _______ _____ _____    ______ ____
ROOT
ATOM      1  C   UNL     1       1.343  11.714  19.454  0.00  0.00    +0.000 A 
ATOM      2  C   UNL     1       1.853  11.173  18.266  0.00  0.00    +0.000 A 
ATOM      3  C   UNL     1       1.883   9.797  18.075  0.00  0.00    +0.000 A 
ATOM      4  C   UNL     1       1.457   8.941  19.085  0.00  0.00    +0.000 A 
ATOM      5  C   UNL     1       0.877   9.435  20.257  0.00  0.00    +0.000 A 
ATOM      6  C   UNL     1       0.441   8.502  21.219  0.00  0.00    +0.000 A 
ATOM      7  C   UNL     1      -0.264   8.899  22.347  0.00  0.00    +0.000 A 
ATOM      8  C   UNL     1      -0.567  10.250  22.508  0.00  0.00    +0.000 A 
ATOM      9  C   UNL     1      -0.081  11.201  21.587  0.00  0.00    +0.000 A 
ATOM     10  C   UNL     1       0.715  10.837  20.444  0.00  0.00    +0.000 A 
ENDROOT
BRANCH   1  12
ATOM     11  O   UNL     1       2.392  13.441  20.677  0.00  0.00    +0.000 OA
ATOM     12  C   UNL     1       1.675  13.172  19.729  0.00  0.00    +0.000 C 
ATOM     13  N   UNL     1       1.175  14.171  18.875  0.00  0.00    +0.000 N 
ATOM     14  H   UNL     1       0.535  13.916  18.137  0.00  0.00    +0.000 HD
BRANCH  13  15
ATOM     15  C   UNL     1       1.274  15.609  19.225  0.00  0.00    +0.000 C 
ATOM     16  C   UNL     1       2.423  16.356  18.525  0.00  0.00    +0.000 C 
ATOM     17  C   UNL     1       2.109  17.354  17.408  0.00  0.00    +0.000 C 
ATOM     18  C   UNL     1       0.724  17.973  17.353  0.00  0.00    +0.000 C 
ATOM     19  C   UNL     1      -0.403  17.119  17.899  0.00  0.00    +0.000 C 
ATOM     20  C   UNL     1      -0.077  16.341  19.169  0.00  0.00    +0.000 C 
ENDBRANCH  13  15
ENDBRANCH   1  12
BRANCH   9  21
ATOM     21  N   UNL     1      -0.498  12.545  21.717  0.00  0.00    +0.000 N 
ATOM     22  H   UNL     1       0.007  13.138  22.369  0.00  0.00    +0.000 HD
BRANCH  21  23
ATOM     23  S   UNL     1      -2.043  13.127  21.454  0.00  0.00    +0.000 S 
ATOM     24  O   UNL     1      -2.818  12.533  22.533  0.00  0.00    +0.000 OA
ATOM     25  O   UNL     1      -1.955  14.568  21.345  0.00  0.00    +0.000 OA
BRANCH  23  26
ATOM     26  C   UNL     1      -2.761  12.568  19.927  0.00  0.00    +0.000 A 
ATOM     27  C   UNL     1      -4.119  12.328  19.721  0.00  0.00    +0.000 A 
ATOM     28  C   UNL     1      -4.567  11.766  18.523  0.00  0.00    +0.000 A 
ATOM     29  C   UNL     1      -3.660  11.450  17.516  0.00  0.00    +0.000 A 
ATOM     30 CL   UNL     1      -4.210  10.756  16.043  0.00  0.00    +0.000 Cl
ATOM     31  C   UNL     1      -2.301  11.690  17.699  0.00  0.00    +0.000 A 
ATOM     32  C   UNL     1      -1.860  12.242  18.904  0.00  0.00    +0.000 A 
ENDBRANCH  23  26
ENDBRANCH  21  23
ENDBRANCH   9  21
TORSDOF 5
ENDMDL
MODEL 5
REMARK VINA RESULT:      -7.2      3.008      5.665
REMARK  Name = 
REMARK  5 active torsions:
REMARK  status: ('A' for Active; 'I' for Inactive)
REMARK    1  A    between atoms: C_2  and  C_10
REMARK    2  A    between atoms: N_3  and  C_4
REMARK    3  A    between atoms: C_18  and  N_19
REMARK    4  A    between atoms: N_19  and  S_20
REMARK    5  A    between atoms: S_20  and  C_23
REMARK                            x       y       z     vdW  Elec       q    Type
REMARK                         _______ _______ _______ _____ _____    ______ ____
ROOT
ATOM      1  C   UNL     1       1.184  11.962  19.629  0.00  0.00    +0.000 A 
ATOM      2  C   UNL     1       1.620  11.335  18.455  0.00  0.00    +0.000 A 
ATOM      3  C   UNL     1       1.570   9.951  18.337  0.00  0.00    +0.000 A 
ATOM      4  C   UNL     1       1.137   9.172  19.404  0.00  0.00    +0.000 A 
ATOM      5  C   UNL     1       0.628   9.756  20.568  0.00  0.00    +0.000 A 
ATOM      6  C   UNL     1       0.180   8.899  21.593  0.00  0.00    +0.000 A 
ATOM      7  C   UNL     1      -0.460   9.391  22.722  0.00  0.00    +0.000 A 
ATOM      8  C   UNL     1      -0.684  10.764  22.821  0.00  0.00    +0.000 A 
ATOM      9  C   UNL     1      -0.184  11.638  21.835  0.00  0.00    +0.000 A 
ATOM     10  C   UNL     1       0.549  11.173  20.686  0.00  0.00    +0.000 A 
ENDROOT
BRANCH   1  12
ATOM     11  O   UNL     1       2.338  13.695  20.745  0.00  0.00    +0.000 OA
ATOM     12  C   UNL     1       1.603  13.412  19.815  0.00  0.00    +0.000 C 
ATOM     13  N   UNL     1       1.160  14.385  18.902  0.00  0.00    +0.000 N 
ATOM     14  H   UNL     1       0.503  14.124  18.180  0.00  0.00    +0.000 HD
BRANCH  13  15
ATOM     15  C   UNL     1       1.346  15.833  19.163  0.00  0.00    +0.000 C 
ATOM     16  C   UNL     1       2.520  16.472  18.401  0.00  0.00    +0.000 C 
ATOM     17  C   UNL     1       2.241  17.419  17.232  0.00  0.00    +0.000 C 
ATOM     18  C   UNL     1       0.891  18.111  17.162  0.00  0.00    +0.000 C 
ATOM     19  C   UNL     1      -0.271  17.355  17.776  0.00  0.00    +0.000 C 
ATOM     20  C   UNL     1       0.036  16.636  19.085  0.00  0.00    +0.000 C 
ENDBRANCH  13  15
ENDBRANCH   1  12
BRANCH   9  21
ATOM     21  N   UNL     1      -0.524  13.008  21.908  0.00  0.00    +0.000 N 
ATOM     22  H   UNL     1       0.122  13.634  22.380  0.00  0.00    +0.000 HD
BRANCH  21  23
ATOM     23  S   UNL     1      -2.072  13.640  21.904  0.00  0.00    +0.000 S 
ATOM     24  O   UNL     1      -2.555  13.364  23.249  0.00  0.00    +0.000 OA
ATOM     25  O   UNL     1      -1.983  15.009  21.441  0.00  0.00    +0.000 OA
BRANCH  23  26
ATOM     26  C   UNL     1      -3.171  12.817  20.776  0.00  0.00    +0.000 A 
ATOM     27  C   UNL     1      -2.798  12.272  19.548  0.00  0.00    +0.000 A 
ATOM     28  C   UNL     1      -3.761  11.760  18.675  0.00  0.00    +0.000 A 
ATOM     29  C   UNL     1      -5.107  11.779  19.030  0.00  0.00    +0.000 A 
ATOM     30 CL   UNL     1      -6.294  11.153  17.957  0.00  0.00    +0.000 Cl
ATOM     31  C   UNL     1      -5.500  12.311  20.255  0.00  0.00    +0.000 A 
ATOM     32  C   UNL     1      -4.531  12.831  21.117  0.00  0.00    +0.000 A 
ENDBRANCH  23  26
ENDBRANCH  21  23
ENDBRANCH   9  21
TORSDOF 5
ENDMDL
MODEL 6
REMARK VINA RESULT:      -7.0      3.668      6.237
REMARK  Name = 
REMARK  5 active torsions:
REMARK  status: ('A' for Active; 'I' for Inactive)
REMARK    1  A    between atoms: C_2  and  C_10
REMARK    2  A    between atoms: N_3  and  C_4
REMARK    3  A    between atoms: C_18  and  N_19
REMARK    4  A    between atoms: N_19  and  S_20
REMARK    5  A    between atoms: S_20  and  C_23
REMARK                            x       y       z     vdW  Elec       q    Type
REMARK                         _______ _______ _______ _____ _____    ______ ____
ROOT
ATOM      1  C   UNL     1       1.216  11.801  19.733  0.00  0.00    +0.000 A 
ATOM      2  C   UNL     1       1.616  11.123  18.574  0.00  0.00    +0.000 A 
ATOM      3  C   UNL     1       1.454   9.747  18.472  0.00  0.00    +0.000 A 
ATOM      4  C   UNL     1       0.943   9.021  19.543  0.00  0.00    +0.000 A 
ATOM      5  C   UNL     1       0.467   9.661  20.690  0.00  0.00    +0.000 A 
ATOM      6  C   UNL     1      -0.065   8.857  21.719  0.00  0.00    +0.000 A 
ATOM      7  C   UNL     1      -0.680   9.416  22.832  0.00  0.00    +0.000 A 
ATOM      8  C   UNL     1      -0.792  10.803  22.910  0.00  0.00    +0.000 A 
ATOM      9  C   UNL     1      -0.207  11.619  21.921  0.00  0.00    +0.000 A 
ATOM     10  C   UNL     1       0.502  11.081  20.790  0.00  0.00    +0.000 A 
ENDROOT
BRANCH   1  12
ATOM     11  O   UNL     1       2.424  13.468  20.890  0.00  0.00    +0.000 OA
ATOM     12  C   UNL     1       1.750  13.214  19.908  0.00  0.00    +0.000 C 
ATOM     13  N   UNL     1       1.481  14.183  18.926  0.00  0.00    +0.000 N 
ATOM     14  H   UNL     1       0.868  13.953  18.157  0.00  0.00    +0.000 HD
BRANCH  13  15
ATOM     15  C   UNL     1       1.776  15.619  19.155  0.00  0.00    +0.000 C 
ATOM     16  C   UNL     1       2.924  16.177  18.294  0.00  0.00    +0.000 C 
ATOM     17  C   UNL     1       2.612  17.131  17.140  0.00  0.00    +0.000 C 
ATOM     18  C   UNL     1       1.307  17.907  17.168  0.00  0.00    +0.000 C 
ATOM     19  C   UNL     1       0.152  17.229  17.882  0.00  0.00    +0.000 C 
ATOM     20  C   UNL     1       0.517  16.502  19.170  0.00  0.00    +0.000 C 
ENDBRANCH  13  15
ENDBRANCH   1  12
BRANCH   9  21
ATOM     21  N   UNL     1      -0.435  13.014  21.972  0.00  0.00    +0.000 N 
ATOM     22  H   UNL     1      -0.067  13.527  22.768  0.00  0.00    +0.000 HD
BRANCH  21  23
ATOM     23  S   UNL     1      -1.719  13.828  21.278  0.00  0.00    +0.000 S 
ATOM     24  O   UNL     1      -1.547  15.196  21.745  0.00  0.00    +0.000 OA
ATOM     25  O   UNL     1      -1.698  13.548  19.857  0.00  0.00    +0.000 OA
BRANCH  23  26
ATOM     26  C   UNL     1      -3.306  13.275  21.858  0.00  0.00    +0.000 A 
ATOM     27  C   UNL     1      -4.377  12.917  21.040  0.00  0.00    +0.000 A 
ATOM     28  C   UNL     1      -5.625  12.620  21.594  0.00  0.00    +0.000 A 
ATOM     29  C   UNL     1      -5.808  12.668  22.973  0.00  0.00    +0.000 A 
ATOM     30 CL   UNL     1      -7.343  12.305  23.655  0.00  0.00    +0.000 Cl
ATOM     31  C   UNL     1      -4.749  13.016  23.807  0.00  0.00    +0.000 A 
ATOM     32  C   UNL     1      -3.507  13.322  23.244  0.00  0.00    +0.000 A 
ENDBRANCH  23  26
ENDBRANCH  21  23
ENDBRANCH   9  21
TORSDOF 5
ENDMDL
MODEL 7
REMARK VINA RESULT:      -7.0      3.785      7.163
REMARK  Name = 
REMARK  5 active torsions:
REMARK  status: ('A' for Active; 'I' for Inactive)
REMARK    1  A    between atoms: C_2  and  C_10
REMARK    2  A    between atoms: N_3  and  C_4
REMARK    3  A    between atoms: C_18  and  N_19
REMARK    4  A    between atoms: N_19  and  S_20
REMARK    5  A    between atoms: S_20  and  C_23
REMARK                            x       y       z     vdW  Elec       q    Type
REMARK                         _______ _______ _______ _____ _____    ______ ____
ROOT
ATOM      1  C   UNL     1      -1.854  11.271  18.114  0.00  0.00    +0.000 A 
ATOM      2  C   UNL     1      -2.148  10.732  16.854  0.00  0.00    +0.000 A 
ATOM      3  C   UNL     1      -3.464  10.630  16.422  0.00  0.00    +0.000 A 
ATOM      4  C   UNL     1      -4.507  11.011  17.259  0.00  0.00    +0.000 A 
ATOM      5  C   UNL     1      -4.261  11.617  18.494  0.00  0.00    +0.000 A 
ATOM      6  C   UNL     1      -5.371  12.004  19.271  0.00  0.00    +0.000 A 
ATOM      7  C   UNL     1      -5.218  12.730  20.444  0.00  0.00    +0.000 A 
ATOM      8  C   UNL     1      -3.935  13.102  20.840  0.00  0.00    +0.000 A 
ATOM      9  C   UNL     1      -2.811  12.666  20.107  0.00  0.00    +0.000 A 
ATOM     10  C   UNL     1      -2.924  11.852  18.926  0.00  0.00    +0.000 A 
ENDROOT
BRANCH   1  12
ATOM     11  O   UNL     1       0.370  11.910  18.587  0.00  0.00    +0.000 OA
ATOM     12  C   UNL     1      -0.453  11.015  18.648  0.00  0.00    +0.000 C 
ATOM     13  N   UNL     1      -0.147   9.768  19.220  0.00  0.00    +0.000 N 
ATOM     14  H   UNL     1      -0.835   9.029  19.197  0.00  0.00    +0.000 HD
BRANCH  13  15
ATOM     15  C   UNL     1       1.250   9.387  19.543  0.00  0.00    +0.000 C 
ATOM     16  C   UNL     1       1.388   8.422  20.734  0.00  0.00    +0.000 C 
ATOM     17  C   UNL     1       1.772   6.962  20.487  0.00  0.00    +0.000 C 
ATOM     18  C   UNL     1       2.498   6.607  19.202  0.00  0.00    +0.000 C 
ATOM     19  C   UNL     1       2.191   7.488  18.006  0.00  0.00    +0.000 C 
ATOM     20  C   UNL     1       2.068   8.977  18.306  0.00  0.00    +0.000 C 
ENDBRANCH  13  15
ENDBRANCH   1  12
BRANCH   9  21
ATOM     21  N   UNL     1      -1.535  13.154  20.471  0.00  0.00    +0.000 N 
ATOM     22  H   UNL     1      -0.862  13.324  19.729  0.00  0.00    +0.000 HD
BRANCH  21  23
ATOM     23  S   UNL     1      -0.762  12.899  21.931  0.00  0.00    +0.000 S 
ATOM     24  O   UNL     1      -1.330  11.644  22.401  0.00  0.00    +0.000 OA
ATOM     25  O   UNL     1       0.663  12.996  21.694  0.00  0.00    +0.000 OA
BRANCH  23  26
ATOM     26  C   UNL     1      -1.135  14.131  23.156  0.00  0.00    +0.000 A 
ATOM     27  C   UNL     1      -2.185  14.060  24.070  0.00  0.00    +0.000 A 
ATOM     28  C   UNL     1      -2.473  15.141  24.907  0.00  0.00    +0.000 A 
ATOM     29  C   UNL     1      -1.704  16.299  24.844  0.00  0.00    +0.000 A 
ATOM     30 CL   UNL     1      -2.059  17.631  25.871  0.00  0.00    +0.000 Cl
ATOM     31  C   UNL     1      -0.646  16.387  23.944  0.00  0.00    +0.000 A 
ATOM     32  C   UNL     1      -0.371  15.305  23.103  0.00  0.00    +0.000 A 
ENDBRANCH  23  26
ENDBRANCH  21  23
ENDBRANCH   9  21
TORSDOF 5
ENDMDL
MODEL 8
REMARK VINA RESULT:      -6.9      3.910      7.706
REMARK  Name = 
REMARK  5 active torsions:
REMARK  status: ('A' for Active; 'I' for Inactive)
REMARK    1  A    between atoms: C_2  and  C_10
REMARK    2  A    between atoms: N_3  and  C_4
REMARK    3  A    between atoms: C_18  and  N_19
REMARK    4  A    between atoms: N_19  and  S_20
REMARK    5  A    between atoms: S_20  and  C_23
REMARK                            x       y       z     vdW  Elec       q    Type
REMARK                         _______ _______ _______ _____ _____    ______ ____
ROOT
ATOM      1  C   UNL     1       1.358  14.395  18.813  0.00  0.00    +0.000 A 
ATOM      2  C   UNL     1       2.736  14.221  18.626  0.00  0.00    +0.000 A 
ATOM      3  C   UNL     1       3.518  15.266  18.151  0.00  0.00    +0.000 A 
ATOM      4  C   UNL     1       2.932  16.478  17.805  0.00  0.00    +0.000 A 
ATOM      5  C   UNL     1       1.576  16.720  18.038  0.00  0.00    +0.000 A 
ATOM      6  C   UNL     1       1.062  17.985  17.688  0.00  0.00    +0.000 A 
ATOM      7  C   UNL     1      -0.237  18.355  18.008  0.00  0.00    +0.000 A 
ATOM      8  C   UNL     1      -1.035  17.457  18.715  0.00  0.00    +0.000 A 
ATOM      9  C   UNL     1      -0.556  16.165  19.013  0.00  0.00    +0.000 A 
ATOM     10  C   UNL     1       0.758  15.719  18.636  0.00  0.00    +0.000 A 
ENDROOT
BRANCH   1  12
ATOM     11  O   UNL     1      -0.361  12.900  18.187  0.00  0.00    +0.000 OA
ATOM     12  C   UNL     1       0.535  13.127  18.981  0.00  0.00    +0.000 C 
ATOM     13  N   UNL     1       0.839  12.236  20.025  0.00  0.00    +0.000 N 
ATOM     14  H   UNL     1       1.547  12.487  20.700  0.00  0.00    +0.000 HD
BRANCH  13  15
ATOM     15  C   UNL     1      -0.067  11.114  20.373  0.00  0.00    +0.000 C 
ATOM     16  C   UNL     1       0.653   9.799  20.720  0.00  0.00    +0.000 C 
ATOM     17  C   UNL     1       0.692   9.314  22.170  0.00  0.00    +0.000 C 
ATOM     18  C   UNL     1      -0.369   9.815  23.134  0.00  0.00    +0.000 C 
ATOM     19  C   UNL     1      -0.922  11.198  22.846  0.00  0.00    +0.000 C 
ATOM     20  C   UNL     1      -1.166  11.509  21.374  0.00  0.00    +0.000 C 
ENDBRANCH  13  15
ENDBRANCH   1  12
BRANCH   9  21
ATOM     21  N   UNL     1      -1.348  15.321  19.827  0.00  0.00    +0.000 N 
ATOM     22  H   UNL     1      -2.191  14.925  19.421  0.00  0.00    +0.000 HD
BRANCH  21  23
ATOM     23  S   UNL     1      -1.455  15.378  21.494  0.00  0.00    +0.000 S 
ATOM     24  O   UNL     1      -0.250  14.692  21.935  0.00  0.00    +0.000 OA
ATOM     25  O   UNL     1      -1.672  16.760  21.870  0.00  0.00    +0.000 OA
BRANCH  23  26
ATOM     26  C   UNL     1      -2.839  14.475  22.147  0.00  0.00    +0.000 A 
ATOM     27  C   UNL     1      -3.926  14.024  21.400  0.00  0.00    +0.000 A 
ATOM     28  C   UNL     1      -5.026  13.436  22.029  0.00  0.00    +0.000 A 
ATOM     29  C   UNL     1      -5.042  13.283  23.413  0.00  0.00    +0.000 A 
ATOM     30 CL   UNL     1      -6.395  12.563  24.189  0.00  0.00    +0.000 Cl
ATOM     31  C   UNL     1      -3.963  13.719  24.176  0.00  0.00    +0.000 A 
ATOM     32  C   UNL     1      -2.871  14.316  23.540  0.00  0.00    +0.000 A 
ENDBRANCH  23  26
ENDBRANCH  21  23
ENDBRANCH   9  21
TORSDOF 5
ENDMDL
MODEL 9
REMARK VINA RESULT:      -6.9      2.602      3.190
REMARK  Name = 
REMARK  5 active torsions:
REMARK  status: ('A' for Active; 'I' for Inactive)
REMARK    1  A    between atoms: C_2  and  C_10
REMARK    2  A    between atoms: N_3  and  C_4
REMARK    3  A    between atoms: C_18  and  N_19
REMARK    4  A    between atoms: N_19  and  S_20
REMARK    5  A    between atoms: S_20  and  C_23
REMARK                            x       y       z     vdW  Elec       q    Type
REMARK                         _______ _______ _______ _____ _____    ______ ____
ROOT
ATOM      1  C   UNL     1      -3.926  12.311  19.467  0.00  0.00    +0.000 A 
ATOM      2  C   UNL     1      -5.243  12.790  19.437  0.00  0.00    +0.000 A 
ATOM      3  C   UNL     1      -6.020  12.640  18.296  0.00  0.00    +0.000 A 
ATOM      4  C   UNL     1      -5.480  12.061  17.152  0.00  0.00    +0.000 A 
ATOM      5  C   UNL     1      -4.197  11.507  17.157  0.00  0.00    +0.000 A 
ATOM      6  C   UNL     1      -3.733  10.911  15.968  0.00  0.00    +0.000 A 
ATOM      7  C   UNL     1      -2.528  10.222  15.924  0.00  0.00    +0.000 A 
ATOM      8  C   UNL     1      -1.782  10.100  17.095  0.00  0.00    +0.000 A 
ATOM      9  C   UNL     1      -2.202  10.748  18.275  0.00  0.00    +0.000 A 
ATOM     10  C   UNL     1      -3.407  11.531  18.342  0.00  0.00    +0.000 A 
ENDROOT
BRANCH   1  12
ATOM     11  O   UNL     1      -2.032  13.442  20.311  0.00  0.00    +0.000 OA
ATOM     12  C   UNL     1      -3.045  12.829  20.594  0.00  0.00    +0.000 C 
ATOM     13  N   UNL     1      -3.429  12.613  21.929  0.00  0.00    +0.000 N 
ATOM     14  H   UNL     1      -4.243  12.047  22.126  0.00  0.00    +0.000 HD
BRANCH  13  15
ATOM     15  C   UNL     1      -2.504  12.889  23.055  0.00  0.00    +0.000 C 
ATOM     16  C   UNL     1      -1.371  13.876  22.721  0.00  0.00    +0.000 C 
ATOM     17  C   UNL     1      -1.403  15.291  23.300  0.00  0.00    +0.000 C 
ATOM     18  C   UNL     1      -2.215  15.545  24.558  0.00  0.00    +0.000 C 
ATOM     19  C   UNL     1      -3.428  14.655  24.751  0.00  0.00    +0.000 C 
ATOM     20  C   UNL     1      -3.229  13.191  24.377  0.00  0.00    +0.000 C 
ENDBRANCH  13  15
ENDBRANCH   1  12
BRANCH   9  21
ATOM     21  N   UNL     1      -1.483  10.512  19.469  0.00  0.00    +0.000 N 
ATOM     22  H   UNL     1      -1.998  10.530  20.345  0.00  0.00    +0.000 HD
BRANCH  21  23
ATOM     23  S   UNL     1       0.138  10.833  19.722  0.00  0.00    +0.000 S 
ATOM     24  O   UNL     1       0.414  11.930  18.806  0.00  0.00    +0.000 OA
ATOM     25  O   UNL     1       0.329  11.022  21.145  0.00  0.00    +0.000 OA
BRANCH  23  26
ATOM     26  C   UNL     1       1.207   9.489  19.264  0.00  0.00    +0.000 A 
ATOM     27  C   UNL     1       1.792   9.323  18.009  0.00  0.00    +0.000 A 
ATOM     28  C   UNL     1       2.512   8.164  17.709  0.00  0.00    +0.000 A 
ATOM     29  C   UNL     1       2.663   7.166  18.667  0.00  0.00    +0.000 A 
ATOM     30 CL   UNL     1       3.546   5.738  18.298  0.00  0.00    +0.000 Cl
ATOM     31  C   UNL     1       2.093   7.316  19.928  0.00  0.00    +0.000 A 
ATOM     32  C   UNL     1       1.365   8.473  20.217  0.00  0.00    +0.000 A 
ENDBRANCH  23  26
ENDBRANCH  21  23
ENDBRANCH   9  21
TORSDOF 5
ENDMDL
