MODEL 1
REMARK VINA RESULT:      -6.9      0.000      0.000
REMARK  Name = 
REMARK  5 active torsions:
REMARK  status: ('A' for Active; 'I' for Inactive)
REMARK    1  A    between atoms: C_1  and  O_2
REMARK    2  A    between atoms: O_2  and  C_3
REMARK    3  A    between atoms: C_7  and  N_8
REMARK    4  A    between atoms: C_9  and  C_10
REMARK    5  A    between atoms: C_13  and  O_14
REMARK                            x       y       z     vdW  Elec       q    Type
REMARK                         _______ _______ _______ _____ _____    ______ ____
ROOT
ATOM      1  C   UNL     1       2.271   3.729  17.784  0.00  0.00    +0.000 A 
ATOM      2  C   UNL     1       1.707   4.975  18.061  0.00  0.00    +0.000 A 
ATOM      3  C   UNL     1       2.489   6.130  18.027  0.00  0.00    +0.000 A 
ATOM      4  C   UNL     1       3.848   6.048  17.712  0.00  0.00    +0.000 A 
ATOM      5  C   UNL     1       4.430   4.805  17.445  0.00  0.00    +0.000 A 
ATOM      6  C   UNL     1       3.631   3.648  17.480  0.00  0.00    +0.000 A 
ENDROOT
BRANCH   5   7
ATOM      7  N   UNL     1       5.806   4.698  17.095  0.00  0.00    +0.000 N 
ATOM      8  C   UNL     1       6.407   4.546  15.849  0.00  0.00    +0.000 A 
ATOM      9  C   UNL     1       5.768   4.659  14.514  0.00  0.00    +0.000 C 
ATOM     10  N   UNL     1       7.715   4.421  16.004  0.00  0.00    +0.000 NA
ATOM     11  N   UNL     1       8.011   4.528  17.332  0.00  0.00    +0.000 NA
ATOM     12  C   UNL     1       6.883   4.712  17.964  0.00  0.00    +0.000 A 
BRANCH  12  13
ATOM     13  O   UNL     1       6.831   4.796  19.283  0.00  0.00    +0.000 OA
ATOM     14  H   UNL     1       7.693   4.422  19.542  0.00  0.00    +0.000 HD
ENDBRANCH  12  13
ENDBRANCH   5   7
BRANCH   1  16
ATOM     15  C   UNL     1       1.135   2.127  19.126  0.00  0.00    +0.000 C 
ATOM     16  O   UNL     1       1.398   2.677  17.839  0.00  0.00    +0.000 OA
ENDBRANCH   1  16
TORSDOF 3
ENDMDL
MODEL 2
REMARK VINA RESULT:      -6.7      1.179      1.190
REMARK  Name = 
REMARK  5 active torsions:
REMARK  status: ('A' for Active; 'I' for Inactive)
REMARK    1  A    between atoms: C_1  and  O_2
REMARK    2  A    between atoms: O_2  and  C_3
REMARK    3  A    between atoms: C_7  and  N_8
REMARK    4  A    between atoms: C_9  and  C_10
REMARK    5  A    between atoms: C_13  and  O_14
REMARK                            x       y       z     vdW  Elec       q    Type
REMARK                         _______ _______ _______ _____ _____    ______ ____
ROOT
ATOM      1  C   UNL     1       2.680   3.316  19.286  0.00  0.00    +0.000 A 
ATOM      2  C   UNL     1       1.762   4.274  18.855  0.00  0.00    +0.000 A 
ATOM      3  C   UNL     1       2.173   5.337  18.050  0.00  0.00    +0.000 A 
ATOM      4  C   UNL     1       3.511   5.449  17.665  0.00  0.00    +0.000 A 
ATOM      5  C   UNL     1       4.446   4.504  18.100  0.00  0.00    +0.000 A 
ATOM      6  C   UNL     1       4.019   3.435  18.909  0.00  0.00    +0.000 A 
ENDROOT
BRANCH   5   7
ATOM      7  N   UNL     1       5.810   4.580  17.700  0.00  0.00    +0.000 N 
ATOM      8  C   UNL     1       6.402   4.304  16.471  0.00  0.00    +0.000 A 
ATOM      9  C   UNL     1       5.726   4.046  15.175  0.00  0.00    +0.000 C 
ATOM     10  N   UNL     1       7.714   4.447  16.573  0.00  0.00    +0.000 NA
ATOM     11  N   UNL     1       8.012   4.856  17.840  0.00  0.00    +0.000 NA
ATOM     12  C   UNL     1       6.883   4.952  18.490  0.00  0.00    +0.000 A 
BRANCH  12  13
ATOM     13  O   UNL     1       6.844   5.274  19.772  0.00  0.00    +0.000 OA
ATOM     14  H   UNL     1       6.756   6.244  19.733  0.00  0.00    +0.000 HD
ENDBRANCH  12  13
ENDBRANCH   5   7
BRANCH   1  16
ATOM     15  C   UNL     1       1.418   2.721  21.213  0.00  0.00    +0.000 C 
ATOM     16  O   UNL     1       2.152   2.319  20.060  0.00  0.00    +0.000 OA
ENDBRANCH   1  16
TORSDOF 3
ENDMDL
MODEL 3
REMARK VINA RESULT:      -6.5      1.495      2.505
REMARK  Name = 
REMARK  5 active torsions:
REMARK  status: ('A' for Active; 'I' for Inactive)
REMARK    1  A    between atoms: C_1  and  O_2
REMARK    2  A    between atoms: O_2  and  C_3
REMARK    3  A    between atoms: C_7  and  N_8
REMARK    4  A    between atoms: C_9  and  C_10
REMARK    5  A    between atoms: C_13  and  O_14
REMARK                            x       y       z     vdW  Elec       q    Type
REMARK                         _______ _______ _______ _____ _____    ______ ____
ROOT
ATOM      1  C   UNL     1       2.659   6.401  18.346  0.00  0.00    +0.000 A 
ATOM      2  C   UNL     1       1.739   5.367  18.171  0.00  0.00    +0.000 A 
ATOM      3  C   UNL     1       2.146   4.136  17.655  0.00  0.00    +0.000 A 
ATOM      4  C   UNL     1       3.483   3.927  17.311  0.00  0.00    +0.000 A 
ATOM      5  C   UNL     1       4.415   4.959  17.468  0.00  0.00    +0.000 A 
ATOM      6  C   UNL     1       3.993   6.195  17.991  0.00  0.00    +0.000 A 
ENDROOT
BRANCH   5   7
ATOM      7  N   UNL     1       5.789   4.763  17.150  0.00  0.00    +0.000 N 
ATOM      8  C   UNL     1       6.405   4.548  15.921  0.00  0.00    +0.000 A 
ATOM      9  C   UNL     1       5.803   4.666  14.570  0.00  0.00    +0.000 C 
ATOM     10  N   UNL     1       7.700   4.350  16.108  0.00  0.00    +0.000 NA
ATOM     11  N   UNL     1       7.975   4.471  17.439  0.00  0.00    +0.000 NA
ATOM     12  C   UNL     1       6.847   4.736  18.042  0.00  0.00    +0.000 A 
BRANCH  12  13
ATOM     13  O   UNL     1       6.772   4.854  19.357  0.00  0.00    +0.000 OA
ATOM     14  H   UNL     1       6.812   5.820  19.475  0.00  0.00    +0.000 HD
ENDBRANCH  12  13
ENDBRANCH   5   7
BRANCH   1  16
ATOM     15  C   UNL     1       2.053   8.674  17.996  0.00  0.00    +0.000 C 
ATOM     16  O   UNL     1       2.138   7.553  18.869  0.00  0.00    +0.000 OA
ENDBRANCH   1  16
TORSDOF 3
ENDMDL
MODEL 4
REMARK VINA RESULT:      -6.5      2.458      5.077
REMARK  Name = 
REMARK  5 active torsions:
REMARK  status: ('A' for Active; 'I' for Inactive)
REMARK    1  A    between atoms: C_1  and  O_2
REMARK    2  A    between atoms: O_2  and  C_3
REMARK    3  A    between atoms: C_7  and  N_8
REMARK    4  A    between atoms: C_9  and  C_10
REMARK    5  A    between atoms: C_13  and  O_14
REMARK                            x       y       z     vdW  Elec       q    Type
REMARK                         _______ _______ _______ _____ _____    ______ ____
ROOT
ATOM      1  C   UNL     1       6.871   4.761  16.690  0.00  0.00    +0.000 A 
ATOM      2  C   UNL     1       7.481   5.332  17.807  0.00  0.00    +0.000 A 
ATOM      3  C   UNL     1       6.814   5.378  19.031  0.00  0.00    +0.000 A 
ATOM      4  C   UNL     1       5.527   4.848  19.151  0.00  0.00    +0.000 A 
ATOM      5  C   UNL     1       4.898   4.284  18.036  0.00  0.00    +0.000 A 
ATOM      6  C   UNL     1       5.581   4.241  16.807  0.00  0.00    +0.000 A 
ENDROOT
BRANCH   5   7
ATOM      7  N   UNL     1       3.598   3.713  18.137  0.00  0.00    +0.000 N 
ATOM      8  C   UNL     1       2.354   4.325  18.260  0.00  0.00    +0.000 A 
ATOM      9  C   UNL     1       2.034   5.767  18.116  0.00  0.00    +0.000 C 
ATOM     10  N   UNL     1       1.419   3.398  18.390  0.00  0.00    +0.000 NA
ATOM     11  N   UNL     1       2.007   2.169  18.313  0.00  0.00    +0.000 NA
ATOM     12  C   UNL     1       3.286   2.364  18.142  0.00  0.00    +0.000 A 
BRANCH  12  13
ATOM     13  O   UNL     1       4.143   1.358  18.089  0.00  0.00    +0.000 OA
ATOM     14  H   UNL     1       3.934   0.962  17.223  0.00  0.00    +0.000 HD
ENDBRANCH  12  13
ENDBRANCH   5   7
BRANCH   1  16
ATOM     15  C   UNL     1       6.933   4.788  14.312  0.00  0.00    +0.000 C 
ATOM     16  O   UNL     1       7.632   4.767  15.552  0.00  0.00    +0.000 OA
ENDBRANCH   1  16
TORSDOF 3
ENDMDL
MODEL 5
REMARK VINA RESULT:      -6.4      2.485      5.117
REMARK  Name = 
REMARK  5 active torsions:
REMARK  status: ('A' for Active; 'I' for Inactive)
REMARK    1  A    between atoms: C_1  and  O_2
REMARK    2  A    between atoms: O_2  and  C_3
REMARK    3  A    between atoms: C_7  and  N_8
REMARK    4  A    between atoms: C_9  and  C_10
REMARK    5  A    between atoms: C_13  and  O_14
REMARK                            x       y       z     vdW  Elec       q    Type
REMARK                         _______ _______ _______ _____ _____    ______ ____
ROOT
ATOM      1  C   UNL     1       6.854   5.877  16.579  0.00  0.00    +0.000 A 
ATOM      2  C   UNL     1       6.879   5.057  15.450  0.00  0.00    +0.000 A 
ATOM      3  C   UNL     1       6.016   3.965  15.349  0.00  0.00    +0.000 A 
ATOM      4  C   UNL     1       5.116   3.684  16.379  0.00  0.00    +0.000 A 
ATOM      5  C   UNL     1       5.089   4.489  17.523  0.00  0.00    +0.000 A 
ATOM      6  C   UNL     1       5.962   5.589  17.613  0.00  0.00    +0.000 A 
ENDROOT
BRANCH   5   7
ATOM      7  N   UNL     1       4.163   4.241  18.575  0.00  0.00    +0.000 N 
ATOM      8  C   UNL     1       3.016   4.937  18.946  0.00  0.00    +0.000 A 
ATOM      9  C   UNL     1       2.337   6.028  18.203  0.00  0.00    +0.000 C 
ATOM     10  N   UNL     1       2.498   4.385  20.031  0.00  0.00    +0.000 NA
ATOM     11  N   UNL     1       3.252   3.300  20.373  0.00  0.00    +0.000 NA
ATOM     12  C   UNL     1       4.217   3.211  19.498  0.00  0.00    +0.000 A 
BRANCH  12  13
ATOM     13  O   UNL     1       5.159   2.287  19.593  0.00  0.00    +0.000 OA
ATOM     14  H   UNL     1       4.932   1.692  18.855  0.00  0.00    +0.000 HD
ENDBRANCH  12  13
ENDBRANCH   5   7
BRANCH   1  16
ATOM     15  C   UNL     1       7.741   7.790  17.679  0.00  0.00    +0.000 C 
ATOM     16  O   UNL     1       7.740   6.920  16.553  0.00  0.00    +0.000 OA
ENDBRANCH   1  16
TORSDOF 3
ENDMDL
MODEL 6
REMARK VINA RESULT:      -6.4      2.532      5.119
REMARK  Name = 
REMARK  5 active torsions:
REMARK  status: ('A' for Active; 'I' for Inactive)
REMARK    1  A    between atoms: C_1  and  O_2
REMARK    2  A    between atoms: O_2  and  C_3
REMARK    3  A    between atoms: C_7  and  N_8
REMARK    4  A    between atoms: C_9  and  C_10
REMARK    5  A    between atoms: C_13  and  O_14
REMARK                            x       y       z     vdW  Elec       q    Type
REMARK                         _______ _______ _______ _____ _____    ______ ____
ROOT
ATOM      1  C   UNL     1       6.810   4.873  16.698  0.00  0.00    +0.000 A 
ATOM      2  C   UNL     1       7.417   5.322  17.871  0.00  0.00    +0.000 A 
ATOM      3  C   UNL     1       6.710   5.333  19.074  0.00  0.00    +0.000 A 
ATOM      4  C   UNL     1       5.386   4.889  19.115  0.00  0.00    +0.000 A 
ATOM      5  C   UNL     1       4.760   4.449  17.944  0.00  0.00    +0.000 A 
ATOM      6  C   UNL     1       5.483   4.441  16.737  0.00  0.00    +0.000 A 
ENDROOT
BRANCH   5   7
ATOM      7  N   UNL     1       3.421   3.966  17.963  0.00  0.00    +0.000 N 
ATOM      8  C   UNL     1       2.936   2.664  18.045  0.00  0.00    +0.000 A 
ATOM      9  C   UNL     1       3.702   1.427  18.340  0.00  0.00    +0.000 C 
ATOM     10  N   UNL     1       1.616   2.680  17.961  0.00  0.00    +0.000 NA
ATOM     11  N   UNL     1       1.199   3.977  17.867  0.00  0.00    +0.000 NA
ATOM     12  C   UNL     1       2.268   4.727  17.891  0.00  0.00    +0.000 A 
BRANCH  12  13
ATOM     13  O   UNL     1       2.198   6.041  17.757  0.00  0.00    +0.000 OA
ATOM     14  H   UNL     1       1.242   6.203  17.861  0.00  0.00    +0.000 HD
ENDBRANCH  12  13
ENDBRANCH   5   7
BRANCH   1  16
ATOM     15  C   UNL     1       6.970   4.728  14.329  0.00  0.00    +0.000 C 
ATOM     16  O   UNL     1       7.610   4.903  15.588  0.00  0.00    +0.000 OA
ENDBRANCH   1  16
TORSDOF 3
ENDMDL
MODEL 7
REMARK VINA RESULT:      -6.4      2.770      5.032
REMARK  Name = 
REMARK  5 active torsions:
REMARK  status: ('A' for Active; 'I' for Inactive)
REMARK    1  A    between atoms: C_1  and  O_2
REMARK    2  A    between atoms: O_2  and  C_3
REMARK    3  A    between atoms: C_7  and  N_8
REMARK    4  A    between atoms: C_9  and  C_10
REMARK    5  A    between atoms: C_13  and  O_14
REMARK                            x       y       z     vdW  Elec       q    Type
REMARK                         _______ _______ _______ _____ _____    ______ ____
ROOT
ATOM      1  C   UNL     1       6.128   5.619  16.484  0.00  0.00    +0.000 A 
ATOM      2  C   UNL     1       7.271   6.114  17.112  0.00  0.00    +0.000 A 
ATOM      3  C   UNL     1       7.411   6.029  18.498  0.00  0.00    +0.000 A 
ATOM      4  C   UNL     1       6.405   5.443  19.270  0.00  0.00    +0.000 A 
ATOM      5  C   UNL     1       5.247   4.955  18.656  0.00  0.00    +0.000 A 
ATOM      6  C   UNL     1       5.119   5.044  17.258  0.00  0.00    +0.000 A 
ENDROOT
BRANCH   5   7
ATOM      7  N   UNL     1       4.220   4.328  19.416  0.00  0.00    +0.000 N 
ATOM      8  C   UNL     1       3.049   4.857  19.952  0.00  0.00    +0.000 A 
ATOM      9  C   UNL     1       2.457   6.194  19.696  0.00  0.00    +0.000 C 
ATOM     10  N   UNL     1       2.421   3.922  20.646  0.00  0.00    +0.000 NA
ATOM     11  N   UNL     1       3.128   2.758  20.552  0.00  0.00    +0.000 NA
ATOM     12  C   UNL     1       4.173   3.002  19.808  0.00  0.00    +0.000 A 
BRANCH  12  13
ATOM     13  O   UNL     1       5.092   2.079  19.576  0.00  0.00    +0.000 OA
ATOM     14  H   UNL     1       4.547   1.281  19.446  0.00  0.00    +0.000 HD
ENDBRANCH  12  13
ENDBRANCH   5   7
BRANCH   1  16
ATOM     15  C   UNL     1       6.641   4.667  14.366  0.00  0.00    +0.000 C 
ATOM     16  O   UNL     1       6.116   5.753  15.122  0.00  0.00    +0.000 OA
ENDBRANCH   1  16
TORSDOF 3
ENDMDL
MODEL 8
REMARK VINA RESULT:      -6.3      0.969      1.033
REMARK  Name = 
REMARK  5 active torsions:
REMARK  status: ('A' for Active; 'I' for Inactive)
REMARK    1  A    between atoms: C_1  and  O_2
REMARK    2  A    between atoms: O_2  and  C_3
REMARK    3  A    between atoms: C_7  and  N_8
REMARK    4  A    between atoms: C_9  and  C_10
REMARK    5  A    between atoms: C_13  and  O_14
REMARK                            x       y       z     vdW  Elec       q    Type
REMARK                         _______ _______ _______ _____ _____    ______ ____
ROOT
ATOM      1  C   UNL     1       2.547   4.940  18.764  0.00  0.00    +0.000 A 
ATOM      2  C   UNL     1       2.155   6.255  18.511  0.00  0.00    +0.000 A 
ATOM      3  C   UNL     1       3.040   7.156  17.919  0.00  0.00    +0.000 A 
ATOM      4  C   UNL     1       4.329   6.747  17.570  0.00  0.00    +0.000 A 
ATOM      5  C   UNL     1       4.741   5.435  17.829  0.00  0.00    +0.000 A 
ATOM      6  C   UNL     1       3.839   4.535  18.425  0.00  0.00    +0.000 A 
ENDROOT
BRANCH   5   7
ATOM      7  N   UNL     1       6.039   4.985  17.459  0.00  0.00    +0.000 N 
ATOM      8  C   UNL     1       6.531   4.581  16.221  0.00  0.00    +0.000 A 
ATOM      9  C   UNL     1       5.872   4.706  14.897  0.00  0.00    +0.000 C 
ATOM     10  N   UNL     1       7.784   4.177  16.356  0.00  0.00    +0.000 NA
ATOM     11  N   UNL     1       8.160   4.343  17.658  0.00  0.00    +0.000 NA
ATOM     12  C   UNL     1       7.133   4.839  18.294  0.00  0.00    +0.000 A 
BRANCH  12  13
ATOM     13  O   UNL     1       7.163   5.059  19.598  0.00  0.00    +0.000 OA
ATOM     14  H   UNL     1       6.526   5.790  19.693  0.00  0.00    +0.000 HD
ENDBRANCH  12  13
ENDBRANCH   5   7
BRANCH   1  16
ATOM     15  C   UNL     1       1.129   3.039  18.579  0.00  0.00    +0.000 C 
ATOM     16  O   UNL     1       1.585   4.153  19.338  0.00  0.00    +0.000 OA
ENDBRANCH   1  16
TORSDOF 3
ENDMDL
MODEL 9
REMARK VINA RESULT:      -6.3      2.671      5.433
REMARK  Name = 
REMARK  5 active torsions:
REMARK  status: ('A' for Active; 'I' for Inactive)
REMARK    1  A    between atoms: C_1  and  O_2
REMARK    2  A    between atoms: O_2  and  C_3
REMARK    3  A    between atoms: C_7  and  N_8
REMARK    4  A    between atoms: C_9  and  C_10
REMARK    5  A    between atoms: C_13  and  O_14
REMARK                            x       y       z     vdW  Elec       q    Type
REMARK                         _______ _______ _______ _____ _____    ______ ____
ROOT
ATOM      1  C   UNL     1       6.305   4.444  18.089  0.00  0.00    +0.000 A 
ATOM      2  C   UNL     1       6.196   4.453  16.698  0.00  0.00    +0.000 A 
ATOM      3  C   UNL     1       4.960   4.248  16.083  0.00  0.00    +0.000 A 
ATOM      4  C   UNL     1       3.818   4.033  16.858  0.00  0.00    +0.000 A 
ATOM      5  C   UNL     1       3.914   4.007  18.253  0.00  0.00    +0.000 A 
ATOM      6  C   UNL     1       5.165   4.218  18.862  0.00  0.00    +0.000 A 
ENDROOT
BRANCH   5   7
ATOM      7  N   UNL     1       2.761   3.817  19.066  0.00  0.00    +0.000 N 
ATOM      8  C   UNL     1       2.071   4.719  19.872  0.00  0.00    +0.000 A 
ATOM      9  C   UNL     1       2.243   6.191  19.939  0.00  0.00    +0.000 C 
ATOM     10  N   UNL     1       1.095   4.087  20.502  0.00  0.00    +0.000 NA
ATOM     11  N   UNL     1       1.088   2.782  20.103  0.00  0.00    +0.000 NA
ATOM     12  C   UNL     1       2.059   2.638  19.241  0.00  0.00    +0.000 A 
BRANCH  12  13
ATOM     13  O   UNL     1       2.349   1.461  18.710  0.00  0.00    +0.000 OA
ATOM     14  H   UNL     1       2.657   1.713  17.820  0.00  0.00    +0.000 HD
ENDBRANCH  12  13
ENDBRANCH   5   7
BRANCH   1  16
ATOM     15  C   UNL     1       7.849   5.979  19.047  0.00  0.00    +0.000 C 
ATOM     16  O   UNL     1       7.567   4.668  18.569  0.00  0.00    +0.000 OA
ENDBRANCH   1  16
TORSDOF 3
ENDMDL
