MODEL 1
REMARK VINA RESULT:      -7.1      0.000      0.000
REMARK  Name = 
REMARK  7 active torsions:
REMARK  status: ('A' for Active; 'I' for Inactive)
REMARK    1  A    between atoms: C_1  and  N_2
REMARK    2  A    between atoms: N_2  and  C_3
REMARK    3  A    between atoms: N_2  and  C_4
REMARK    4  A    between atoms: C_4  and  C_5
REMARK    5  A    between atoms: C_10  and  C_11
REMARK    6  A    between atoms: C_12  and  C_13
REMARK    7  A    between atoms: N_15  and  C_16
REMARK                            x       y       z     vdW  Elec       q    Type
REMARK                         _______ _______ _______ _____ _____    ______ ____
ROOT
ATOM      1  C   UNL     1      -4.193  13.707  22.263  0.00  0.00    +0.000 C 
ATOM      2  C   UNL     1      -4.461  14.999  22.497  0.00  0.00    +0.000 C 
ATOM      3  C   UNL     1      -4.451  15.199  23.961  0.00  0.00    +0.000 C 
ATOM      4  O   UNL     1      -4.618  16.247  24.558  0.00  0.00    +0.000 OA
ATOM      5  N   UNL     1      -4.201  13.999  24.524  0.00  0.00    +0.000 N 
ATOM      6  C   UNL     1      -4.032  13.048  23.578  0.00  0.00    +0.000 C 
ATOM      7  O   UNL     1      -3.797  11.874  23.786  0.00  0.00    +0.000 OA
ATOM      8  H   UNL     1      -4.132  13.837  25.514  0.00  0.00    +0.000 HD
ENDROOT
BRANCH   1  14
ATOM      9  C   UNL     1      -0.455  11.990  20.145  0.00  0.00    +0.000 C 
ATOM     10  C   UNL     1      -0.746  11.998  18.634  0.00  0.00    +0.000 C 
ATOM     11  C   UNL     1      -2.161  11.512  18.330  0.00  0.00    +0.000 C 
ATOM     12  N   UNL     1      -3.158  12.053  19.246  0.00  0.00    +0.000 N 
ATOM     13  C   UNL     1      -2.855  12.704  20.424  0.00  0.00    +0.000 A 
ATOM     14  C   UNL     1      -4.053  13.039  21.021  0.00  0.00    +0.000 A 
ATOM     15  C   UNL     1      -5.110  12.546  20.201  0.00  0.00    +0.000 A 
ATOM     16  C   UNL     1      -6.519  12.561  20.295  0.00  0.00    +0.000 A 
ATOM     17  C   UNL     1      -7.284  11.926  19.312  0.00  0.00    +0.000 A 
ATOM     18  C   UNL     1      -6.669  11.277  18.245  0.00  0.00    +0.000 A 
ATOM     19  C   UNL     1      -5.277  11.260  18.121  0.00  0.00    +0.000 A 
ATOM     20  C   UNL     1      -4.520  11.906  19.108  0.00  0.00    +0.000 A 
ATOM     21  C   UNL     1      -1.441  12.945  20.839  0.00  0.00    +0.000 C 
BRANCH   9  22
ATOM     22  C   UNL     1      -0.498  10.569  20.765  0.00  0.00    +0.000 C 
BRANCH  22  24
ATOM     23  C   UNL     1      -0.720  10.249  23.168  0.00  0.00    +0.000 C 
ATOM     24  N   UNL     1       0.210  10.473  22.058  0.00  0.00    +0.000 NA
ATOM     25  C   UNL     1       1.187   9.379  22.015  0.00  0.00    +0.000 C 
ENDBRANCH  22  24
ENDBRANCH   9  22
ENDBRANCH   1  14
BRANCH   2  26
ATOM     26  C   UNL     1      -4.705  16.045  21.573  0.00  0.00    +0.000 A 
ATOM     27  C   UNL     1      -5.940  16.614  21.351  0.00  0.00    +0.000 A 
ATOM     28  N   UNL     1      -5.788  17.560  20.372  0.00  0.00    +0.000 N 
ATOM     29  C   UNL     1      -6.864  18.357  19.829  0.00  0.00    +0.000 C 
ATOM     30  C   UNL     1      -4.470  17.626  19.965  0.00  0.00    +0.000 A 
ATOM     31  C   UNL     1      -3.844  18.427  18.996  0.00  0.00    +0.000 A 
ATOM     32  C   UNL     1      -2.471  18.261  18.791  0.00  0.00    +0.000 A 
ATOM     33  C   UNL     1      -1.746  17.329  19.525  0.00  0.00    +0.000 A 
ATOM     34  C   UNL     1      -2.380  16.530  20.482  0.00  0.00    +0.000 A 
ATOM     35  C   UNL     1      -3.765  16.676  20.712  0.00  0.00    +0.000 A 
ENDBRANCH   2  26
TORSDOF 4
ENDMDL
MODEL 2
REMARK VINA RESULT:      -6.9      2.388      5.217
REMARK  Name = 
REMARK  7 active torsions:
REMARK  status: ('A' for Active; 'I' for Inactive)
REMARK    1  A    between atoms: C_1  and  N_2
REMARK    2  A    between atoms: N_2  and  C_3
REMARK    3  A    between atoms: N_2  and  C_4
REMARK    4  A    between atoms: C_4  and  C_5
REMARK    5  A    between atoms: C_10  and  C_11
REMARK    6  A    between atoms: C_12  and  C_13
REMARK    7  A    between atoms: N_15  and  C_16
REMARK                            x       y       z     vdW  Elec       q    Type
REMARK                         _______ _______ _______ _____ _____    ______ ____
ROOT
ATOM      1  C   UNL     1      -0.922  11.939  20.078  0.00  0.00    +0.000 C 
ATOM      2  C   UNL     1      -0.123  13.002  20.253  0.00  0.00    +0.000 C 
ATOM      3  C   UNL     1       1.166  12.506  20.778  0.00  0.00    +0.000 C 
ATOM      4  O   UNL     1       2.157  13.168  21.030  0.00  0.00    +0.000 OA
ATOM      5  N   UNL     1       1.054  11.169  20.912  0.00  0.00    +0.000 N 
ATOM      6  C   UNL     1      -0.166  10.745  20.513  0.00  0.00    +0.000 C 
ATOM      7  O   UNL     1      -0.556   9.594  20.523  0.00  0.00    +0.000 OA
ATOM      8  H   UNL     1       1.786  10.566  21.247  0.00  0.00    +0.000 HD
ENDROOT
BRANCH   1  14
ATOM      9  C   UNL     1      -4.887  13.680  21.708  0.00  0.00    +0.000 C 
ATOM     10  C   UNL     1      -6.028  12.810  21.149  0.00  0.00    +0.000 C 
ATOM     11  C   UNL     1      -5.817  12.485  19.673  0.00  0.00    +0.000 C 
ATOM     12  N   UNL     1      -4.438  12.129  19.360  0.00  0.00    +0.000 N 
ATOM     13  C   UNL     1      -3.374  12.327  20.215  0.00  0.00    +0.000 A 
ATOM     14  C   UNL     1      -2.240  11.896  19.558  0.00  0.00    +0.000 A 
ATOM     15  C   UNL     1      -2.622  11.458  18.255  0.00  0.00    +0.000 A 
ATOM     16  C   UNL     1      -1.921  10.943  17.144  0.00  0.00    +0.000 A 
ATOM     17  C   UNL     1      -2.613  10.650  15.965  0.00  0.00    +0.000 A 
ATOM     18  C   UNL     1      -3.985  10.864  15.877  0.00  0.00    +0.000 A 
ATOM     19  C   UNL     1      -4.706  11.359  16.968  0.00  0.00    +0.000 A 
ATOM     20  C   UNL     1      -4.003  11.643  18.147  0.00  0.00    +0.000 A 
ATOM     21  C   UNL     1      -3.568  12.898  21.581  0.00  0.00    +0.000 C 
BRANCH   9  22
ATOM     22  C   UNL     1      -4.797  15.072  21.031  0.00  0.00    +0.000 C 
BRANCH  22  24
ATOM     23  C   UNL     1      -6.684  16.527  21.529  0.00  0.00    +0.000 C 
ATOM     24  N   UNL     1      -5.307  16.169  21.879  0.00  0.00    +0.000 NA
ATOM     25  C   UNL     1      -5.251  15.780  23.293  0.00  0.00    +0.000 C 
ENDBRANCH  22  24
ENDBRANCH   9  22
ENDBRANCH   1  14
BRANCH   2  26
ATOM     26  C   UNL     1      -0.382  14.370  19.996  0.00  0.00    +0.000 A 
ATOM     27  C   UNL     1      -0.187  14.982  18.778  0.00  0.00    +0.000 A 
ATOM     28  N   UNL     1      -0.512  16.305  18.924  0.00  0.00    +0.000 N 
ATOM     29  C   UNL     1      -0.407  17.295  17.877  0.00  0.00    +0.000 C 
ATOM     30  C   UNL     1      -0.928  16.560  20.216  0.00  0.00    +0.000 A 
ATOM     31  C   UNL     1      -1.348  17.750  20.831  0.00  0.00    +0.000 A 
ATOM     32  C   UNL     1      -1.706  17.703  22.181  0.00  0.00    +0.000 A 
ATOM     33  C   UNL     1      -1.649  16.512  22.895  0.00  0.00    +0.000 A 
ATOM     34  C   UNL     1      -1.222  15.332  22.276  0.00  0.00    +0.000 A 
ATOM     35  C   UNL     1      -0.855  15.349  20.914  0.00  0.00    +0.000 A 
ENDBRANCH   2  26
TORSDOF 4
ENDMDL
MODEL 3
REMARK VINA RESULT:      -6.9      2.148      4.486
REMARK  Name = 
REMARK  7 active torsions:
REMARK  status: ('A' for Active; 'I' for Inactive)
REMARK    1  A    between atoms: C_1  and  N_2
REMARK    2  A    between atoms: N_2  and  C_3
REMARK    3  A    between atoms: N_2  and  C_4
REMARK    4  A    between atoms: C_4  and  C_5
REMARK    5  A    between atoms: C_10  and  C_11
REMARK    6  A    between atoms: C_12  and  C_13
REMARK    7  A    between atoms: N_15  and  C_16
REMARK                            x       y       z     vdW  Elec       q    Type
REMARK                         _______ _______ _______ _____ _____    ______ ____
ROOT
ATOM      1  C   UNL     1      -3.331  13.275  22.105  0.00  0.00    +0.000 C 
ATOM      2  C   UNL     1      -4.671  13.306  22.043  0.00  0.00    +0.000 C 
ATOM      3  C   UNL     1      -5.188  12.600  23.234  0.00  0.00    +0.000 C 
ATOM      4  O   UNL     1      -6.355  12.451  23.547  0.00  0.00    +0.000 OA
ATOM      5  N   UNL     1      -4.120  12.160  23.931  0.00  0.00    +0.000 N 
ATOM      6  C   UNL     1      -2.967  12.523  23.326  0.00  0.00    +0.000 C 
ATOM      7  O   UNL     1      -1.847  12.265  23.721  0.00  0.00    +0.000 OA
ATOM      8  H   UNL     1      -4.175  11.648  24.794  0.00  0.00    +0.000 HD
ENDROOT
BRANCH   1  14
ATOM      9  C   UNL     1      -0.888  11.412  18.647  0.00  0.00    +0.000 C 
ATOM     10  C   UNL     1       0.390  12.254  18.489  0.00  0.00    +0.000 C 
ATOM     11  C   UNL     1       0.094  13.749  18.576  0.00  0.00    +0.000 C 
ATOM     12  N   UNL     1      -0.847  14.082  19.639  0.00  0.00    +0.000 N 
ATOM     13  C   UNL     1      -1.609  13.154  20.317  0.00  0.00    +0.000 A 
ATOM     14  C   UNL     1      -2.388  13.850  21.218  0.00  0.00    +0.000 A 
ATOM     15  C   UNL     1      -2.117  15.241  21.057  0.00  0.00    +0.000 A 
ATOM     16  C   UNL     1      -2.608  16.418  21.663  0.00  0.00    +0.000 A 
ATOM     17  C   UNL     1      -2.152  17.664  21.224  0.00  0.00    +0.000 A 
ATOM     18  C   UNL     1      -1.221  17.755  20.193  0.00  0.00    +0.000 A 
ATOM     19  C   UNL     1      -0.709  16.605  19.585  0.00  0.00    +0.000 A 
ATOM     20  C   UNL     1      -1.167  15.361  20.038  0.00  0.00    +0.000 A 
ATOM     21  C   UNL     1      -1.492  11.693  20.033  0.00  0.00    +0.000 C 
BRANCH   9  22
ATOM     22  C   UNL     1      -1.918  11.651  17.512  0.00  0.00    +0.000 C 
BRANCH  22  24
ATOM     23  C   UNL     1      -3.159   9.557  17.497  0.00  0.00    +0.000 C 
ATOM     24  N   UNL     1      -2.246  10.428  16.752  0.00  0.00    +0.000 NA
ATOM     25  C   UNL     1      -2.855  10.783  15.465  0.00  0.00    +0.000 C 
ENDBRANCH  22  24
ENDBRANCH   9  22
ENDBRANCH   1  14
BRANCH   2  26
ATOM     26  C   UNL     1      -5.509  13.896  21.066  0.00  0.00    +0.000 A 
ATOM     27  C   UNL     1      -6.267  15.027  21.272  0.00  0.00    +0.000 A 
ATOM     28  N   UNL     1      -6.965  15.272  20.119  0.00  0.00    +0.000 N 
ATOM     29  C   UNL     1      -7.905  16.356  19.944  0.00  0.00    +0.000 C 
ATOM     30  C   UNL     1      -6.662  14.325  19.161  0.00  0.00    +0.000 A 
ATOM     31  C   UNL     1      -7.129  14.161  17.847  0.00  0.00    +0.000 A 
ATOM     32  C   UNL     1      -6.641  13.082  17.104  0.00  0.00    +0.000 A 
ATOM     33  C   UNL     1      -5.721  12.195  17.651  0.00  0.00    +0.000 A 
ATOM     34  C   UNL     1      -5.268  12.361  18.964  0.00  0.00    +0.000 A 
ATOM     35  C   UNL     1      -5.741  13.443  19.737  0.00  0.00    +0.000 A 
ENDBRANCH   2  26
TORSDOF 4
ENDMDL
MODEL 4
REMARK VINA RESULT:      -6.9      2.758      7.250
REMARK  Name = 
REMARK  7 active torsions:
REMARK  status: ('A' for Active; 'I' for Inactive)
REMARK    1  A    between atoms: C_1  and  N_2
REMARK    2  A    between atoms: N_2  and  C_3
REMARK    3  A    between atoms: N_2  and  C_4
REMARK    4  A    between atoms: C_4  and  C_5
REMARK    5  A    between atoms: C_10  and  C_11
REMARK    6  A    between atoms: C_12  and  C_13
REMARK    7  A    between atoms: N_15  and  C_16
REMARK                            x       y       z     vdW  Elec       q    Type
REMARK                         _______ _______ _______ _____ _____    ______ ____
ROOT
ATOM      1  C   UNL     1      -0.336  13.428  19.118  0.00  0.00    +0.000 C 
ATOM      2  C   UNL     1       0.818  12.743  19.143  0.00  0.00    +0.000 C 
ATOM      3  C   UNL     1       1.915  13.713  18.946  0.00  0.00    +0.000 C 
ATOM      4  O   UNL     1       3.109  13.476  18.943  0.00  0.00    +0.000 OA
ATOM      5  N   UNL     1       1.349  14.927  18.786  0.00  0.00    +0.000 N 
ATOM      6  C   UNL     1       0.003  14.847  18.876  0.00  0.00    +0.000 C 
ATOM      7  O   UNL     1      -0.772  15.778  18.770  0.00  0.00    +0.000 OA
ATOM      8  H   UNL     1       1.861  15.780  18.638  0.00  0.00    +0.000 HD
ENDROOT
BRANCH   1  14
ATOM      9  C   UNL     1      -3.541  14.509  22.273  0.00  0.00    +0.000 C 
ATOM     10  C   UNL     1      -4.464  13.286  22.421  0.00  0.00    +0.000 C 
ATOM     11  C   UNL     1      -4.814  12.678  21.065  0.00  0.00    +0.000 C 
ATOM     12  N   UNL     1      -3.671  12.598  20.164  0.00  0.00    +0.000 N 
ATOM     13  C   UNL     1      -2.470  13.241  20.378  0.00  0.00    +0.000 A 
ATOM     14  C   UNL     1      -1.656  12.949  19.303  0.00  0.00    +0.000 A 
ATOM     15  C   UNL     1      -2.397  12.136  18.395  0.00  0.00    +0.000 A 
ATOM     16  C   UNL     1      -2.116  11.553  17.140  0.00  0.00    +0.000 A 
ATOM     17  C   UNL     1      -3.112  10.832  16.475  0.00  0.00    +0.000 A 
ATOM     18  C   UNL     1      -4.376  10.685  17.037  0.00  0.00    +0.000 A 
ATOM     19  C   UNL     1      -4.676  11.239  18.285  0.00  0.00    +0.000 A 
ATOM     20  C   UNL     1      -3.669  11.955  18.947  0.00  0.00    +0.000 A 
ATOM     21  C   UNL     1      -2.231  14.058  21.606  0.00  0.00    +0.000 C 
BRANCH   9  22
ATOM     22  C   UNL     1      -4.204  15.681  21.503  0.00  0.00    +0.000 C 
BRANCH  22  24
ATOM     23  C   UNL     1      -3.707  17.468  19.926  0.00  0.00    +0.000 C 
ATOM     24  N   UNL     1      -3.251  16.739  21.113  0.00  0.00    +0.000 NA
ATOM     25  C   UNL     1      -3.066  17.683  22.221  0.00  0.00    +0.000 C 
ENDBRANCH  22  24
ENDBRANCH   9  22
ENDBRANCH   1  14
BRANCH   2  26
ATOM     26  C   UNL     1       1.033  11.357  19.334  0.00  0.00    +0.000 A 
ATOM     27  C   UNL     1       1.620  10.526  18.405  0.00  0.00    +0.000 A 
ATOM     28  N   UNL     1       1.625   9.260  18.928  0.00  0.00    +0.000 N 
ATOM     29  C   UNL     1       2.127   8.092  18.242  0.00  0.00    +0.000 C 
ATOM     30  C   UNL     1       1.062   9.256  20.189  0.00  0.00    +0.000 A 
ATOM     31  C   UNL     1       0.844   8.209  21.098  0.00  0.00    +0.000 A 
ATOM     32  C   UNL     1       0.232   8.511  22.318  0.00  0.00    +0.000 A 
ATOM     33  C   UNL     1      -0.151   9.813  22.622  0.00  0.00    +0.000 A 
ATOM     34  C   UNL     1       0.062  10.849  21.707  0.00  0.00    +0.000 A 
ATOM     35  C   UNL     1       0.680  10.573  20.468  0.00  0.00    +0.000 A 
ENDBRANCH   2  26
TORSDOF 4
ENDMDL
MODEL 5
REMARK VINA RESULT:      -6.8      1.470      1.976
REMARK  Name = 
REMARK  7 active torsions:
REMARK  status: ('A' for Active; 'I' for Inactive)
REMARK    1  A    between atoms: C_1  and  N_2
REMARK    2  A    between atoms: N_2  and  C_3
REMARK    3  A    between atoms: N_2  and  C_4
REMARK    4  A    between atoms: C_4  and  C_5
REMARK    5  A    between atoms: C_10  and  C_11
REMARK    6  A    between atoms: C_12  and  C_13
REMARK    7  A    between atoms: N_15  and  C_16
REMARK                            x       y       z     vdW  Elec       q    Type
REMARK                         _______ _______ _______ _____ _____    ______ ____
ROOT
ATOM      1  C   UNL     1      -3.242  13.707  21.978  0.00  0.00    +0.000 C 
ATOM      2  C   UNL     1      -2.843  14.985  22.058  0.00  0.00    +0.000 C 
ATOM      3  C   UNL     1      -2.346  15.211  23.431  0.00  0.00    +0.000 C 
ATOM      4  O   UNL     1      -1.867  16.238  23.877  0.00  0.00    +0.000 OA
ATOM      5  N   UNL     1      -2.502  14.054  24.106  0.00  0.00    +0.000 N 
ATOM      6  C   UNL     1      -3.032  13.098  23.310  0.00  0.00    +0.000 C 
ATOM      7  O   UNL     1      -3.287  11.958  23.643  0.00  0.00    +0.000 OA
ATOM      8  H   UNL     1      -2.242  13.915  25.068  0.00  0.00    +0.000 HD
ENDROOT
BRANCH   1  14
ATOM      9  C   UNL     1      -1.083  11.561  18.495  0.00  0.00    +0.000 C 
ATOM     10  C   UNL     1      -2.043  11.571  17.291  0.00  0.00    +0.000 C 
ATOM     11  C   UNL     1      -3.472  11.234  17.707  0.00  0.00    +0.000 C 
ATOM     12  N   UNL     1      -3.877  11.896  18.941  0.00  0.00    +0.000 N 
ATOM     13  C   UNL     1      -3.006  12.532  19.800  0.00  0.00    +0.000 A 
ATOM     14  C   UNL     1      -3.755  13.005  20.859  0.00  0.00    +0.000 A 
ATOM     15  C   UNL     1      -5.110  12.613  20.654  0.00  0.00    +0.000 A 
ATOM     16  C   UNL     1      -6.306  12.781  21.385  0.00  0.00    +0.000 A 
ATOM     17  C   UNL     1      -7.492  12.213  20.910  0.00  0.00    +0.000 A 
ATOM     18  C   UNL     1      -7.504  11.483  19.726  0.00  0.00    +0.000 A 
ATOM     19  C   UNL     1      -6.336  11.314  18.975  0.00  0.00    +0.000 A 
ATOM     20  C   UNL     1      -5.154  11.893  19.456  0.00  0.00    +0.000 A 
ATOM     21  C   UNL     1      -1.547  12.628  19.500  0.00  0.00    +0.000 C 
BRANCH   9  22
ATOM     22  C   UNL     1      -0.956  10.164  19.158  0.00  0.00    +0.000 C 
BRANCH  22  24
ATOM     23  C   UNL     1       1.379  10.440  18.528  0.00  0.00    +0.000 C 
ATOM     24  N   UNL     1       0.441   9.773  19.435  0.00  0.00    +0.000 NA
ATOM     25  C   UNL     1       0.790  10.103  20.822  0.00  0.00    +0.000 C 
ENDBRANCH  22  24
ENDBRANCH   9  22
ENDBRANCH   1  14
BRANCH   2  26
ATOM     26  C   UNL     1      -2.849  15.990  21.060  0.00  0.00    +0.000 A 
ATOM     27  C   UNL     1      -3.942  16.764  20.742  0.00  0.00    +0.000 A 
ATOM     28  N   UNL     1      -3.576  17.593  19.715  0.00  0.00    +0.000 N 
ATOM     29  C   UNL     1      -4.459  18.539  19.071  0.00  0.00    +0.000 C 
ATOM     30  C   UNL     1      -2.256  17.379  19.369  0.00  0.00    +0.000 A 
ATOM     31  C   UNL     1      -1.454  17.976  18.384  0.00  0.00    +0.000 A 
ATOM     32  C   UNL     1      -0.132  17.539  18.256  0.00  0.00    +0.000 A 
ATOM     33  C   UNL     1       0.374  16.541  19.082  0.00  0.00    +0.000 A 
ATOM     34  C   UNL     1      -0.436  15.946  20.055  0.00  0.00    +0.000 A 
ATOM     35  C   UNL     1      -1.774  16.368  20.207  0.00  0.00    +0.000 A 
ENDBRANCH   2  26
TORSDOF 4
ENDMDL
MODEL 6
REMARK VINA RESULT:      -6.8      2.171      6.470
REMARK  Name = 
REMARK  7 active torsions:
REMARK  status: ('A' for Active; 'I' for Inactive)
REMARK    1  A    between atoms: C_1  and  N_2
REMARK    2  A    between atoms: N_2  and  C_3
REMARK    3  A    between atoms: N_2  and  C_4
REMARK    4  A    between atoms: C_4  and  C_5
REMARK    5  A    between atoms: C_10  and  C_11
REMARK    6  A    between atoms: C_12  and  C_13
REMARK    7  A    between atoms: N_15  and  C_16
REMARK                            x       y       z     vdW  Elec       q    Type
REMARK                         _______ _______ _______ _____ _____    ______ ____
ROOT
ATOM      1  C   UNL     1      -3.436  14.283  20.934  0.00  0.00    +0.000 C 
ATOM      2  C   UNL     1      -2.144  13.938  21.023  0.00  0.00    +0.000 C 
ATOM      3  C   UNL     1      -1.343  15.170  20.867  0.00  0.00    +0.000 C 
ATOM      4  O   UNL     1      -0.130  15.267  20.924  0.00  0.00    +0.000 OA
ATOM      5  N   UNL     1      -2.208  16.184  20.664  0.00  0.00    +0.000 N 
ATOM      6  C   UNL     1      -3.485  15.741  20.691  0.00  0.00    +0.000 C 
ATOM      7  O   UNL     1      -4.477  16.426  20.536  0.00  0.00    +0.000 OA
ATOM      8  H   UNL     1      -1.940  17.144  20.530  0.00  0.00    +0.000 HD
ENDROOT
BRANCH   1  14
ATOM      9  C   UNL     1      -6.959  14.438  23.928  0.00  0.00    +0.000 C 
ATOM     10  C   UNL     1      -7.521  13.010  24.042  0.00  0.00    +0.000 C 
ATOM     11  C   UNL     1      -7.630  12.337  22.677  0.00  0.00    +0.000 C 
ATOM     12  N   UNL     1      -6.467  12.574  21.831  0.00  0.00    +0.000 N 
ATOM     13  C   UNL     1      -5.497  13.518  22.095  0.00  0.00    +0.000 A 
ATOM     14  C   UNL     1      -4.585  13.463  21.061  0.00  0.00    +0.000 A 
ATOM     15  C   UNL     1      -5.034  12.484  20.126  0.00  0.00    +0.000 A 
ATOM     16  C   UNL     1      -4.547  12.005  18.890  0.00  0.00    +0.000 A 
ATOM     17  C   UNL     1      -5.278  11.044  18.185  0.00  0.00    +0.000 A 
ATOM     18  C   UNL     1      -6.479  10.557  18.689  0.00  0.00    +0.000 A 
ATOM     19  C   UNL     1      -6.976  11.003  19.918  0.00  0.00    +0.000 A 
ATOM     20  C   UNL     1      -6.233  11.962  20.619  0.00  0.00    +0.000 A 
ATOM     21  C   UNL     1      -5.546  14.363  23.326  0.00  0.00    +0.000 C 
BRANCH   9  22
ATOM     22  C   UNL     1      -7.879  15.390  23.118  0.00  0.00    +0.000 C 
BRANCH  22  24
ATOM     23  C   UNL     1      -7.789  17.011  21.304  0.00  0.00    +0.000 C 
ATOM     24  N   UNL     1      -7.163  16.549  22.546  0.00  0.00    +0.000 NA
ATOM     25  C   UNL     1      -7.134  17.650  23.515  0.00  0.00    +0.000 C 
ENDBRANCH  22  24
ENDBRANCH   9  22
ENDBRANCH   1  14
BRANCH   2  26
ATOM     26  C   UNL     1      -1.569  12.662  21.241  0.00  0.00    +0.000 A 
ATOM     27  C   UNL     1      -1.466  12.056  22.473  0.00  0.00    +0.000 A 
ATOM     28  N   UNL     1      -0.830  10.856  22.291  0.00  0.00    +0.000 N 
ATOM     29  C   UNL     1      -0.499   9.934  23.353  0.00  0.00    +0.000 C 
ATOM     30  C   UNL     1      -0.531  10.666  20.956  0.00  0.00    +0.000 A 
ATOM     31  C   UNL     1       0.115   9.608  20.298  0.00  0.00    +0.000 A 
ATOM     32  C   UNL     1       0.289   9.700  18.914  0.00  0.00    +0.000 A 
ATOM     33  C   UNL     1      -0.164  10.809  18.209  0.00  0.00    +0.000 A 
ATOM     34  C   UNL     1      -0.799  11.863  18.875  0.00  0.00    +0.000 A 
ATOM     35  C   UNL     1      -0.990  11.797  20.271  0.00  0.00    +0.000 A 
ENDBRANCH   2  26
TORSDOF 4
ENDMDL
MODEL 7
REMARK VINA RESULT:      -6.8      3.063      7.326
REMARK  Name = 
REMARK  7 active torsions:
REMARK  status: ('A' for Active; 'I' for Inactive)
REMARK    1  A    between atoms: C_1  and  N_2
REMARK    2  A    between atoms: N_2  and  C_3
REMARK    3  A    between atoms: N_2  and  C_4
REMARK    4  A    between atoms: C_4  and  C_5
REMARK    5  A    between atoms: C_10  and  C_11
REMARK    6  A    between atoms: C_12  and  C_13
REMARK    7  A    between atoms: N_15  and  C_16
REMARK                            x       y       z     vdW  Elec       q    Type
REMARK                         _______ _______ _______ _____ _____    ______ ____
ROOT
ATOM      1  C   UNL     1      -2.826  12.120  19.518  0.00  0.00    +0.000 C 
ATOM      2  C   UNL     1      -2.303  11.037  18.925  0.00  0.00    +0.000 C 
ATOM      3  C   UNL     1      -3.315  10.514  17.984  0.00  0.00    +0.000 C 
ATOM      4  O   UNL     1      -3.196   9.560  17.237  0.00  0.00    +0.000 OA
ATOM      5  N   UNL     1      -4.402  11.305  18.088  0.00  0.00    +0.000 N 
ATOM      6  C   UNL     1      -4.194  12.295  18.985  0.00  0.00    +0.000 C 
ATOM      7  O   UNL     1      -4.996  13.156  19.290  0.00  0.00    +0.000 OA
ATOM      8  H   UNL     1      -5.248  11.185  17.557  0.00  0.00    +0.000 HD
ENDROOT
BRANCH   1  14
ATOM      9  C   UNL     1       0.308  15.483  18.993  0.00  0.00    +0.000 C 
ATOM     10  C   UNL     1       1.056  15.619  20.331  0.00  0.00    +0.000 C 
ATOM     11  C   UNL     1       0.100  15.562  21.520  0.00  0.00    +0.000 C 
ATOM     12  N   UNL     1      -0.920  14.530  21.381  0.00  0.00    +0.000 N 
ATOM     13  C   UNL     1      -1.187  13.859  20.206  0.00  0.00    +0.000 A 
ATOM     14  C   UNL     1      -2.228  12.990  20.464  0.00  0.00    +0.000 A 
ATOM     15  C   UNL     1      -2.626  13.165  21.823  0.00  0.00    +0.000 A 
ATOM     16  C   UNL     1      -3.622  12.589  22.639  0.00  0.00    +0.000 A 
ATOM     17  C   UNL     1      -3.780  13.035  23.955  0.00  0.00    +0.000 A 
ATOM     18  C   UNL     1      -2.966  14.041  24.465  0.00  0.00    +0.000 A 
ATOM     19  C   UNL     1      -1.961  14.618  23.682  0.00  0.00    +0.000 A 
ATOM     20  C   UNL     1      -1.807  14.159  22.367  0.00  0.00    +0.000 A 
ATOM     21  C   UNL     1      -0.400  14.118  18.964  0.00  0.00    +0.000 C 
BRANCH   9  22
ATOM     22  C   UNL     1      -0.680  16.649  18.729  0.00  0.00    +0.000 C 
BRANCH  22  24
ATOM     23  C   UNL     1       1.242  17.598  17.575  0.00  0.00    +0.000 C 
ATOM     24  N   UNL     1      -0.017  17.886  18.269  0.00  0.00    +0.000 NA
ATOM     25  C   UNL     1      -0.907  18.630  17.370  0.00  0.00    +0.000 C 
ENDBRANCH  22  24
ENDBRANCH   9  22
ENDBRANCH   1  14
BRANCH   2  26
ATOM     26  C   UNL     1      -1.027  10.448  19.099  0.00  0.00    +0.000 A 
ATOM     27  C   UNL     1      -0.145  10.186  18.074  0.00  0.00    +0.000 A 
ATOM     28  N   UNL     1       0.958   9.588  18.621  0.00  0.00    +0.000 N 
ATOM     29  C   UNL     1       2.100   9.125  17.865  0.00  0.00    +0.000 C 
ATOM     30  C   UNL     1       0.815   9.470  19.990  0.00  0.00    +0.000 A 
ATOM     31  C   UNL     1       1.668   8.925  20.963  0.00  0.00    +0.000 A 
ATOM     32  C   UNL     1       1.242   8.936  22.294  0.00  0.00    +0.000 A 
ATOM     33  C   UNL     1       0.008   9.471  22.645  0.00  0.00    +0.000 A 
ATOM     34  C   UNL     1      -0.839  10.005  21.668  0.00  0.00    +0.000 A 
ATOM     35  C   UNL     1      -0.435  10.009  20.316  0.00  0.00    +0.000 A 
ENDBRANCH   2  26
TORSDOF 4
ENDMDL
MODEL 8
REMARK VINA RESULT:      -6.7      2.108      4.929
REMARK  Name = 
REMARK  7 active torsions:
REMARK  status: ('A' for Active; 'I' for Inactive)
REMARK    1  A    between atoms: C_1  and  N_2
REMARK    2  A    between atoms: N_2  and  C_3
REMARK    3  A    between atoms: N_2  and  C_4
REMARK    4  A    between atoms: C_4  and  C_5
REMARK    5  A    between atoms: C_10  and  C_11
REMARK    6  A    between atoms: C_12  and  C_13
REMARK    7  A    between atoms: N_15  and  C_16
REMARK                            x       y       z     vdW  Elec       q    Type
REMARK                         _______ _______ _______ _____ _____    ______ ____
ROOT
ATOM      1  C   UNL     1      -4.029  13.138  21.904  0.00  0.00    +0.000 C 
ATOM      2  C   UNL     1      -2.695  13.010  21.855  0.00  0.00    +0.000 C 
ATOM      3  C   UNL     1      -2.274  12.274  23.064  0.00  0.00    +0.000 C 
ATOM      4  O   UNL     1      -1.141  11.935  23.358  0.00  0.00    +0.000 OA
ATOM      5  N   UNL     1      -3.385  12.024  23.786  0.00  0.00    +0.000 N 
ATOM      6  C   UNL     1      -4.483  12.507  23.161  0.00  0.00    +0.000 C 
ATOM      7  O   UNL     1      -5.624  12.433  23.574  0.00  0.00    +0.000 OA
ATOM      8  H   UNL     1      -3.398  11.530  24.662  0.00  0.00    +0.000 HD
ENDROOT
BRANCH   1  14
ATOM      9  C   UNL     1      -5.839  11.468  17.987  0.00  0.00    +0.000 C 
ATOM     10  C   UNL     1      -6.126  12.671  17.071  0.00  0.00    +0.000 C 
ATOM     11  C   UNL     1      -6.756  13.828  17.841  0.00  0.00    +0.000 C 
ATOM     12  N   UNL     1      -6.127  14.059  19.137  0.00  0.00    +0.000 N 
ATOM     13  C   UNL     1      -5.254  13.179  19.741  0.00  0.00    +0.000 A 
ATOM     14  C   UNL     1      -4.900  13.730  20.955  0.00  0.00    +0.000 A 
ATOM     15  C   UNL     1      -5.605  14.960  21.107  0.00  0.00    +0.000 A 
ATOM     16  C   UNL     1      -5.670  15.941  22.121  0.00  0.00    +0.000 A 
ATOM     17  C   UNL     1      -6.525  17.036  21.969  0.00  0.00    +0.000 A 
ATOM     18  C   UNL     1      -7.312  17.168  20.829  0.00  0.00    +0.000 A 
ATOM     19  C   UNL     1      -7.256  16.219  19.804  0.00  0.00    +0.000 A 
ATOM     20  C   UNL     1      -6.391  15.128  19.963  0.00  0.00    +0.000 A 
ATOM     21  C   UNL     1      -4.845  11.907  19.075  0.00  0.00    +0.000 C 
BRANCH   9  22
ATOM     22  C   UNL     1      -7.124  10.850  18.599  0.00  0.00    +0.000 C 
BRANCH  22  24
ATOM     23  C   UNL     1      -7.791  10.773  20.939  0.00  0.00    +0.000 C 
ATOM     24  N   UNL     1      -6.900  10.219  19.915  0.00  0.00    +0.000 NA
ATOM     25  C   UNL     1      -7.111   8.770  19.821  0.00  0.00    +0.000 C 
ENDBRANCH  22  24
ENDBRANCH   9  22
ENDBRANCH   1  14
BRANCH   2  26
ATOM     26  C   UNL     1      -1.788  13.454  20.862  0.00  0.00    +0.000 A 
ATOM     27  C   UNL     1      -0.937  12.629  20.160  0.00  0.00    +0.000 A 
ATOM     28  N   UNL     1      -0.197  13.417  19.320  0.00  0.00    +0.000 N 
ATOM     29  C   UNL     1       0.839  12.929  18.438  0.00  0.00    +0.000 C 
ATOM     30  C   UNL     1      -0.564  14.742  19.453  0.00  0.00    +0.000 A 
ATOM     31  C   UNL     1      -0.087  15.899  18.815  0.00  0.00    +0.000 A 
ATOM     32  C   UNL     1      -0.653  17.127  19.168  0.00  0.00    +0.000 A 
ATOM     33  C   UNL     1      -1.660  17.202  20.125  0.00  0.00    +0.000 A 
ATOM     34  C   UNL     1      -2.122  16.044  20.761  0.00  0.00    +0.000 A 
ATOM     35  C   UNL     1      -1.570  14.791  20.423  0.00  0.00    +0.000 A 
ENDBRANCH   2  26
TORSDOF 4
ENDMDL
MODEL 9
REMARK VINA RESULT:      -6.7      2.173      5.240
REMARK  Name = 
REMARK  7 active torsions:
REMARK  status: ('A' for Active; 'I' for Inactive)
REMARK    1  A    between atoms: C_1  and  N_2
REMARK    2  A    between atoms: N_2  and  C_3
REMARK    3  A    between atoms: N_2  and  C_4
REMARK    4  A    between atoms: C_4  and  C_5
REMARK    5  A    between atoms: C_10  and  C_11
REMARK    6  A    between atoms: C_12  and  C_13
REMARK    7  A    between atoms: N_15  and  C_16
REMARK                            x       y       z     vdW  Elec       q    Type
REMARK                         _______ _______ _______ _____ _____    ______ ____
ROOT
ATOM      1  C   UNL     1      -2.443  13.225  21.696  0.00  0.00    +0.000 C 
ATOM      2  C   UNL     1      -1.475  14.150  21.758  0.00  0.00    +0.000 C 
ATOM      3  C   UNL     1      -1.079  14.286  23.175  0.00  0.00    +0.000 C 
ATOM      4  O   UNL     1      -0.204  15.003  23.626  0.00  0.00    +0.000 OA
ATOM      5  N   UNL     1      -1.858  13.447  23.888  0.00  0.00    +0.000 N 
ATOM      6  C   UNL     1      -2.704  12.770  23.079  0.00  0.00    +0.000 C 
ATOM      7  O   UNL     1      -3.525  11.949  23.439  0.00  0.00    +0.000 OA
ATOM      8  H   UNL     1      -1.804  13.327  24.885  0.00  0.00    +0.000 HD
ENDROOT
BRANCH   1  14
ATOM      9  C   UNL     1      -6.593  14.236  19.918  0.00  0.00    +0.000 C 
ATOM     10  C   UNL     1      -7.072  12.993  19.147  0.00  0.00    +0.000 C 
ATOM     11  C   UNL     1      -5.948  12.378  18.317  0.00  0.00    +0.000 C 
ATOM     12  N   UNL     1      -4.678  12.323  19.031  0.00  0.00    +0.000 N 
ATOM     13  C   UNL     1      -4.422  12.992  20.210  0.00  0.00    +0.000 A 
ATOM     14  C   UNL     1      -3.115  12.718  20.556  0.00  0.00    +0.000 A 
ATOM     15  C   UNL     1      -2.552  11.889  19.541  0.00  0.00    +0.000 A 
ATOM     16  C   UNL     1      -1.280  11.313  19.333  0.00  0.00    +0.000 A 
ATOM     17  C   UNL     1      -1.040  10.570  18.173  0.00  0.00    +0.000 A 
ATOM     18  C   UNL     1      -2.041  10.395  17.223  0.00  0.00    +0.000 A 
ATOM     19  C   UNL     1      -3.314  10.943  17.412  0.00  0.00    +0.000 A 
ATOM     20  C   UNL     1      -3.546  11.680  18.581  0.00  0.00    +0.000 A 
ATOM     21  C   UNL     1      -5.472  13.813  20.883  0.00  0.00    +0.000 C 
BRANCH   9  22
ATOM     22  C   UNL     1      -6.145  15.393  18.988  0.00  0.00    +0.000 C 
BRANCH  22  24
ATOM     23  C   UNL     1      -7.343  17.472  18.574  0.00  0.00    +0.000 C 
ATOM     24  N   UNL     1      -7.265  16.039  18.275  0.00  0.00    +0.000 NA
ATOM     25  C   UNL     1      -7.115  15.853  16.828  0.00  0.00    +0.000 C 
ENDBRANCH  22  24
ENDBRANCH   9  22
ENDBRANCH   1  14
BRANCH   2  26
ATOM     26  C   UNL     1      -0.876  14.893  20.711  0.00  0.00    +0.000 A 
ATOM     27  C   UNL     1       0.365  14.623  20.177  0.00  0.00    +0.000 A 
ATOM     28  N   UNL     1       0.615  15.567  19.217  0.00  0.00    +0.000 N 
ATOM     29  C   UNL     1       1.835  15.650  18.447  0.00  0.00    +0.000 C 
ATOM     30  C   UNL     1      -0.451  16.439  19.108  0.00  0.00    +0.000 A 
ATOM     31  C   UNL     1      -0.647  17.555  18.279  0.00  0.00    +0.000 A 
ATOM     32  C   UNL     1      -1.845  18.264  18.402  0.00  0.00    +0.000 A 
ATOM     33  C   UNL     1      -2.815  17.876  19.319  0.00  0.00    +0.000 A 
ATOM     34  C   UNL     1      -2.607  16.768  20.147  0.00  0.00    +0.000 A 
ATOM     35  C   UNL     1      -1.408  16.032  20.044  0.00  0.00    +0.000 A 
ENDBRANCH   2  26
TORSDOF 4
ENDMDL
