MODEL 1
REMARK VINA RESULT:      -7.9      0.000      0.000
REMARK  Name = 
REMARK  7 active torsions:
REMARK  status: ('A' for Active; 'I' for Inactive)
REMARK    1  A    between atoms: C_1  and  C_2
REMARK    2  A    between atoms: C_4  and  C_5
REMARK    3  A    between atoms: C_8  and  C_9
REMARK    4  A    between atoms: C_9  and  C_10
REMARK    5  A    between atoms: C_9  and  C_11
REMARK    6  A    between atoms: C_14  and  N_15
REMARK    7  A    between atoms: C_16  and  C_18
REMARK                            x       y       z     vdW  Elec       q    Type
REMARK                         _______ _______ _______ _____ _____    ______ ____
ROOT
ATOM      1  C   UNL     1       6.534   5.511  19.378  0.00  0.00    +0.000 C 
ATOM      2  C   UNL     1       6.119   5.536  17.943  0.00  0.00    +0.000 A 
ATOM      3  S   UNL     1       7.007   4.569  16.838  0.00  0.00    +0.000 S 
ATOM      4  C   UNL     1       6.082   5.088  15.505  0.00  0.00    +0.000 A 
ATOM      5  C   UNL     1       5.097   5.965  15.903  0.00  0.00    +0.000 A 
ATOM      6  C   UNL     1       5.099   6.238  17.313  0.00  0.00    +0.000 A 
ENDROOT
BRANCH   4   7
ATOM      7  C   UNL     1       6.360   4.633  14.170  0.00  0.00    +0.000 A 
ATOM      8  N   UNL     1       7.407   5.008  13.454  0.00  0.00    +0.000 NA
ATOM      9  N   UNL     1       7.317   4.378  12.233  0.00  0.00    +0.000 NA
ATOM     10  C   UNL     1       6.220   3.656  12.272  0.00  0.00    +0.000 A 
ATOM     11  O   UNL     1       5.559   3.757  13.468  0.00  0.00    +0.000 OA
BRANCH  10  12
ATOM     12  C   UNL     1       5.643   2.795  11.205  0.00  0.00    +0.000 C 
ATOM     13  C   UNL     1       6.055   1.336  11.378  0.00  0.00    +0.000 C 
ATOM     14  C   UNL     1       4.123   2.934  11.137  0.00  0.00    +0.000 C 
ENDBRANCH  10  12
ENDBRANCH   4   7
BRANCH   6  15
ATOM     15  N   UNL     1       4.233   7.099  17.997  0.00  0.00    +0.000 N 
ATOM     16  C   UNL     1       2.991   6.724  18.495  0.00  0.00    +0.000 C 
ATOM     17  O   UNL     1       2.510   5.595  18.443  0.00  0.00    +0.000 OA
ATOM     18  H   UNL     1       4.523   8.063  18.070  0.00  0.00    +0.000 HD
BRANCH  16  19
ATOM     19  C   UNL     1       2.151   7.796  19.106  0.00  0.00    +0.000 A 
ATOM     20  C   UNL     1       1.809   8.892  18.296  0.00  0.00    +0.000 A 
ATOM     21  C   UNL     1       1.034   9.937  18.802  0.00  0.00    +0.000 A 
ATOM     22  C   UNL     1       0.584   9.890  20.117  0.00  0.00    +0.000 A 
ATOM     23  C   UNL     1       0.897   8.792  20.923  0.00  0.00    +0.000 A 
ATOM     24  C   UNL     1       1.673   7.742  20.419  0.00  0.00    +0.000 A 
ENDBRANCH  16  19
ENDBRANCH   6  15
TORSDOF 4
ENDMDL
MODEL 2
REMARK VINA RESULT:      -7.8      0.103      1.011
REMARK  Name = 
REMARK  7 active torsions:
REMARK  status: ('A' for Active; 'I' for Inactive)
REMARK    1  A    between atoms: C_1  and  C_2
REMARK    2  A    between atoms: C_4  and  C_5
REMARK    3  A    between atoms: C_8  and  C_9
REMARK    4  A    between atoms: C_9  and  C_10
REMARK    5  A    between atoms: C_9  and  C_11
REMARK    6  A    between atoms: C_14  and  N_15
REMARK    7  A    between atoms: C_16  and  C_18
REMARK                            x       y       z     vdW  Elec       q    Type
REMARK                         _______ _______ _______ _____ _____    ______ ____
ROOT
ATOM      1  C   UNL     1       6.444   5.474  19.433  0.00  0.00    +0.000 C 
ATOM      2  C   UNL     1       6.067   5.514  17.988  0.00  0.00    +0.000 A 
ATOM      3  S   UNL     1       6.960   4.530  16.902  0.00  0.00    +0.000 S 
ATOM      4  C   UNL     1       6.082   5.077  15.547  0.00  0.00    +0.000 A 
ATOM      5  C   UNL     1       5.108   5.975  15.925  0.00  0.00    +0.000 A 
ATOM      6  C   UNL     1       5.081   6.243  17.335  0.00  0.00    +0.000 A 
ENDROOT
BRANCH   4   7
ATOM      7  C   UNL     1       6.384   4.621  14.219  0.00  0.00    +0.000 A 
ATOM      8  N   UNL     1       7.446   4.991  13.523  0.00  0.00    +0.000 NA
ATOM      9  N   UNL     1       7.377   4.361  12.301  0.00  0.00    +0.000 NA
ATOM     10  C   UNL     1       6.276   3.645  12.318  0.00  0.00    +0.000 A 
ATOM     11  O   UNL     1       5.592   3.748  13.501  0.00  0.00    +0.000 OA
BRANCH  10  12
ATOM     12  C   UNL     1       5.715   2.786  11.240  0.00  0.00    +0.000 C 
ATOM     13  C   UNL     1       6.157   1.333  11.393  0.00  0.00    +0.000 C 
ATOM     14  C   UNL     1       4.193   2.895  11.175  0.00  0.00    +0.000 C 
ENDBRANCH  10  12
ENDBRANCH   4   7
BRANCH   6  15
ATOM     15  N   UNL     1       4.217   7.121  18.001  0.00  0.00    +0.000 N 
ATOM     16  C   UNL     1       2.958   6.771  18.472  0.00  0.00    +0.000 C 
ATOM     17  O   UNL     1       2.455   5.652  18.410  0.00  0.00    +0.000 OA
ATOM     18  H   UNL     1       4.525   8.079  18.079  0.00  0.00    +0.000 HD
BRANCH  16  19
ATOM     19  C   UNL     1       2.127   7.860  19.066  0.00  0.00    +0.000 A 
ATOM     20  C   UNL     1       1.772   7.738  20.420  0.00  0.00    +0.000 A 
ATOM     21  C   UNL     1       0.988   8.712  21.041  0.00  0.00    +0.000 A 
ATOM     22  C   UNL     1       0.562   9.821  20.318  0.00  0.00    +0.000 A 
ATOM     23  C   UNL     1       0.931   9.965  18.978  0.00  0.00    +0.000 A 
ATOM     24  C   UNL     1       1.718   8.990  18.352  0.00  0.00    +0.000 A 
ENDBRANCH  16  19
ENDBRANCH   6  15
TORSDOF 4
ENDMDL
MODEL 3
REMARK VINA RESULT:      -7.8      1.703      2.595
REMARK  Name = 
REMARK  7 active torsions:
REMARK  status: ('A' for Active; 'I' for Inactive)
REMARK    1  A    between atoms: C_1  and  C_2
REMARK    2  A    between atoms: C_4  and  C_5
REMARK    3  A    between atoms: C_8  and  C_9
REMARK    4  A    between atoms: C_9  and  C_10
REMARK    5  A    between atoms: C_9  and  C_11
REMARK    6  A    between atoms: C_14  and  N_15
REMARK    7  A    between atoms: C_16  and  C_18
REMARK                            x       y       z     vdW  Elec       q    Type
REMARK                         _______ _______ _______ _____ _____    ______ ____
ROOT
ATOM      1  C   UNL     1       2.620   3.696  20.079  0.00  0.00    +0.000 C 
ATOM      2  C   UNL     1       3.322   4.466  19.009  0.00  0.00    +0.000 A 
ATOM      3  S   UNL     1       4.295   3.587  17.901  0.00  0.00    +0.000 S 
ATOM      4  C   UNL     1       4.775   4.995  17.071  0.00  0.00    +0.000 A 
ATOM      5  C   UNL     1       4.182   6.113  17.617  0.00  0.00    +0.000 A 
ATOM      6  C   UNL     1       3.335   5.828  18.741  0.00  0.00    +0.000 A 
ENDROOT
BRANCH   4   7
ATOM      7  C   UNL     1       5.689   4.944  15.963  0.00  0.00    +0.000 A 
ATOM      8  N   UNL     1       6.819   5.626  15.892  0.00  0.00    +0.000 NA
ATOM      9  N   UNL     1       7.404   5.329  14.681  0.00  0.00    +0.000 NA
ATOM     10  C   UNL     1       6.596   4.484  14.081  0.00  0.00    +0.000 A 
ATOM     11  O   UNL     1       5.489   4.182  14.829  0.00  0.00    +0.000 OA
BRANCH  10  12
ATOM     12  C   UNL     1       6.743   3.862  12.737  0.00  0.00    +0.000 C 
ATOM     13  C   UNL     1       5.400   3.385  12.191  0.00  0.00    +0.000 C 
ATOM     14  C   UNL     1       7.434   4.807  11.756  0.00  0.00    +0.000 C 
ENDBRANCH  10  12
ENDBRANCH   4   7
BRANCH   6  15
ATOM     15  N   UNL     1       2.621   6.760  19.504  0.00  0.00    +0.000 N 
ATOM     16  C   UNL     1       1.958   7.860  18.975  0.00  0.00    +0.000 C 
ATOM     17  O   UNL     1       1.870   8.137  17.781  0.00  0.00    +0.000 OA
ATOM     18  H   UNL     1       2.654   6.639  20.506  0.00  0.00    +0.000 HD
BRANCH  16  19
ATOM     19  C   UNL     1       1.334   8.810  19.943  0.00  0.00    +0.000 A 
ATOM     20  C   UNL     1       1.190   8.378  21.272  0.00  0.00    +0.000 A 
ATOM     21  C   UNL     1       0.608   9.208  22.231  0.00  0.00    +0.000 A 
ATOM     22  C   UNL     1       0.175  10.481  21.873  0.00  0.00    +0.000 A 
ATOM     23  C   UNL     1       0.337  10.929  20.560  0.00  0.00    +0.000 A 
ATOM     24  C   UNL     1       0.922  10.099  19.595  0.00  0.00    +0.000 A 
ENDBRANCH  16  19
ENDBRANCH   6  15
TORSDOF 4
ENDMDL
MODEL 4
REMARK VINA RESULT:      -7.7      1.891      2.801
REMARK  Name = 
REMARK  7 active torsions:
REMARK  status: ('A' for Active; 'I' for Inactive)
REMARK    1  A    between atoms: C_1  and  C_2
REMARK    2  A    between atoms: C_4  and  C_5
REMARK    3  A    between atoms: C_8  and  C_9
REMARK    4  A    between atoms: C_9  and  C_10
REMARK    5  A    between atoms: C_9  and  C_11
REMARK    6  A    between atoms: C_14  and  N_15
REMARK    7  A    between atoms: C_16  and  C_18
REMARK                            x       y       z     vdW  Elec       q    Type
REMARK                         _______ _______ _______ _____ _____    ______ ____
ROOT
ATOM      1  C   UNL     1       1.460   3.781  19.077  0.00  0.00    +0.000 C 
ATOM      2  C   UNL     1       2.520   4.588  18.401  0.00  0.00    +0.000 A 
ATOM      3  S   UNL     1       3.521   3.792  17.256  0.00  0.00    +0.000 S 
ATOM      4  C   UNL     1       4.442   5.194  16.956  0.00  0.00    +0.000 A 
ATOM      5  C   UNL     1       3.974   6.256  17.700  0.00  0.00    +0.000 A 
ATOM      6  C   UNL     1       2.861   5.927  18.544  0.00  0.00    +0.000 A 
ENDROOT
BRANCH   4   7
ATOM      7  C   UNL     1       5.550   5.188  16.041  0.00  0.00    +0.000 A 
ATOM      8  N   UNL     1       6.673   5.862  16.221  0.00  0.00    +0.000 NA
ATOM      9  N   UNL     1       7.478   5.619  15.131  0.00  0.00    +0.000 NA
ATOM     10  C   UNL     1       6.799   4.813  14.346  0.00  0.00    +0.000 A 
ATOM     11  O   UNL     1       5.569   4.485  14.854  0.00  0.00    +0.000 OA
BRANCH  10  12
ATOM     12  C   UNL     1       7.199   4.255  13.025  0.00  0.00    +0.000 C 
ATOM     13  C   UNL     1       6.069   3.450  12.391  0.00  0.00    +0.000 C 
ATOM     14  C   UNL     1       7.692   5.351  12.083  0.00  0.00    +0.000 C 
ENDBRANCH  10  12
ENDBRANCH   4   7
BRANCH   6  15
ATOM     15  N   UNL     1       2.193   6.792  19.420  0.00  0.00    +0.000 N 
ATOM     16  C   UNL     1       1.815   8.089  19.099  0.00  0.00    +0.000 C 
ATOM     17  O   UNL     1       1.970   8.632  18.008  0.00  0.00    +0.000 OA
ATOM     18  H   UNL     1       2.042   6.451  20.358  0.00  0.00    +0.000 HD
BRANCH  16  19
ATOM     19  C   UNL     1       1.205   8.909  20.188  0.00  0.00    +0.000 A 
ATOM     20  C   UNL     1       0.560  10.101  19.816  0.00  0.00    +0.000 A 
ATOM     21  C   UNL     1      -0.025  10.924  20.780  0.00  0.00    +0.000 A 
ATOM     22  C   UNL     1       0.020  10.558  22.121  0.00  0.00    +0.000 A 
ATOM     23  C   UNL     1       0.637   9.362  22.498  0.00  0.00    +0.000 A 
ATOM     24  C   UNL     1       1.224   8.534  21.534  0.00  0.00    +0.000 A 
ENDBRANCH  16  19
ENDBRANCH   6  15
TORSDOF 4
ENDMDL
MODEL 5
REMARK VINA RESULT:      -7.6      2.089      3.154
REMARK  Name = 
REMARK  7 active torsions:
REMARK  status: ('A' for Active; 'I' for Inactive)
REMARK    1  A    between atoms: C_1  and  C_2
REMARK    2  A    between atoms: C_4  and  C_5
REMARK    3  A    between atoms: C_8  and  C_9
REMARK    4  A    between atoms: C_9  and  C_10
REMARK    5  A    between atoms: C_9  and  C_11
REMARK    6  A    between atoms: C_14  and  N_15
REMARK    7  A    between atoms: C_16  and  C_18
REMARK                            x       y       z     vdW  Elec       q    Type
REMARK                         _______ _______ _______ _____ _____    ______ ____
ROOT
ATOM      1  C   UNL     1       2.442   3.735  20.867  0.00  0.00    +0.000 C 
ATOM      2  C   UNL     1       3.173   4.474  19.794  0.00  0.00    +0.000 A 
ATOM      3  S   UNL     1       4.234   3.576  18.787  0.00  0.00    +0.000 S 
ATOM      4  C   UNL     1       4.708   4.956  17.906  0.00  0.00    +0.000 A 
ATOM      5  C   UNL     1       4.045   6.077  18.359  0.00  0.00    +0.000 A 
ATOM      6  C   UNL     1       3.151   5.820  19.451  0.00  0.00    +0.000 A 
ENDROOT
BRANCH   4   7
ATOM      7  C   UNL     1       5.680   4.882  16.852  0.00  0.00    +0.000 A 
ATOM      8  N   UNL     1       6.986   4.796  17.042  0.00  0.00    +0.000 NA
ATOM      9  N   UNL     1       7.582   4.763  15.801  0.00  0.00    +0.000 NA
ATOM     10  C   UNL     1       6.606   4.832  14.924  0.00  0.00    +0.000 A 
ATOM     11  O   UNL     1       5.368   4.903  15.507  0.00  0.00    +0.000 OA
BRANCH  10  12
ATOM     12  C   UNL     1       6.699   4.853  13.438  0.00  0.00    +0.000 C 
ATOM     13  C   UNL     1       8.100   5.236  12.970  0.00  0.00    +0.000 C 
ATOM     14  C   UNL     1       6.258   3.523  12.832  0.00  0.00    +0.000 C 
ENDBRANCH  10  12
ENDBRANCH   4   7
BRANCH   6  15
ATOM     15  N   UNL     1       2.363   6.762  20.124  0.00  0.00    +0.000 N 
ATOM     16  C   UNL     1       1.857   7.917  19.541  0.00  0.00    +0.000 C 
ATOM     17  O   UNL     1       1.990   8.243  18.364  0.00  0.00    +0.000 OA
ATOM     18  H   UNL     1       2.217   6.602  21.110  0.00  0.00    +0.000 HD
BRANCH  16  19
ATOM     19  C   UNL     1       1.125   8.865  20.432  0.00  0.00    +0.000 A 
ATOM     20  C   UNL     1       1.084   8.564  21.804  0.00  0.00    +0.000 A 
ATOM     21  C   UNL     1       0.410   9.398  22.697  0.00  0.00    +0.000 A 
ATOM     22  C   UNL     1      -0.219  10.547  22.228  0.00  0.00    +0.000 A 
ATOM     23  C   UNL     1      -0.162  10.869  20.869  0.00  0.00    +0.000 A 
ATOM     24  C   UNL     1       0.513  10.035  19.971  0.00  0.00    +0.000 A 
ENDBRANCH  16  19
ENDBRANCH   6  15
TORSDOF 4
ENDMDL
MODEL 6
REMARK VINA RESULT:      -7.3      1.985      2.963
REMARK  Name = 
REMARK  7 active torsions:
REMARK  status: ('A' for Active; 'I' for Inactive)
REMARK    1  A    between atoms: C_1  and  C_2
REMARK    2  A    between atoms: C_4  and  C_5
REMARK    3  A    between atoms: C_8  and  C_9
REMARK    4  A    between atoms: C_9  and  C_10
REMARK    5  A    between atoms: C_9  and  C_11
REMARK    6  A    between atoms: C_14  and  N_15
REMARK    7  A    between atoms: C_16  and  C_18
REMARK                            x       y       z     vdW  Elec       q    Type
REMARK                         _______ _______ _______ _____ _____    ______ ____
ROOT
ATOM      1  C   UNL     1       1.890   5.130  20.202  0.00  0.00    +0.000 C 
ATOM      2  C   UNL     1       2.720   5.667  19.082  0.00  0.00    +0.000 A 
ATOM      3  S   UNL     1       3.688   4.555  18.202  0.00  0.00    +0.000 S 
ATOM      4  C   UNL     1       4.334   5.775  17.202  0.00  0.00    +0.000 A 
ATOM      5  C   UNL     1       3.798   7.004  17.520  0.00  0.00    +0.000 A 
ATOM      6  C   UNL     1       2.860   6.964  18.606  0.00  0.00    +0.000 A 
ENDROOT
BRANCH   4   7
ATOM      7  C   UNL     1       5.310   5.483  16.189  0.00  0.00    +0.000 A 
ATOM      8  N   UNL     1       6.508   6.038  16.121  0.00  0.00    +0.000 NA
ATOM      9  N   UNL     1       7.139   5.521  15.012  0.00  0.00    +0.000 NA
ATOM     10  C   UNL     1       6.290   4.680  14.465  0.00  0.00    +0.000 A 
ATOM     11  O   UNL     1       5.108   4.593  15.153  0.00  0.00    +0.000 OA
BRANCH  10  12
ATOM     12  C   UNL     1       6.461   3.865  13.232  0.00  0.00    +0.000 C 
ATOM     13  C   UNL     1       5.121   3.572  12.563  0.00  0.00    +0.000 C 
ATOM     14  C   UNL     1       7.433   4.525  12.256  0.00  0.00    +0.000 C 
ENDBRANCH  10  12
ENDBRANCH   4   7
BRANCH   6  15
ATOM     15  N   UNL     1       2.176   8.054  19.158  0.00  0.00    +0.000 N 
ATOM     16  C   UNL     1       1.461   8.985  18.416  0.00  0.00    +0.000 C 
ATOM     17  O   UNL     1       1.296   8.957  17.199  0.00  0.00    +0.000 OA
ATOM     18  H   UNL     1       2.272   8.186  20.155  0.00  0.00    +0.000 HD
BRANCH  16  19
ATOM     19  C   UNL     1       0.879  10.144  19.156  0.00  0.00    +0.000 A 
ATOM     20  C   UNL     1       1.399  11.419  18.873  0.00  0.00    +0.000 A 
ATOM     21  C   UNL     1       0.911  12.549  19.532  0.00  0.00    +0.000 A 
ATOM     22  C   UNL     1      -0.108  12.416  20.470  0.00  0.00    +0.000 A 
ATOM     23  C   UNL     1      -0.649  11.156  20.739  0.00  0.00    +0.000 A 
ATOM     24  C   UNL     1      -0.162  10.021  20.079  0.00  0.00    +0.000 A 
ENDBRANCH  16  19
ENDBRANCH   6  15
TORSDOF 4
ENDMDL
MODEL 7
REMARK VINA RESULT:      -7.3      2.495      8.532
REMARK  Name = 
REMARK  7 active torsions:
REMARK  status: ('A' for Active; 'I' for Inactive)
REMARK    1  A    between atoms: C_1  and  C_2
REMARK    2  A    between atoms: C_4  and  C_5
REMARK    3  A    between atoms: C_8  and  C_9
REMARK    4  A    between atoms: C_9  and  C_10
REMARK    5  A    between atoms: C_9  and  C_11
REMARK    6  A    between atoms: C_14  and  N_15
REMARK    7  A    between atoms: C_16  and  C_18
REMARK                            x       y       z     vdW  Elec       q    Type
REMARK                         _______ _______ _______ _____ _____    ______ ____
ROOT
ATOM      1  C   UNL     1       4.254   2.802  18.921  0.00  0.00    +0.000 C 
ATOM      2  C   UNL     1       3.809   4.213  18.714  0.00  0.00    +0.000 A 
ATOM      3  S   UNL     1       2.981   4.987  20.002  0.00  0.00    +0.000 S 
ATOM      4  C   UNL     1       2.761   6.424  19.114  0.00  0.00    +0.000 A 
ATOM      5  C   UNL     1       3.333   6.321  17.864  0.00  0.00    +0.000 A 
ATOM      6  C   UNL     1       3.947   5.048  17.612  0.00  0.00    +0.000 A 
ENDROOT
BRANCH   4   7
ATOM      7  C   UNL     1       2.053   7.549  19.660  0.00  0.00    +0.000 A 
ATOM      8  N   UNL     1       1.743   7.689  20.938  0.00  0.00    +0.000 NA
ATOM      9  N   UNL     1       1.057   8.876  21.067  0.00  0.00    +0.000 NA
ATOM     10  C   UNL     1       0.986   9.392  19.861  0.00  0.00    +0.000 A 
ATOM     11  O   UNL     1       1.599   8.616  18.912  0.00  0.00    +0.000 OA
BRANCH  10  12
ATOM     12  C   UNL     1       0.332  10.659  19.435  0.00  0.00    +0.000 C 
ATOM     13  C   UNL     1      -0.750  10.407  18.389  0.00  0.00    +0.000 C 
ATOM     14  C   UNL     1      -0.225  11.430  20.630  0.00  0.00    +0.000 C 
ENDBRANCH  10  12
ENDBRANCH   4   7
BRANCH   6  15
ATOM     15  N   UNL     1       4.586   4.649  16.431  0.00  0.00    +0.000 N 
ATOM     16  C   UNL     1       5.625   5.349  15.831  0.00  0.00    +0.000 C 
ATOM     17  O   UNL     1       6.147   6.371  16.268  0.00  0.00    +0.000 OA
ATOM     18  H   UNL     1       4.212   3.831  15.973  0.00  0.00    +0.000 HD
BRANCH  16  19
ATOM     19  C   UNL     1       6.121   4.838  14.518  0.00  0.00    +0.000 A 
ATOM     20  C   UNL     1       7.324   5.374  14.028  0.00  0.00    +0.000 A 
ATOM     21  C   UNL     1       7.844   4.952  12.804  0.00  0.00    +0.000 A 
ATOM     22  C   UNL     1       7.173   3.983  12.064  0.00  0.00    +0.000 A 
ATOM     23  C   UNL     1       5.990   3.425  12.556  0.00  0.00    +0.000 A 
ATOM     24  C   UNL     1       5.466   3.846  13.784  0.00  0.00    +0.000 A 
ENDBRANCH  16  19
ENDBRANCH   6  15
TORSDOF 4
ENDMDL
MODEL 8
REMARK VINA RESULT:      -7.2      2.493      8.451
REMARK  Name = 
REMARK  7 active torsions:
REMARK  status: ('A' for Active; 'I' for Inactive)
REMARK    1  A    between atoms: C_1  and  C_2
REMARK    2  A    between atoms: C_4  and  C_5
REMARK    3  A    between atoms: C_8  and  C_9
REMARK    4  A    between atoms: C_9  and  C_10
REMARK    5  A    between atoms: C_9  and  C_11
REMARK    6  A    between atoms: C_14  and  N_15
REMARK    7  A    between atoms: C_16  and  C_18
REMARK                            x       y       z     vdW  Elec       q    Type
REMARK                         _______ _______ _______ _____ _____    ______ ____
ROOT
ATOM      1  C   UNL     1       3.984   2.781  18.640  0.00  0.00    +0.000 C 
ATOM      2  C   UNL     1       3.640   4.227  18.490  0.00  0.00    +0.000 A 
ATOM      3  S   UNL     1       2.793   4.983  19.777  0.00  0.00    +0.000 S 
ATOM      4  C   UNL     1       2.712   6.477  18.962  0.00  0.00    +0.000 A 
ATOM      5  C   UNL     1       3.344   6.404  17.740  0.00  0.00    +0.000 A 
ATOM      6  C   UNL     1       3.890   5.109  17.447  0.00  0.00    +0.000 A 
ENDROOT
BRANCH   4   7
ATOM      7  C   UNL     1       2.047   7.615  19.535  0.00  0.00    +0.000 A 
ATOM      8  N   UNL     1       1.738   7.735  20.815  0.00  0.00    +0.000 NA
ATOM      9  N   UNL     1       1.099   8.944  20.972  0.00  0.00    +0.000 NA
ATOM     10  C   UNL     1       1.053   9.493  19.779  0.00  0.00    +0.000 A 
ATOM     11  O   UNL     1       1.638   8.718  18.813  0.00  0.00    +0.000 OA
BRANCH  10  12
ATOM     12  C   UNL     1       0.451  10.796  19.384  0.00  0.00    +0.000 C 
ATOM     13  C   UNL     1       1.485  11.721  18.749  0.00  0.00    +0.000 C 
ATOM     14  C   UNL     1      -0.752  10.599  18.464  0.00  0.00    +0.000 C 
ENDBRANCH  10  12
ENDBRANCH   4   7
BRANCH   6  15
ATOM     15  N   UNL     1       4.567   4.733  16.280  0.00  0.00    +0.000 N 
ATOM     16  C   UNL     1       5.695   5.378  15.789  0.00  0.00    +0.000 C 
ATOM     17  O   UNL     1       6.271   6.322  16.325  0.00  0.00    +0.000 OA
ATOM     18  H   UNL     1       4.156   3.981  15.745  0.00  0.00    +0.000 HD
BRANCH  16  19
ATOM     19  C   UNL     1       6.228   4.912  14.474  0.00  0.00    +0.000 A 
ATOM     20  C   UNL     1       5.474   3.957  13.772  0.00  0.00    +0.000 A 
ATOM     21  C   UNL     1       5.913   3.467  12.541  0.00  0.00    +0.000 A 
ATOM     22  C   UNL     1       7.105   3.935  11.997  0.00  0.00    +0.000 A 
ATOM     23  C   UNL     1       7.849   4.904  12.676  0.00  0.00    +0.000 A 
ATOM     24  C   UNL     1       7.411   5.398  13.910  0.00  0.00    +0.000 A 
ENDBRANCH  16  19
ENDBRANCH   6  15
TORSDOF 4
ENDMDL
MODEL 9
REMARK VINA RESULT:      -7.2      2.497      8.793
REMARK  Name = 
REMARK  7 active torsions:
REMARK  status: ('A' for Active; 'I' for Inactive)
REMARK    1  A    between atoms: C_1  and  C_2
REMARK    2  A    between atoms: C_4  and  C_5
REMARK    3  A    between atoms: C_8  and  C_9
REMARK    4  A    between atoms: C_9  and  C_10
REMARK    5  A    between atoms: C_9  and  C_11
REMARK    6  A    between atoms: C_14  and  N_15
REMARK    7  A    between atoms: C_16  and  C_18
REMARK                            x       y       z     vdW  Elec       q    Type
REMARK                         _______ _______ _______ _____ _____    ______ ____
ROOT
ATOM      1  C   UNL     1       4.208   3.245  18.903  0.00  0.00    +0.000 C 
ATOM      2  C   UNL     1       3.743   4.633  18.607  0.00  0.00    +0.000 A 
ATOM      3  S   UNL     1       2.883   5.466  19.837  0.00  0.00    +0.000 S 
ATOM      4  C   UNL     1       2.653   6.846  18.864  0.00  0.00    +0.000 A 
ATOM      5  C   UNL     1       3.247   6.680  17.631  0.00  0.00    +0.000 A 
ATOM      6  C   UNL     1       3.885   5.406  17.462  0.00  0.00    +0.000 A 
ENDROOT
BRANCH   4   7
ATOM      7  C   UNL     1       1.919   7.987  19.334  0.00  0.00    +0.000 A 
ATOM      8  N   UNL     1       1.779   9.117  18.662  0.00  0.00    +0.000 NA
ATOM      9  N   UNL     1       1.031   9.971  19.441  0.00  0.00    +0.000 NA
ATOM     10  C   UNL     1       0.758   9.315  20.546  0.00  0.00    +0.000 A 
ATOM     11  O   UNL     1       1.278   8.047  20.555  0.00  0.00    +0.000 OA
BRANCH  10  12
ATOM     12  C   UNL     1      -0.007   9.783  21.734  0.00  0.00    +0.000 C 
ATOM     13  C   UNL     1       0.668   9.361  23.036  0.00  0.00    +0.000 C 
ATOM     14  C   UNL     1      -0.233  11.293  21.693  0.00  0.00    +0.000 C 
ENDBRANCH  10  12
ENDBRANCH   4   7
BRANCH   6  15
ATOM     15  N   UNL     1       4.549   4.951  16.316  0.00  0.00    +0.000 N 
ATOM     16  C   UNL     1       5.708   5.521  15.806  0.00  0.00    +0.000 C 
ATOM     17  O   UNL     1       6.326   6.458  16.307  0.00  0.00    +0.000 OA
ATOM     18  H   UNL     1       4.105   4.198  15.809  0.00  0.00    +0.000 HD
BRANCH  16  19
ATOM     19  C   UNL     1       6.225   4.976  14.516  0.00  0.00    +0.000 A 
ATOM     20  C   UNL     1       5.453   3.994  13.872  0.00  0.00    +0.000 A 
ATOM     21  C   UNL     1       5.877   3.432  12.667  0.00  0.00    +0.000 A 
ATOM     22  C   UNL     1       7.070   3.854  12.089  0.00  0.00    +0.000 A 
ATOM     23  C   UNL     1       7.832   4.849  12.708  0.00  0.00    +0.000 A 
ATOM     24  C   UNL     1       7.409   5.415  13.917  0.00  0.00    +0.000 A 
ENDBRANCH  16  19
ENDBRANCH   6  15
TORSDOF 4
ENDMDL
