MODEL 1
REMARK VINA RESULT:      -7.7      0.000      0.000
REMARK  Name = 
REMARK  15 active torsions:
REMARK  status: ('A' for Active; 'I' for Inactive)
REMARK    1  A    between atoms: C_1  and  C_2
REMARK    2  A    between atoms: C_2  and  C_3
REMARK    3  A    between atoms: C_2  and  C_4
REMARK    4  A    between atoms: C_4  and  O_5
REMARK    5  A    between atoms: C_4  and  C_34
REMARK    6  A    between atoms: O_5  and  C_6
REMARK    7  A    between atoms: C_9  and  C_10
REMARK    8  A    between atoms: C_10  and  N_11
REMARK    9  A    between atoms: C_12  and  C_14
REMARK   10  A    between atoms: C_19  and  C_21
REMARK   11  A    between atoms: C_21  and  C_22
REMARK   12  A    between atoms: C_22  and  N_23
REMARK   13  A    between atoms: C_22  and  C_24
REMARK   14  A    between atoms: C_24  and  C_25
REMARK   15  A    between atoms: C_34  and  O_36
REMARK                            x       y       z     vdW  Elec       q    Type
REMARK                         _______ _______ _______ _____ _____    ______ ____
ROOT
ATOM      1  N   UNL     1       2.726   6.322  18.970  0.00  0.00    +0.000 N 
ATOM      2  C   UNL     1       2.002   5.269  18.462  0.00  0.00    +0.000 C 
ATOM      3  O   UNL     1       1.431   5.336  17.382  0.00  0.00    +0.000 OA
ATOM      4  H   UNL     1       3.279   6.206  19.806  0.00  0.00    +0.000 HD
ENDROOT
BRANCH   2   5
ATOM      5  C   UNL     1       1.993   3.951  19.281  0.00  0.00    +0.000 C 
ATOM      6  C   UNL     1       0.975   4.016  20.427  0.00  0.00    +0.000 C 
ATOM      7  C   UNL     1       1.276   2.786  21.264  0.00  0.00    +0.000 C 
ATOM      8  C   UNL     1       2.769   2.561  21.064  0.00  0.00    +0.000 C 
ATOM      9  N   UNL     1       3.183   3.468  19.998  0.00  0.00    +0.000 N 
ATOM     10  C   UNL     1       4.490   3.368  19.566  0.00  0.00    +0.000 C 
ATOM     11  O   UNL     1       5.297   2.633  20.142  0.00  0.00    +0.000 OA
BRANCH  10  12
ATOM     12  C   UNL     1       4.915   4.242  18.394  0.00  0.00    +0.000 C 
BRANCH  12  13
ATOM     13  C   UNL     1       5.125   3.476  17.071  0.00  0.00    +0.000 C 
BRANCH  13  14
ATOM     14  N   UNL     1       4.375   2.210  17.082  0.00  0.00    +0.000 NA
ATOM     15  H   UNL     1       3.961   2.057  17.999  0.00  0.00    +0.000 HD
ATOM     16  H   UNL     1       5.053   1.450  16.948  0.00  0.00    +0.000 HD
ENDBRANCH  13  14
BRANCH  13  17
ATOM     17  C   UNL     1       4.675   4.370  15.889  0.00  0.00    +0.000 C 
BRANCH  17  18
ATOM     18  C   UNL     1       5.559   4.310  14.664  0.00  0.00    +0.000 A 
ATOM     19  C   UNL     1       5.158   3.596  13.525  0.00  0.00    +0.000 A 
ATOM     20  C   UNL     1       5.977   3.536  12.395  0.00  0.00    +0.000 A 
ATOM     21  C   UNL     1       7.206   4.194  12.386  0.00  0.00    +0.000 A 
ATOM     22  C   UNL     1       7.615   4.909  13.509  0.00  0.00    +0.000 A 
ATOM     23  C   UNL     1       6.796   4.958  14.637  0.00  0.00    +0.000 A 
ATOM     24  F   UNL     1       7.208   5.657  15.704  0.00  0.00    +0.000 F 
ENDBRANCH  17  18
ENDBRANCH  13  17
ENDBRANCH  12  13
ENDBRANCH  10  12
ENDBRANCH   2   5
BRANCH   1  25
ATOM     25  C   UNL     1       2.818   7.604  18.304  0.00  0.00    +0.000 C 
BRANCH  25  29
ATOM     26  C   UNL     1      -0.095  10.392  19.920  0.00  0.00    +0.000 A 
ATOM     27  C   UNL     1       0.444   9.385  20.711  0.00  0.00    +0.000 A 
ATOM     28  C   UNL     1       1.407   8.510  20.195  0.00  0.00    +0.000 A 
ATOM     29  C   UNL     1       1.825   8.601  18.862  0.00  0.00    +0.000 A 
ATOM     30  C   UNL     1       1.324   9.652  18.081  0.00  0.00    +0.000 A 
ATOM     31  C   UNL     1       0.384  10.556  18.613  0.00  0.00    +0.000 A 
BRANCH  26  32
ATOM     32  O   UNL     1      -1.172  11.145  20.325  0.00  0.00    +0.000 OA
BRANCH  32  33
ATOM     33  C   UNL     1      -1.525  12.273  19.481  0.00  0.00    +0.000 C 
BRANCH  33  35
ATOM     34  C   UNL     1      -0.977  13.582  21.682  0.00  0.00    +0.000 C 
ATOM     35  C   UNL     1      -1.508  13.641  20.241  0.00  0.00    +0.000 C 
ATOM     36  C   UNL     1      -0.634  14.687  19.523  0.00  0.00    +0.000 C 
ENDBRANCH  33  35
BRANCH  33  37
ATOM     37  C   UNL     1      -2.950  11.947  18.995  0.00  0.00    +0.000 C 
ATOM     38  O   UNL     1      -3.233  11.013  18.267  0.00  0.00    +0.000 OA
BRANCH  37  39
ATOM     39  O   UNL     1      -3.903  12.799  19.450  0.00  0.00    +0.000 OA
ATOM     40  H   UNL     1      -3.621  13.177  20.307  0.00  0.00    +0.000 HD
ENDBRANCH  37  39
ENDBRANCH  33  37
ENDBRANCH  32  33
ENDBRANCH  26  32
ENDBRANCH  25  29
ENDBRANCH   1  25
TORSDOF 13
ENDMDL
MODEL 2
REMARK VINA RESULT:      -7.6      4.243     10.579
REMARK  Name = 
REMARK  15 active torsions:
REMARK  status: ('A' for Active; 'I' for Inactive)
REMARK    1  A    between atoms: C_1  and  C_2
REMARK    2  A    between atoms: C_2  and  C_3
REMARK    3  A    between atoms: C_2  and  C_4
REMARK    4  A    between atoms: C_4  and  O_5
REMARK    5  A    between atoms: C_4  and  C_34
REMARK    6  A    between atoms: O_5  and  C_6
REMARK    7  A    between atoms: C_9  and  C_10
REMARK    8  A    between atoms: C_10  and  N_11
REMARK    9  A    between atoms: C_12  and  C_14
REMARK   10  A    between atoms: C_19  and  C_21
REMARK   11  A    between atoms: C_21  and  C_22
REMARK   12  A    between atoms: C_22  and  N_23
REMARK   13  A    between atoms: C_22  and  C_24
REMARK   14  A    between atoms: C_24  and  C_25
REMARK   15  A    between atoms: C_34  and  O_36
REMARK                            x       y       z     vdW  Elec       q    Type
REMARK                         _______ _______ _______ _____ _____    ______ ____
ROOT
ATOM      1  N   UNL     1      -0.191   9.916  17.928  0.00  0.00    +0.000 N 
ATOM      2  C   UNL     1      -1.007  11.023  17.873  0.00  0.00    +0.000 C 
ATOM      3  O   UNL     1      -0.598  12.144  18.142  0.00  0.00    +0.000 OA
ATOM      4  H   UNL     1      -0.519   9.023  17.595  0.00  0.00    +0.000 HD
ENDROOT
BRANCH   2   5
ATOM      5  C   UNL     1      -2.464  10.809  17.384  0.00  0.00    +0.000 C 
ATOM      6  C   UNL     1      -2.561  10.927  15.858  0.00  0.00    +0.000 C 
ATOM      7  C   UNL     1      -4.053  10.954  15.580  0.00  0.00    +0.000 C 
ATOM      8  C   UNL     1      -4.648  11.603  16.823  0.00  0.00    +0.000 C 
ATOM      9  N   UNL     1      -3.566  11.691  17.799  0.00  0.00    +0.000 N 
ATOM     10  C   UNL     1      -3.895  12.156  19.056  0.00  0.00    +0.000 C 
ATOM     11  O   UNL     1      -5.025  12.591  19.299  0.00  0.00    +0.000 OA
BRANCH  10  12
ATOM     12  C   UNL     1      -2.800  12.169  20.113  0.00  0.00    +0.000 C 
BRANCH  12  13
ATOM     13  C   UNL     1      -2.321  13.579  20.519  0.00  0.00    +0.000 C 
BRANCH  13  14
ATOM     14  N   UNL     1      -3.465  14.499  20.635  0.00  0.00    +0.000 NA
ATOM     15  H   UNL     1      -3.225  15.405  20.238  0.00  0.00    +0.000 HD
ATOM     16  H   UNL     1      -3.627  14.662  21.636  0.00  0.00    +0.000 HD
ENDBRANCH  13  14
BRANCH  13  17
ATOM     17  C   UNL     1      -1.552  13.489  21.860  0.00  0.00    +0.000 C 
BRANCH  17  18
ATOM     18  C   UNL     1      -0.901  12.153  22.140  0.00  0.00    +0.000 A 
ATOM     19  C   UNL     1       0.291  11.788  21.497  0.00  0.00    +0.000 A 
ATOM     20  C   UNL     1       0.889  10.552  21.751  0.00  0.00    +0.000 A 
ATOM     21  C   UNL     1       0.308   9.665  22.657  0.00  0.00    +0.000 A 
ATOM     22  C   UNL     1      -0.875  10.017  23.305  0.00  0.00    +0.000 A 
ATOM     23  C   UNL     1      -1.471  11.250  23.039  0.00  0.00    +0.000 A 
ATOM     24  F   UNL     1      -2.606  11.568  23.678  0.00  0.00    +0.000 F 
ENDBRANCH  17  18
ENDBRANCH  13  17
ENDBRANCH  12  13
ENDBRANCH  10  12
ENDBRANCH   2   5
BRANCH   1  25
ATOM     25  C   UNL     1       1.187   9.980  18.363  0.00  0.00    +0.000 C 
BRANCH  25  29
ATOM     26  C   UNL     1       2.946   6.062  19.013  0.00  0.00    +0.000 A 
ATOM     27  C   UNL     1       2.290   6.729  20.041  0.00  0.00    +0.000 A 
ATOM     28  C   UNL     1       1.697   7.976  19.817  0.00  0.00    +0.000 A 
ATOM     29  C   UNL     1       1.778   8.602  18.567  0.00  0.00    +0.000 A 
ATOM     30  C   UNL     1       2.391   7.903  17.517  0.00  0.00    +0.000 A 
ATOM     31  C   UNL     1       2.954   6.631  17.733  0.00  0.00    +0.000 A 
BRANCH  26  32
ATOM     32  O   UNL     1       3.702   4.934  19.236  0.00  0.00    +0.000 OA
BRANCH  32  33
ATOM     33  C   UNL     1       3.103   3.670  18.847  0.00  0.00    +0.000 C 
BRANCH  33  35
ATOM     34  C   UNL     1       0.862   2.319  18.941  0.00  0.00    +0.000 C 
ATOM     35  C   UNL     1       1.779   3.351  19.617  0.00  0.00    +0.000 C 
ATOM     36  C   UNL     1       2.052   2.797  21.028  0.00  0.00    +0.000 C 
ENDBRANCH  33  35
BRANCH  33  37
ATOM     37  C   UNL     1       4.185   2.624  19.183  0.00  0.00    +0.000 C 
ATOM     38  O   UNL     1       4.076   1.429  18.977  0.00  0.00    +0.000 OA
BRANCH  37  39
ATOM     39  O   UNL     1       5.307   3.144  19.741  0.00  0.00    +0.000 OA
ATOM     40  H   UNL     1       6.095   2.707  19.360  0.00  0.00    +0.000 HD
ENDBRANCH  37  39
ENDBRANCH  33  37
ENDBRANCH  32  33
ENDBRANCH  26  32
ENDBRANCH  25  29
ENDBRANCH   1  25
TORSDOF 13
ENDMDL
MODEL 3
REMARK VINA RESULT:      -7.5      1.347      2.101
REMARK  Name = 
REMARK  15 active torsions:
REMARK  status: ('A' for Active; 'I' for Inactive)
REMARK    1  A    between atoms: C_1  and  C_2
REMARK    2  A    between atoms: C_2  and  C_3
REMARK    3  A    between atoms: C_2  and  C_4
REMARK    4  A    between atoms: C_4  and  O_5
REMARK    5  A    between atoms: C_4  and  C_34
REMARK    6  A    between atoms: O_5  and  C_6
REMARK    7  A    between atoms: C_9  and  C_10
REMARK    8  A    between atoms: C_10  and  N_11
REMARK    9  A    between atoms: C_12  and  C_14
REMARK   10  A    between atoms: C_19  and  C_21
REMARK   11  A    between atoms: C_21  and  C_22
REMARK   12  A    between atoms: C_22  and  N_23
REMARK   13  A    between atoms: C_22  and  C_24
REMARK   14  A    between atoms: C_24  and  C_25
REMARK   15  A    between atoms: C_34  and  O_36
REMARK                            x       y       z     vdW  Elec       q    Type
REMARK                         _______ _______ _______ _____ _____    ______ ____
ROOT
ATOM      1  N   UNL     1       2.551   6.408  19.304  0.00  0.00    +0.000 N 
ATOM      2  C   UNL     1       2.138   5.290  18.616  0.00  0.00    +0.000 C 
ATOM      3  O   UNL     1       1.909   5.316  17.414  0.00  0.00    +0.000 OA
ATOM      4  H   UNL     1       2.842   6.336  20.267  0.00  0.00    +0.000 HD
ENDROOT
BRANCH   2   5
ATOM      5  C   UNL     1       2.040   3.961  19.411  0.00  0.00    +0.000 C 
ATOM      6  C   UNL     1       0.968   4.046  20.504  0.00  0.00    +0.000 C 
ATOM      7  C   UNL     1       1.182   2.792  21.334  0.00  0.00    +0.000 C 
ATOM      8  C   UNL     1       2.674   2.517  21.207  0.00  0.00    +0.000 C 
ATOM      9  N   UNL     1       3.174   3.424  20.179  0.00  0.00    +0.000 N 
ATOM     10  C   UNL     1       4.498   3.284  19.812  0.00  0.00    +0.000 C 
ATOM     11  O   UNL     1       5.248   2.511  20.416  0.00  0.00    +0.000 OA
BRANCH  10  12
ATOM     12  C   UNL     1       5.012   4.160  18.679  0.00  0.00    +0.000 C 
BRANCH  12  13
ATOM     13  C   UNL     1       5.756   5.431  19.142  0.00  0.00    +0.000 C 
BRANCH  13  14
ATOM     14  N   UNL     1       6.966   5.074  19.901  0.00  0.00    +0.000 NA
ATOM     15  H   UNL     1       6.870   4.138  20.289  0.00  0.00    +0.000 HD
ATOM     16  H   UNL     1       7.021   5.710  20.706  0.00  0.00    +0.000 HD
ENDBRANCH  13  14
BRANCH  13  17
ATOM     17  C   UNL     1       6.118   6.288  17.903  0.00  0.00    +0.000 C 
BRANCH  17  18
ATOM     18  C   UNL     1       6.095   5.552  16.583  0.00  0.00    +0.000 A 
ATOM     19  C   UNL     1       5.100   5.819  15.631  0.00  0.00    +0.000 A 
ATOM     20  C   UNL     1       5.076   5.135  14.413  0.00  0.00    +0.000 A 
ATOM     21  C   UNL     1       6.050   4.180  14.127  0.00  0.00    +0.000 A 
ATOM     22  C   UNL     1       7.045   3.907  15.063  0.00  0.00    +0.000 A 
ATOM     23  C   UNL     1       7.058   4.588  16.280  0.00  0.00    +0.000 A 
ATOM     24  F   UNL     1       8.029   4.312  17.163  0.00  0.00    +0.000 F 
ENDBRANCH  17  18
ENDBRANCH  13  17
ENDBRANCH  12  13
ENDBRANCH  10  12
ENDBRANCH   2   5
BRANCH   1  25
ATOM     25  C   UNL     1       2.687   7.706  18.680  0.00  0.00    +0.000 C 
BRANCH  25  29
ATOM     26  C   UNL     1      -0.340  10.539  19.977  0.00  0.00    +0.000 A 
ATOM     27  C   UNL     1       0.090  10.510  18.655  0.00  0.00    +0.000 A 
ATOM     28  C   UNL     1       1.042   9.573  18.236  0.00  0.00    +0.000 A 
ATOM     29  C   UNL     1       1.611   8.667  19.139  0.00  0.00    +0.000 A 
ATOM     30  C   UNL     1       1.135   8.660  20.458  0.00  0.00    +0.000 A 
ATOM     31  C   UNL     1       0.149   9.577  20.869  0.00  0.00    +0.000 A 
BRANCH  26  32
ATOM     32  O   UNL     1      -1.123  11.557  20.470  0.00  0.00    +0.000 OA
BRANCH  32  33
ATOM     33  C   UNL     1      -0.528  12.881  20.481  0.00  0.00    +0.000 C 
BRANCH  33  35
ATOM     34  C   UNL     1       1.038  14.477  21.843  0.00  0.00    +0.000 C 
ATOM     35  C   UNL     1       0.087  13.270  21.865  0.00  0.00    +0.000 C 
ATOM     36  C   UNL     1      -0.998  13.621  22.900  0.00  0.00    +0.000 C 
ENDBRANCH  33  35
BRANCH  33  37
ATOM     37  C   UNL     1      -1.698  13.820  20.130  0.00  0.00    +0.000 C 
ATOM     38  O   UNL     1      -1.598  15.026  19.996  0.00  0.00    +0.000 OA
BRANCH  37  39
ATOM     39  O   UNL     1      -2.890  13.191  19.974  0.00  0.00    +0.000 OA
ATOM     40  H   UNL     1      -3.336  13.114  20.841  0.00  0.00    +0.000 HD
ENDBRANCH  37  39
ENDBRANCH  33  37
ENDBRANCH  32  33
ENDBRANCH  26  32
ENDBRANCH  25  29
ENDBRANCH   1  25
TORSDOF 13
ENDMDL
MODEL 4
REMARK VINA RESULT:      -7.5      4.443     11.815
REMARK  Name = 
REMARK  15 active torsions:
REMARK  status: ('A' for Active; 'I' for Inactive)
REMARK    1  A    between atoms: C_1  and  C_2
REMARK    2  A    between atoms: C_2  and  C_3
REMARK    3  A    between atoms: C_2  and  C_4
REMARK    4  A    between atoms: C_4  and  O_5
REMARK    5  A    between atoms: C_4  and  C_34
REMARK    6  A    between atoms: O_5  and  C_6
REMARK    7  A    between atoms: C_9  and  C_10
REMARK    8  A    between atoms: C_10  and  N_11
REMARK    9  A    between atoms: C_12  and  C_14
REMARK   10  A    between atoms: C_19  and  C_21
REMARK   11  A    between atoms: C_21  and  C_22
REMARK   12  A    between atoms: C_22  and  N_23
REMARK   13  A    between atoms: C_22  and  C_24
REMARK   14  A    between atoms: C_24  and  C_25
REMARK   15  A    between atoms: C_34  and  O_36
REMARK                            x       y       z     vdW  Elec       q    Type
REMARK                         _______ _______ _______ _____ _____    ______ ____
ROOT
ATOM      1  N   UNL     1      -0.831  10.005  19.745  0.00  0.00    +0.000 N 
ATOM      2  C   UNL     1      -1.251  10.976  18.866  0.00  0.00    +0.000 C 
ATOM      3  O   UNL     1      -0.499  11.849  18.456  0.00  0.00    +0.000 OA
ATOM      4  H   UNL     1      -1.435   9.233  19.981  0.00  0.00    +0.000 HD
ENDROOT
BRANCH   2   5
ATOM      5  C   UNL     1      -2.712  10.884  18.350  0.00  0.00    +0.000 C 
ATOM      6  C   UNL     1      -2.758  10.857  16.817  0.00  0.00    +0.000 C 
ATOM      7  C   UNL     1      -4.230  11.029  16.485  0.00  0.00    +0.000 C 
ATOM      8  C   UNL     1      -4.772  11.865  17.637  0.00  0.00    +0.000 C 
ATOM      9  N   UNL     1      -3.710  11.926  18.637  0.00  0.00    +0.000 N 
ATOM     10  C   UNL     1      -4.010  12.551  19.830  0.00  0.00    +0.000 C 
ATOM     11  O   UNL     1      -5.086  13.137  19.990  0.00  0.00    +0.000 OA
BRANCH  10  12
ATOM     12  C   UNL     1      -2.946  12.544  20.918  0.00  0.00    +0.000 C 
BRANCH  12  13
ATOM     13  C   UNL     1      -2.257  13.906  21.145  0.00  0.00    +0.000 C 
BRANCH  13  14
ATOM     14  N   UNL     1      -2.776  14.911  20.202  0.00  0.00    +0.000 NA
ATOM     15  H   UNL     1      -2.131  15.695  20.139  0.00  0.00    +0.000 HD
ATOM     16  H   UNL     1      -3.642  15.290  20.603  0.00  0.00    +0.000 HD
ENDBRANCH  13  14
BRANCH  13  17
ATOM     17  C   UNL     1      -2.490  14.356  22.609  0.00  0.00    +0.000 C 
BRANCH  17  18
ATOM     18  C   UNL     1      -3.747  13.821  23.255  0.00  0.00    +0.000 A 
ATOM     19  C   UNL     1      -3.701  12.693  24.088  0.00  0.00    +0.000 A 
ATOM     20  C   UNL     1      -4.864  12.195  24.681  0.00  0.00    +0.000 A 
ATOM     21  C   UNL     1      -6.089  12.820  24.453  0.00  0.00    +0.000 A 
ATOM     22  C   UNL     1      -6.148  13.943  23.630  0.00  0.00    +0.000 A 
ATOM     23  C   UNL     1      -4.984  14.430  23.035  0.00  0.00    +0.000 A 
ATOM     24  F   UNL     1      -5.066  15.514  22.251  0.00  0.00    +0.000 F 
ENDBRANCH  17  18
ENDBRANCH  13  17
ENDBRANCH  12  13
ENDBRANCH  10  12
ENDBRANCH   2   5
BRANCH   1  25
ATOM     25  C   UNL     1       0.506   9.975  20.299  0.00  0.00    +0.000 C 
BRANCH  25  29
ATOM     26  C   UNL     1       2.900   6.923  18.343  0.00  0.00    +0.000 A 
ATOM     27  C   UNL     1       2.612   8.123  17.703  0.00  0.00    +0.000 A 
ATOM     28  C   UNL     1       1.868   9.116  18.351  0.00  0.00    +0.000 A 
ATOM     29  C   UNL     1       1.364   8.915  19.642  0.00  0.00    +0.000 A 
ATOM     30  C   UNL     1       1.703   7.729  20.307  0.00  0.00    +0.000 A 
ATOM     31  C   UNL     1       2.484   6.746  19.669  0.00  0.00    +0.000 A 
BRANCH  26  32
ATOM     32  O   UNL     1       3.458   5.855  17.680  0.00  0.00    +0.000 OA
BRANCH  32  33
ATOM     33  C   UNL     1       4.814   5.499  18.056  0.00  0.00    +0.000 C 
BRANCH  33  35
ATOM     34  C   UNL     1       5.282   6.344  15.623  0.00  0.00    +0.000 C 
ATOM     35  C   UNL     1       5.850   5.713  16.903  0.00  0.00    +0.000 C 
ATOM     36  C   UNL     1       7.010   6.629  17.335  0.00  0.00    +0.000 C 
ENDBRANCH  33  35
BRANCH  33  37
ATOM     37  C   UNL     1       4.722   4.006  18.425  0.00  0.00    +0.000 C 
ATOM     38  O   UNL     1       3.746   3.306  18.226  0.00  0.00    +0.000 OA
BRANCH  37  39
ATOM     39  O   UNL     1       5.841   3.506  19.007  0.00  0.00    +0.000 OA
ATOM     40  H   UNL     1       5.688   2.575  19.265  0.00  0.00    +0.000 HD
ENDBRANCH  37  39
ENDBRANCH  33  37
ENDBRANCH  32  33
ENDBRANCH  26  32
ENDBRANCH  25  29
ENDBRANCH   1  25
TORSDOF 13
ENDMDL
MODEL 5
REMARK VINA RESULT:      -7.5      2.204      3.210
REMARK  Name = 
REMARK  15 active torsions:
REMARK  status: ('A' for Active; 'I' for Inactive)
REMARK    1  A    between atoms: C_1  and  C_2
REMARK    2  A    between atoms: C_2  and  C_3
REMARK    3  A    between atoms: C_2  and  C_4
REMARK    4  A    between atoms: C_4  and  O_5
REMARK    5  A    between atoms: C_4  and  C_34
REMARK    6  A    between atoms: O_5  and  C_6
REMARK    7  A    between atoms: C_9  and  C_10
REMARK    8  A    between atoms: C_10  and  N_11
REMARK    9  A    between atoms: C_12  and  C_14
REMARK   10  A    between atoms: C_19  and  C_21
REMARK   11  A    between atoms: C_21  and  C_22
REMARK   12  A    between atoms: C_22  and  N_23
REMARK   13  A    between atoms: C_22  and  C_24
REMARK   14  A    between atoms: C_24  and  C_25
REMARK   15  A    between atoms: C_34  and  O_36
REMARK                            x       y       z     vdW  Elec       q    Type
REMARK                         _______ _______ _______ _____ _____    ______ ____
ROOT
ATOM      1  N   UNL     1       1.985   6.931  18.091  0.00  0.00    +0.000 N 
ATOM      2  C   UNL     1       2.701   6.040  18.855  0.00  0.00    +0.000 C 
ATOM      3  O   UNL     1       3.838   6.281  19.237  0.00  0.00    +0.000 OA
ATOM      4  H   UNL     1       1.013   6.761  17.883  0.00  0.00    +0.000 HD
ENDROOT
BRANCH   2   5
ATOM      5  C   UNL     1       1.983   4.732  19.282  0.00  0.00    +0.000 C 
ATOM      6  C   UNL     1       1.814   4.663  20.806  0.00  0.00    +0.000 C 
ATOM      7  C   UNL     1       1.347   3.242  21.065  0.00  0.00    +0.000 C 
ATOM      8  C   UNL     1       1.984   2.434  19.941  0.00  0.00    +0.000 C 
ATOM      9  N   UNL     1       2.551   3.403  19.008  0.00  0.00    +0.000 N 
ATOM     10  C   UNL     1       3.097   2.903  17.843  0.00  0.00    +0.000 C 
ATOM     11  O   UNL     1       3.207   1.686  17.663  0.00  0.00    +0.000 OA
BRANCH  10  12
ATOM     12  C   UNL     1       3.610   3.903  16.818  0.00  0.00    +0.000 C 
BRANCH  12  13
ATOM     13  C   UNL     1       5.149   3.989  16.725  0.00  0.00    +0.000 C 
BRANCH  13  14
ATOM     14  N   UNL     1       5.669   2.957  15.812  0.00  0.00    +0.000 NA
ATOM     15  H   UNL     1       4.952   2.260  15.628  0.00  0.00    +0.000 HD
ATOM     16  H   UNL     1       6.423   2.464  16.305  0.00  0.00    +0.000 HD
ENDBRANCH  13  14
BRANCH  13  17
ATOM     17  C   UNL     1       5.552   5.404  16.242  0.00  0.00    +0.000 C 
BRANCH  17  18
ATOM     18  C   UNL     1       6.539   6.129  17.127  0.00  0.00    +0.000 A 
ATOM     19  C   UNL     1       6.894   7.461  16.864  0.00  0.00    +0.000 A 
ATOM     20  C   UNL     1       7.811   8.129  17.679  0.00  0.00    +0.000 A 
ATOM     21  C   UNL     1       8.381   7.478  18.772  0.00  0.00    +0.000 A 
ATOM     22  C   UNL     1       8.034   6.156  19.046  0.00  0.00    +0.000 A 
ATOM     23  C   UNL     1       7.125   5.492  18.223  0.00  0.00    +0.000 A 
ATOM     24  F   UNL     1       6.803   4.223  18.510  0.00  0.00    +0.000 F 
ENDBRANCH  17  18
ENDBRANCH  13  17
ENDBRANCH  12  13
ENDBRANCH  10  12
ENDBRANCH   2   5
BRANCH   1  25
ATOM     25  C   UNL     1       2.536   8.188  17.629  0.00  0.00    +0.000 C 
BRANCH  25  29
ATOM     26  C   UNL     1       0.118  11.569  18.890  0.00  0.00    +0.000 A 
ATOM     27  C   UNL     1       1.491  11.699  18.716  0.00  0.00    +0.000 A 
ATOM     28  C   UNL     1       2.260  10.615  18.278  0.00  0.00    +0.000 A 
ATOM     29  C   UNL     1       1.677   9.364  18.038  0.00  0.00    +0.000 A 
ATOM     30  C   UNL     1       0.285   9.250  18.159  0.00  0.00    +0.000 A 
ATOM     31  C   UNL     1      -0.493  10.352  18.563  0.00  0.00    +0.000 A 
BRANCH  26  32
ATOM     32  O   UNL     1      -0.639  12.544  19.497  0.00  0.00    +0.000 OA
BRANCH  32  33
ATOM     33  C   UNL     1      -1.327  12.161  20.717  0.00  0.00    +0.000 C 
BRANCH  33  35
ATOM     34  C   UNL     1      -2.390  14.552  20.802  0.00  0.00    +0.000 C 
ATOM     35  C   UNL     1      -2.582  13.043  21.021  0.00  0.00    +0.000 C 
ATOM     36  C   UNL     1      -3.787  12.650  20.145  0.00  0.00    +0.000 C 
ENDBRANCH  33  35
BRANCH  33  37
ATOM     37  C   UNL     1      -0.264  12.342  21.818  0.00  0.00    +0.000 C 
ATOM     38  O   UNL     1       0.475  13.305  21.912  0.00  0.00    +0.000 OA
BRANCH  37  39
ATOM     39  O   UNL     1      -0.205  11.319  22.709  0.00  0.00    +0.000 OA
ATOM     40  H   UNL     1       0.705  11.241  23.057  0.00  0.00    +0.000 HD
ENDBRANCH  37  39
ENDBRANCH  33  37
ENDBRANCH  32  33
ENDBRANCH  26  32
ENDBRANCH  25  29
ENDBRANCH   1  25
TORSDOF 13
ENDMDL
MODEL 6
REMARK VINA RESULT:      -7.4      3.952     11.325
REMARK  Name = 
REMARK  15 active torsions:
REMARK  status: ('A' for Active; 'I' for Inactive)
REMARK    1  A    between atoms: C_1  and  C_2
REMARK    2  A    between atoms: C_2  and  C_3
REMARK    3  A    between atoms: C_2  and  C_4
REMARK    4  A    between atoms: C_4  and  O_5
REMARK    5  A    between atoms: C_4  and  C_34
REMARK    6  A    between atoms: O_5  and  C_6
REMARK    7  A    between atoms: C_9  and  C_10
REMARK    8  A    between atoms: C_10  and  N_11
REMARK    9  A    between atoms: C_12  and  C_14
REMARK   10  A    between atoms: C_19  and  C_21
REMARK   11  A    between atoms: C_21  and  C_22
REMARK   12  A    between atoms: C_22  and  N_23
REMARK   13  A    between atoms: C_22  and  C_24
REMARK   14  A    between atoms: C_24  and  C_25
REMARK   15  A    between atoms: C_34  and  O_36
REMARK                            x       y       z     vdW  Elec       q    Type
REMARK                         _______ _______ _______ _____ _____    ______ ____
ROOT
ATOM      1  N   UNL     1       1.106  10.794  20.003  0.00  0.00    +0.000 N 
ATOM      2  C   UNL     1       0.333  11.609  19.209  0.00  0.00    +0.000 C 
ATOM      3  O   UNL     1      -0.829  11.338  18.938  0.00  0.00    +0.000 OA
ATOM      4  H   UNL     1       2.021  11.092  20.304  0.00  0.00    +0.000 HD
ENDROOT
BRANCH   2   5
ATOM      5  C   UNL     1       0.970  12.937  18.720  0.00  0.00    +0.000 C 
ATOM      6  C   UNL     1       2.404  12.715  18.223  0.00  0.00    +0.000 C 
ATOM      7  C   UNL     1       2.955  14.118  18.036  0.00  0.00    +0.000 C 
ATOM      8  C   UNL     1       2.214  14.947  19.078  0.00  0.00    +0.000 C 
ATOM      9  N   UNL     1       1.163  14.088  19.616  0.00  0.00    +0.000 N 
ATOM     10  C   UNL     1       0.285  14.662  20.512  0.00  0.00    +0.000 C 
ATOM     11  O   UNL     1       0.461  15.811  20.929  0.00  0.00    +0.000 OA
BRANCH  10  12
ATOM     12  C   UNL     1      -0.870  13.808  21.014  0.00  0.00    +0.000 C 
BRANCH  12  13
ATOM     13  C   UNL     1      -0.613  13.122  22.372  0.00  0.00    +0.000 C 
BRANCH  13  14
ATOM     14  N   UNL     1      -0.774  14.084  23.476  0.00  0.00    +0.000 NA
ATOM     15  H   UNL     1      -0.974  13.590  24.342  0.00  0.00    +0.000 HD
ATOM     16  H   UNL     1      -1.608  14.648  23.272  0.00  0.00    +0.000 HD
ENDBRANCH  13  14
BRANCH  13  17
ATOM     17  C   UNL     1      -1.592  11.932  22.535  0.00  0.00    +0.000 C 
BRANCH  17  18
ATOM     18  C   UNL     1      -3.038  12.315  22.754  0.00  0.00    +0.000 A 
ATOM     19  C   UNL     1      -3.541  12.504  24.050  0.00  0.00    +0.000 A 
ATOM     20  C   UNL     1      -4.879  12.852  24.252  0.00  0.00    +0.000 A 
ATOM     21  C   UNL     1      -5.731  13.023  23.162  0.00  0.00    +0.000 A 
ATOM     22  C   UNL     1      -5.243  12.842  21.869  0.00  0.00    +0.000 A 
ATOM     23  C   UNL     1      -3.908  12.486  21.675  0.00  0.00    +0.000 A 
ATOM     24  F   UNL     1      -3.460  12.322  20.422  0.00  0.00    +0.000 F 
ENDBRANCH  17  18
ENDBRANCH  13  17
ENDBRANCH  12  13
ENDBRANCH  10  12
ENDBRANCH   2   5
BRANCH   1  25
ATOM     25  C   UNL     1       0.631   9.531  20.526  0.00  0.00    +0.000 C 
BRANCH  25  29
ATOM     26  C   UNL     1       2.841   6.165  18.897  0.00  0.00    +0.000 A 
ATOM     27  C   UNL     1       2.173   6.059  20.111  0.00  0.00    +0.000 A 
ATOM     28  C   UNL     1       1.435   7.137  20.615  0.00  0.00    +0.000 A 
ATOM     29  C   UNL     1       1.379   8.358  19.932  0.00  0.00    +0.000 A 
ATOM     30  C   UNL     1       2.006   8.444  18.680  0.00  0.00    +0.000 A 
ATOM     31  C   UNL     1       2.716   7.347  18.156  0.00  0.00    +0.000 A 
BRANCH  26  32
ATOM     32  O   UNL     1       3.726   5.207  18.461  0.00  0.00    +0.000 OA
BRANCH  32  33
ATOM     33  C   UNL     1       5.070   5.662  18.154  0.00  0.00    +0.000 C 
BRANCH  33  35
ATOM     34  C   UNL     1       4.817   4.136  16.041  0.00  0.00    +0.000 C 
ATOM     35  C   UNL     1       5.506   5.350  16.684  0.00  0.00    +0.000 C 
ATOM     36  C   UNL     1       5.227   6.532  15.738  0.00  0.00    +0.000 C 
ENDBRANCH  33  35
BRANCH  33  37
ATOM     37  C   UNL     1       5.962   4.898  19.152  0.00  0.00    +0.000 C 
ATOM     38  O   UNL     1       6.823   5.414  19.842  0.00  0.00    +0.000 OA
BRANCH  37  39
ATOM     39  O   UNL     1       5.713   3.566  19.215  0.00  0.00    +0.000 OA
ATOM     40  H   UNL     1       6.445   3.075  18.793  0.00  0.00    +0.000 HD
ENDBRANCH  37  39
ENDBRANCH  33  37
ENDBRANCH  32  33
ENDBRANCH  26  32
ENDBRANCH  25  29
ENDBRANCH   1  25
TORSDOF 13
ENDMDL
MODEL 7
REMARK VINA RESULT:      -7.4      1.632      2.461
REMARK  Name = 
REMARK  15 active torsions:
REMARK  status: ('A' for Active; 'I' for Inactive)
REMARK    1  A    between atoms: C_1  and  C_2
REMARK    2  A    between atoms: C_2  and  C_3
REMARK    3  A    between atoms: C_2  and  C_4
REMARK    4  A    between atoms: C_4  and  O_5
REMARK    5  A    between atoms: C_4  and  C_34
REMARK    6  A    between atoms: O_5  and  C_6
REMARK    7  A    between atoms: C_9  and  C_10
REMARK    8  A    between atoms: C_10  and  N_11
REMARK    9  A    between atoms: C_12  and  C_14
REMARK   10  A    between atoms: C_19  and  C_21
REMARK   11  A    between atoms: C_21  and  C_22
REMARK   12  A    between atoms: C_22  and  N_23
REMARK   13  A    between atoms: C_22  and  C_24
REMARK   14  A    between atoms: C_24  and  C_25
REMARK   15  A    between atoms: C_34  and  O_36
REMARK                            x       y       z     vdW  Elec       q    Type
REMARK                         _______ _______ _______ _____ _____    ______ ____
ROOT
ATOM      1  N   UNL     1       2.470   6.247  19.575  0.00  0.00    +0.000 N 
ATOM      2  C   UNL     1       2.119   5.114  18.877  0.00  0.00    +0.000 C 
ATOM      3  O   UNL     1       1.982   5.117  17.662  0.00  0.00    +0.000 OA
ATOM      4  H   UNL     1       2.687   6.195  20.558  0.00  0.00    +0.000 HD
ENDROOT
BRANCH   2   5
ATOM      5  C   UNL     1       1.971   3.798  19.687  0.00  0.00    +0.000 C 
ATOM      6  C   UNL     1       1.059   3.995  20.905  0.00  0.00    +0.000 C 
ATOM      7  C   UNL     1       1.231   2.719  21.709  0.00  0.00    +0.000 C 
ATOM      8  C   UNL     1       2.656   2.277  21.398  0.00  0.00    +0.000 C 
ATOM      9  N   UNL     1       3.123   3.130  20.310  0.00  0.00    +0.000 N 
ATOM     10  C   UNL     1       4.366   2.844  19.782  0.00  0.00    +0.000 C 
ATOM     11  O   UNL     1       5.093   1.986  20.292  0.00  0.00    +0.000 OA
BRANCH  10  12
ATOM     12  C   UNL     1       4.832   3.665  18.588  0.00  0.00    +0.000 C 
BRANCH  12  13
ATOM     13  C   UNL     1       4.741   2.929  17.235  0.00  0.00    +0.000 C 
BRANCH  13  14
ATOM     14  N   UNL     1       3.335   2.678  16.876  0.00  0.00    +0.000 NA
ATOM     15  H   UNL     1       3.064   3.269  16.093  0.00  0.00    +0.000 HD
ATOM     16  H   UNL     1       2.758   2.980  17.670  0.00  0.00    +0.000 HD
ENDBRANCH  13  14
BRANCH  13  17
ATOM     17  C   UNL     1       5.442   3.779  16.146  0.00  0.00    +0.000 C 
BRANCH  17  18
ATOM     18  C   UNL     1       5.946   5.127  16.608  0.00  0.00    +0.000 A 
ATOM     19  C   UNL     1       5.160   6.278  16.450  0.00  0.00    +0.000 A 
ATOM     20  C   UNL     1       5.629   7.525  16.873  0.00  0.00    +0.000 A 
ATOM     21  C   UNL     1       6.886   7.637  17.464  0.00  0.00    +0.000 A 
ATOM     22  C   UNL     1       7.675   6.500  17.630  0.00  0.00    +0.000 A 
ATOM     23  C   UNL     1       7.205   5.260  17.198  0.00  0.00    +0.000 A 
ATOM     24  F   UNL     1       7.980   4.180  17.372  0.00  0.00    +0.000 F 
ENDBRANCH  17  18
ENDBRANCH  13  17
ENDBRANCH  12  13
ENDBRANCH  10  12
ENDBRANCH   2   5
BRANCH   1  25
ATOM     25  C   UNL     1       2.642   7.536  18.939  0.00  0.00    +0.000 C 
BRANCH  25  29
ATOM     26  C   UNL     1      -0.387  10.422  20.106  0.00  0.00    +0.000 A 
ATOM     27  C   UNL     1       0.137  10.418  18.818  0.00  0.00    +0.000 A 
ATOM     28  C   UNL     1       1.089   9.465  18.438  0.00  0.00    +0.000 A 
ATOM     29  C   UNL     1       1.565   8.515  19.351  0.00  0.00    +0.000 A 
ATOM     30  C   UNL     1       0.995   8.484  20.631  0.00  0.00    +0.000 A 
ATOM     31  C   UNL     1       0.009   9.420  21.000  0.00  0.00    +0.000 A 
BRANCH  26  32
ATOM     32  O   UNL     1      -1.173  11.449  20.574  0.00  0.00    +0.000 OA
BRANCH  32  33
ATOM     33  C   UNL     1      -0.493  12.694  20.882  0.00  0.00    +0.000 C 
BRANCH  33  35
ATOM     34  C   UNL     1      -0.519  14.607  22.669  0.00  0.00    +0.000 C 
ATOM     35  C   UNL     1      -0.600  13.098  22.389  0.00  0.00    +0.000 C 
ATOM     36  C   UNL     1      -1.927  12.634  23.018  0.00  0.00    +0.000 C 
ENDBRANCH  33  35
BRANCH  33  37
ATOM     37  C   UNL     1      -1.200  13.737  19.995  0.00  0.00    +0.000 C 
ATOM     38  O   UNL     1      -0.651  14.701  19.493  0.00  0.00    +0.000 OA
BRANCH  37  39
ATOM     39  O   UNL     1      -2.522  13.499  19.802  0.00  0.00    +0.000 OA
ATOM     40  H   UNL     1      -2.865  14.100  19.111  0.00  0.00    +0.000 HD
ENDBRANCH  37  39
ENDBRANCH  33  37
ENDBRANCH  32  33
ENDBRANCH  26  32
ENDBRANCH  25  29
ENDBRANCH   1  25
TORSDOF 13
ENDMDL
MODEL 8
REMARK VINA RESULT:      -7.4      1.222      1.797
REMARK  Name = 
REMARK  15 active torsions:
REMARK  status: ('A' for Active; 'I' for Inactive)
REMARK    1  A    between atoms: C_1  and  C_2
REMARK    2  A    between atoms: C_2  and  C_3
REMARK    3  A    between atoms: C_2  and  C_4
REMARK    4  A    between atoms: C_4  and  O_5
REMARK    5  A    between atoms: C_4  and  C_34
REMARK    6  A    between atoms: O_5  and  C_6
REMARK    7  A    between atoms: C_9  and  C_10
REMARK    8  A    between atoms: C_10  and  N_11
REMARK    9  A    between atoms: C_12  and  C_14
REMARK   10  A    between atoms: C_19  and  C_21
REMARK   11  A    between atoms: C_21  and  C_22
REMARK   12  A    between atoms: C_22  and  N_23
REMARK   13  A    between atoms: C_22  and  C_24
REMARK   14  A    between atoms: C_24  and  C_25
REMARK   15  A    between atoms: C_34  and  O_36
REMARK                            x       y       z     vdW  Elec       q    Type
REMARK                         _______ _______ _______ _____ _____    ______ ____
ROOT
ATOM      1  N   UNL     1       2.432   5.813  18.912  0.00  0.00    +0.000 N 
ATOM      2  C   UNL     1       1.889   4.611  18.522  0.00  0.00    +0.000 C 
ATOM      3  O   UNL     1       1.497   4.417  17.380  0.00  0.00    +0.000 OA
ATOM      4  H   UNL     1       2.850   5.913  19.824  0.00  0.00    +0.000 HD
ENDROOT
BRANCH   2   5
ATOM      5  C   UNL     1       1.858   3.470  19.574  0.00  0.00    +0.000 C 
ATOM      6  C   UNL     1       1.003   3.857  20.788  0.00  0.00    +0.000 C 
ATOM      7  C   UNL     1       1.289   2.768  21.807  0.00  0.00    +0.000 C 
ATOM      8  C   UNL     1       2.717   2.338  21.496  0.00  0.00    +0.000 C 
ATOM      9  N   UNL     1       3.078   2.986  20.239  0.00  0.00    +0.000 N 
ATOM     10  C   UNL     1       4.304   2.659  19.697  0.00  0.00    +0.000 C 
ATOM     11  O   UNL     1       5.104   1.948  20.313  0.00  0.00    +0.000 OA
BRANCH  10  12
ATOM     12  C   UNL     1       4.659   3.254  18.342  0.00  0.00    +0.000 C 
BRANCH  12  13
ATOM     13  C   UNL     1       5.459   4.572  18.414  0.00  0.00    +0.000 C 
BRANCH  13  14
ATOM     14  N   UNL     1       5.671   4.971  19.815  0.00  0.00    +0.000 NA
ATOM     15  H   UNL     1       6.281   5.784  19.857  0.00  0.00    +0.000 HD
ATOM     16  H   UNL     1       6.183   4.210  20.277  0.00  0.00    +0.000 HD
ENDBRANCH  13  14
BRANCH  13  17
ATOM     17  C   UNL     1       6.813   4.385  17.685  0.00  0.00    +0.000 C 
BRANCH  17  18
ATOM     18  C   UNL     1       6.749   4.469  16.178  0.00  0.00    +0.000 A 
ATOM     19  C   UNL     1       6.132   3.454  15.430  0.00  0.00    +0.000 A 
ATOM     20  C   UNL     1       6.077   3.528  14.036  0.00  0.00    +0.000 A 
ATOM     21  C   UNL     1       6.632   4.621  13.370  0.00  0.00    +0.000 A 
ATOM     22  C   UNL     1       7.244   5.637  14.102  0.00  0.00    +0.000 A 
ATOM     23  C   UNL     1       7.303   5.552  15.493  0.00  0.00    +0.000 A 
ATOM     24  F   UNL     1       7.893   6.543  16.175  0.00  0.00    +0.000 F 
ENDBRANCH  17  18
ENDBRANCH  13  17
ENDBRANCH  12  13
ENDBRANCH  10  12
ENDBRANCH   2   5
BRANCH   1  25
ATOM     25  C   UNL     1       2.523   6.956  18.028  0.00  0.00    +0.000 C 
BRANCH  25  29
ATOM     26  C   UNL     1       0.834  10.560  19.767  0.00  0.00    +0.000 A 
ATOM     27  C   UNL     1       1.131  10.494  18.410  0.00  0.00    +0.000 A 
ATOM     28  C   UNL     1       1.644   9.319  17.850  0.00  0.00    +0.000 A 
ATOM     29  C   UNL     1       1.906   8.194  18.642  0.00  0.00    +0.000 A 
ATOM     30  C   UNL     1       1.553   8.243  19.998  0.00  0.00    +0.000 A 
ATOM     31  C   UNL     1       1.001   9.413  20.553  0.00  0.00    +0.000 A 
BRANCH  26  32
ATOM     32  O   UNL     1       0.512  11.744  20.389  0.00  0.00    +0.000 OA
BRANCH  32  33
ATOM     33  C   UNL     1      -0.116  12.758  19.562  0.00  0.00    +0.000 C 
BRANCH  33  35
ATOM     34  C   UNL     1       1.946  14.354  19.800  0.00  0.00    +0.000 C 
ATOM     35  C   UNL     1       0.418  14.202  19.844  0.00  0.00    +0.000 C 
ATOM     36  C   UNL     1      -0.127  15.225  18.830  0.00  0.00    +0.000 C 
ENDBRANCH  33  35
BRANCH  33  37
ATOM     37  C   UNL     1      -1.611  12.659  19.918  0.00  0.00    +0.000 C 
ATOM     38  O   UNL     1      -2.053  12.679  21.052  0.00  0.00    +0.000 OA
BRANCH  37  39
ATOM     39  O   UNL     1      -2.433  12.546  18.844  0.00  0.00    +0.000 OA
ATOM     40  H   UNL     1      -1.938  12.761  18.029  0.00  0.00    +0.000 HD
ENDBRANCH  37  39
ENDBRANCH  33  37
ENDBRANCH  32  33
ENDBRANCH  26  32
ENDBRANCH  25  29
ENDBRANCH   1  25
TORSDOF 13
ENDMDL
MODEL 9
REMARK VINA RESULT:      -7.3      4.387     11.490
REMARK  Name = 
REMARK  15 active torsions:
REMARK  status: ('A' for Active; 'I' for Inactive)
REMARK    1  A    between atoms: C_1  and  C_2
REMARK    2  A    between atoms: C_2  and  C_3
REMARK    3  A    between atoms: C_2  and  C_4
REMARK    4  A    between atoms: C_4  and  O_5
REMARK    5  A    between atoms: C_4  and  C_34
REMARK    6  A    between atoms: O_5  and  C_6
REMARK    7  A    between atoms: C_9  and  C_10
REMARK    8  A    between atoms: C_10  and  N_11
REMARK    9  A    between atoms: C_12  and  C_14
REMARK   10  A    between atoms: C_19  and  C_21
REMARK   11  A    between atoms: C_21  and  C_22
REMARK   12  A    between atoms: C_22  and  N_23
REMARK   13  A    between atoms: C_22  and  C_24
REMARK   14  A    between atoms: C_24  and  C_25
REMARK   15  A    between atoms: C_34  and  O_36
REMARK                            x       y       z     vdW  Elec       q    Type
REMARK                         _______ _______ _______ _____ _____    ______ ____
ROOT
ATOM      1  N   UNL     1       0.295   9.786  17.940  0.00  0.00    +0.000 N 
ATOM      2  C   UNL     1      -0.428  10.889  18.329  0.00  0.00    +0.000 C 
ATOM      3  O   UNL     1       0.112  11.943  18.636  0.00  0.00    +0.000 OA
ATOM      4  H   UNL     1      -0.174   8.967  17.584  0.00  0.00    +0.000 HD
ENDROOT
BRANCH   2   5
ATOM      5  C   UNL     1      -1.975  10.774  18.296  0.00  0.00    +0.000 C 
ATOM      6  C   UNL     1      -2.509  10.870  16.860  0.00  0.00    +0.000 C 
ATOM      7  C   UNL     1      -4.012  11.002  17.030  0.00  0.00    +0.000 C 
ATOM      8  C   UNL     1      -4.171  11.716  18.366  0.00  0.00    +0.000 C 
ATOM      9  N   UNL     1      -2.846  11.742  18.979  0.00  0.00    +0.000 N 
ATOM     10  C   UNL     1      -2.760  12.253  20.258  0.00  0.00    +0.000 C 
ATOM     11  O   UNL     1      -3.738  12.775  20.803  0.00  0.00    +0.000 OA
BRANCH  10  12
ATOM     12  C   UNL     1      -1.404  12.206  20.947  0.00  0.00    +0.000 C 
BRANCH  12  13
ATOM     13  C   UNL     1      -1.474  12.053  22.482  0.00  0.00    +0.000 C 
BRANCH  13  14
ATOM     14  N   UNL     1      -0.565  10.988  22.936  0.00  0.00    +0.000 NA
ATOM     15  H   UNL     1      -0.573  10.932  23.952  0.00  0.00    +0.000 HD
ATOM     16  H   UNL     1       0.389  11.267  22.677  0.00  0.00    +0.000 HD
ENDBRANCH  13  14
BRANCH  13  17
ATOM     17  C   UNL     1      -1.109  13.405  23.144  0.00  0.00    +0.000 C 
BRANCH  17  18
ATOM     18  C   UNL     1      -2.224  14.426  23.177  0.00  0.00    +0.000 A 
ATOM     19  C   UNL     1      -2.146  15.596  22.408  0.00  0.00    +0.000 A 
ATOM     20  C   UNL     1      -3.173  16.543  22.442  0.00  0.00    +0.000 A 
ATOM     21  C   UNL     1      -4.296  16.329  23.241  0.00  0.00    +0.000 A 
ATOM     22  C   UNL     1      -4.387  15.168  24.007  0.00  0.00    +0.000 A 
ATOM     23  C   UNL     1      -3.353  14.232  23.975  0.00  0.00    +0.000 A 
ATOM     24  F   UNL     1      -3.466  13.121  24.717  0.00  0.00    +0.000 F 
ENDBRANCH  17  18
ENDBRANCH  13  17
ENDBRANCH  12  13
ENDBRANCH  10  12
ENDBRANCH   2   5
BRANCH   1  25
ATOM     25  C   UNL     1       1.742   9.763  17.923  0.00  0.00    +0.000 C 
BRANCH  25  29
ATOM     26  C   UNL     1       3.277   5.932  19.278  0.00  0.00    +0.000 A 
ATOM     27  C   UNL     1       3.702   6.486  18.076  0.00  0.00    +0.000 A 
ATOM     28  C   UNL     1       3.229   7.736  17.661  0.00  0.00    +0.000 A 
ATOM     29  C   UNL     1       2.291   8.444  18.422  0.00  0.00    +0.000 A 
ATOM     30  C   UNL     1       1.907   7.911  19.661  0.00  0.00    +0.000 A 
ATOM     31  C   UNL     1       2.413   6.672  20.096  0.00  0.00    +0.000 A 
BRANCH  26  32
ATOM     32  O   UNL     1       3.566   4.634  19.629  0.00  0.00    +0.000 OA
BRANCH  32  33
ATOM     33  C   UNL     1       2.826   3.597  18.932  0.00  0.00    +0.000 C 
BRANCH  33  35
ATOM     34  C   UNL     1       0.582   2.253  18.842  0.00  0.00    +0.000 C 
ATOM     35  C   UNL     1       1.463   3.247  19.615  0.00  0.00    +0.000 C 
ATOM     36  C   UNL     1       1.661   2.624  21.009  0.00  0.00    +0.000 C 
ENDBRANCH  33  35
BRANCH  33  37
ATOM     37  C   UNL     1       3.770   2.380  18.961  0.00  0.00    +0.000 C 
ATOM     38  O   UNL     1       3.566   1.335  18.369  0.00  0.00    +0.000 OA
BRANCH  37  39
ATOM     39  O   UNL     1       4.884   2.557  19.715  0.00  0.00    +0.000 OA
ATOM     40  H   UNL     1       5.131   3.503  19.717  0.00  0.00    +0.000 HD
ENDBRANCH  37  39
ENDBRANCH  33  37
ENDBRANCH  32  33
ENDBRANCH  26  32
ENDBRANCH  25  29
ENDBRANCH   1  25
TORSDOF 13
ENDMDL
