MODEL 1
REMARK VINA RESULT:      -8.0      0.000      0.000
REMARK  Name = 
REMARK  4 active torsions:
REMARK  status: ('A' for Active; 'I' for Inactive)
REMARK    1  A    between atoms: C_1  and  O_2
REMARK    2  A    between atoms: O_2  and  C_3
REMARK    3  A    between atoms: C_13  and  N_14
REMARK    4  A    between atoms: C_15  and  C_16
REMARK                            x       y       z     vdW  Elec       q    Type
REMARK                         _______ _______ _______ _____ _____    ______ ____
ROOT
ATOM      1  C   UNL     1       5.741   3.467  12.447  0.00  0.00    +0.000 A 
ATOM      2  C   UNL     1       6.944   4.104  12.137  0.00  0.00    +0.000 A 
ATOM      3  C   UNL     1       7.649   4.850  13.090  0.00  0.00    +0.000 A 
ATOM      4  C   UNL     1       7.105   4.930  14.376  0.00  0.00    +0.000 A 
ATOM      5  N   UNL     1       7.576   5.572  15.502  0.00  0.00    +0.000 N 
ATOM      6  C   UNL     1       6.725   5.350  16.550  0.00  0.00    +0.000 A 
ATOM      7  C   UNL     1       5.683   4.565  16.100  0.00  0.00    +0.000 A 
ATOM      8  C   UNL     1       5.909   4.299  14.723  0.00  0.00    +0.000 A 
ATOM      9  C   UNL     1       5.214   3.563  13.740  0.00  0.00    +0.000 A 
ATOM     10  C   UNL     1       4.588   4.110  17.001  0.00  0.00    +0.000 C 
ATOM     11  C   UNL     1       5.050   4.166  18.479  0.00  0.00    +0.000 C 
ATOM     12  C   UNL     1       5.686   5.542  18.802  0.00  0.00    +0.000 C 
ATOM     13  C   UNL     1       6.942   5.814  17.948  0.00  0.00    +0.000 C 
ATOM     14  H   UNL     1       8.438   6.098  15.544  0.00  0.00    +0.000 HD
ENDROOT
BRANCH  11  15
ATOM     15  N   UNL     1       3.944   3.861  19.382  0.00  0.00    +0.000 N 
ATOM     16  C   UNL     1       3.991   2.785  20.240  0.00  0.00    +0.000 C 
ATOM     17  C   UNL     1       2.758   2.614  21.087  0.00  0.00    +0.000 C 
ATOM     18  O   UNL     1       4.929   1.997  20.297  0.00  0.00    +0.000 OA
ATOM     19  H   UNL     1       3.206   4.544  19.492  0.00  0.00    +0.000 HD
ENDBRANCH  11  15
BRANCH   1  21
ATOM     20  C   UNL     1       3.858   3.147  11.033  0.00  0.00    +0.000 C 
ATOM     21  O   UNL     1       5.178   2.773  11.408  0.00  0.00    +0.000 OA
ENDBRANCH   1  21
TORSDOF 2
ENDMDL
MODEL 2
REMARK VINA RESULT:      -7.4      3.315      6.377
REMARK  Name = 
REMARK  4 active torsions:
REMARK  status: ('A' for Active; 'I' for Inactive)
REMARK    1  A    between atoms: C_1  and  O_2
REMARK    2  A    between atoms: O_2  and  C_3
REMARK    3  A    between atoms: C_13  and  N_14
REMARK    4  A    between atoms: C_15  and  C_16
REMARK                            x       y       z     vdW  Elec       q    Type
REMARK                         _______ _______ _______ _____ _____    ______ ____
ROOT
ATOM      1  C   UNL     1       2.027   3.464  19.584  0.00  0.00    +0.000 A 
ATOM      2  C   UNL     1       2.047   2.181  19.033  0.00  0.00    +0.000 A 
ATOM      3  C   UNL     1       2.926   1.837  17.998  0.00  0.00    +0.000 A 
ATOM      4  C   UNL     1       3.797   2.830  17.537  0.00  0.00    +0.000 A 
ATOM      5  N   UNL     1       4.764   2.778  16.555  0.00  0.00    +0.000 N 
ATOM      6  C   UNL     1       5.398   3.988  16.467  0.00  0.00    +0.000 A 
ATOM      7  C   UNL     1       4.830   4.840  17.392  0.00  0.00    +0.000 A 
ATOM      8  C   UNL     1       3.810   4.121  18.070  0.00  0.00    +0.000 A 
ATOM      9  C   UNL     1       2.906   4.442  19.104  0.00  0.00    +0.000 A 
ATOM     10  C   UNL     1       5.309   6.237  17.579  0.00  0.00    +0.000 C 
ATOM     11  C   UNL     1       6.755   6.386  17.042  0.00  0.00    +0.000 C 
ATOM     12  C   UNL     1       6.871   5.800  15.613  0.00  0.00    +0.000 C 
ATOM     13  C   UNL     1       6.553   4.291  15.578  0.00  0.00    +0.000 C 
ATOM     14  H   UNL     1       4.986   1.955  16.012  0.00  0.00    +0.000 HD
ENDROOT
BRANCH  11  15
ATOM     15  N   UNL     1       7.187   7.780  17.088  0.00  0.00    +0.000 N 
ATOM     16  C   UNL     1       8.085   8.226  18.031  0.00  0.00    +0.000 C 
ATOM     17  C   UNL     1       8.405   9.694  17.937  0.00  0.00    +0.000 C 
ATOM     18  O   UNL     1       8.565   7.514  18.907  0.00  0.00    +0.000 OA
ATOM     19  H   UNL     1       6.946   8.387  16.315  0.00  0.00    +0.000 HD
ENDBRANCH  11  15
BRANCH   1  21
ATOM     20  C   UNL     1       1.314   2.876  21.773  0.00  0.00    +0.000 C 
ATOM     21  O   UNL     1       1.114   3.640  20.590  0.00  0.00    +0.000 OA
ENDBRANCH   1  21
TORSDOF 2
ENDMDL
MODEL 3
REMARK VINA RESULT:      -7.3      4.568      7.426
REMARK  Name = 
REMARK  4 active torsions:
REMARK  status: ('A' for Active; 'I' for Inactive)
REMARK    1  A    between atoms: C_1  and  O_2
REMARK    2  A    between atoms: O_2  and  C_3
REMARK    3  A    between atoms: C_13  and  N_14
REMARK    4  A    between atoms: C_15  and  C_16
REMARK                            x       y       z     vdW  Elec       q    Type
REMARK                         _______ _______ _______ _____ _____    ______ ____
ROOT
ATOM      1  C   UNL     1       1.266   9.508  18.958  0.00  0.00    +0.000 A 
ATOM      2  C   UNL     1       0.918   9.247  20.285  0.00  0.00    +0.000 A 
ATOM      3  C   UNL     1       1.300   8.062  20.926  0.00  0.00    +0.000 A 
ATOM      4  C   UNL     1       2.056   7.145  20.188  0.00  0.00    +0.000 A 
ATOM      5  N   UNL     1       2.575   5.921  20.555  0.00  0.00    +0.000 N 
ATOM      6  C   UNL     1       3.277   5.386  19.510  0.00  0.00    +0.000 A 
ATOM      7  C   UNL     1       3.205   6.263  18.447  0.00  0.00    +0.000 A 
ATOM      8  C   UNL     1       2.427   7.377  18.862  0.00  0.00    +0.000 A 
ATOM      9  C   UNL     1       2.019   8.574  18.237  0.00  0.00    +0.000 A 
ATOM     10  C   UNL     1       3.891   5.997  17.153  0.00  0.00    +0.000 C 
ATOM     11  C   UNL     1       5.041   4.978  17.354  0.00  0.00    +0.000 C 
ATOM     12  C   UNL     1       4.545   3.740  18.141  0.00  0.00    +0.000 C 
ATOM     13  C   UNL     1       4.048   4.113  19.554  0.00  0.00    +0.000 C 
ATOM     14  H   UNL     1       2.474   5.507  21.471  0.00  0.00    +0.000 HD
ENDROOT
BRANCH  11  15
ATOM     15  N   UNL     1       5.631   4.598  16.073  0.00  0.00    +0.000 N 
ATOM     16  C   UNL     1       6.760   5.217  15.588  0.00  0.00    +0.000 C 
ATOM     17  C   UNL     1       7.219   4.708  14.248  0.00  0.00    +0.000 C 
ATOM     18  O   UNL     1       7.337   6.134  16.163  0.00  0.00    +0.000 OA
ATOM     19  H   UNL     1       5.296   3.760  15.615  0.00  0.00    +0.000 HD
ENDBRANCH  11  15
BRANCH   1  21
ATOM     20  C   UNL     1      -0.429  11.174  18.973  0.00  0.00    +0.000 C 
ATOM     21  O   UNL     1       0.821  10.712  18.477  0.00  0.00    +0.000 OA
ENDBRANCH   1  21
TORSDOF 2
ENDMDL
MODEL 4
REMARK VINA RESULT:      -7.3      1.280      1.280
REMARK  Name = 
REMARK  4 active torsions:
REMARK  status: ('A' for Active; 'I' for Inactive)
REMARK    1  A    between atoms: C_1  and  O_2
REMARK    2  A    between atoms: O_2  and  C_3
REMARK    3  A    between atoms: C_13  and  N_14
REMARK    4  A    between atoms: C_15  and  C_16
REMARK                            x       y       z     vdW  Elec       q    Type
REMARK                         _______ _______ _______ _____ _____    ______ ____
ROOT
ATOM      1  C   UNL     1       5.810   3.515  12.567  0.00  0.00    +0.000 A 
ATOM      2  C   UNL     1       7.007   4.193  12.322  0.00  0.00    +0.000 A 
ATOM      3  C   UNL     1       7.648   4.937  13.320  0.00  0.00    +0.000 A 
ATOM      4  C   UNL     1       7.048   4.973  14.583  0.00  0.00    +0.000 A 
ATOM      5  N   UNL     1       7.451   5.604  15.742  0.00  0.00    +0.000 N 
ATOM      6  C   UNL     1       6.562   5.335  16.746  0.00  0.00    +0.000 A 
ATOM      7  C   UNL     1       5.564   4.531  16.235  0.00  0.00    +0.000 A 
ATOM      8  C   UNL     1       5.856   4.302  14.865  0.00  0.00    +0.000 A 
ATOM      9  C   UNL     1       5.226   3.568  13.838  0.00  0.00    +0.000 A 
ATOM     10  C   UNL     1       4.445   4.027  17.079  0.00  0.00    +0.000 C 
ATOM     11  C   UNL     1       4.841   4.064  18.576  0.00  0.00    +0.000 C 
ATOM     12  C   UNL     1       5.423   5.449  18.955  0.00  0.00    +0.000 C 
ATOM     13  C   UNL     1       6.706   5.775  18.162  0.00  0.00    +0.000 C 
ATOM     14  H   UNL     1       8.295   6.152  15.832  0.00  0.00    +0.000 HD
ENDROOT
BRANCH  11  15
ATOM     15  N   UNL     1       3.707   3.709  19.424  0.00  0.00    +0.000 N 
ATOM     16  C   UNL     1       2.538   4.434  19.404  0.00  0.00    +0.000 C 
ATOM     17  C   UNL     1       1.482   3.934  20.354  0.00  0.00    +0.000 C 
ATOM     18  O   UNL     1       2.363   5.430  18.710  0.00  0.00    +0.000 OA
ATOM     19  H   UNL     1       3.726   2.822  19.912  0.00  0.00    +0.000 HD
ENDBRANCH  11  15
BRANCH   1  21
ATOM     20  C   UNL     1       3.966   3.107  11.124  0.00  0.00    +0.000 C 
ATOM     21  O   UNL     1       5.312   2.829  11.491  0.00  0.00    +0.000 OA
ENDBRANCH   1  21
TORSDOF 2
ENDMDL
MODEL 5
REMARK VINA RESULT:      -7.2      2.005      6.693
REMARK  Name = 
REMARK  4 active torsions:
REMARK  status: ('A' for Active; 'I' for Inactive)
REMARK    1  A    between atoms: C_1  and  O_2
REMARK    2  A    between atoms: O_2  and  C_3
REMARK    3  A    between atoms: C_13  and  N_14
REMARK    4  A    between atoms: C_15  and  C_16
REMARK                            x       y       z     vdW  Elec       q    Type
REMARK                         _______ _______ _______ _____ _____    ______ ____
ROOT
ATOM      1  C   UNL     1       2.323   3.404  19.613  0.00  0.00    +0.000 A 
ATOM      2  C   UNL     1       2.046   4.681  20.106  0.00  0.00    +0.000 A 
ATOM      3  C   UNL     1       2.599   5.831  19.528  0.00  0.00    +0.000 A 
ATOM      4  C   UNL     1       3.441   5.654  18.425  0.00  0.00    +0.000 A 
ATOM      5  N   UNL     1       4.107   6.586  17.657  0.00  0.00    +0.000 N 
ATOM      6  C   UNL     1       4.794   5.954  16.656  0.00  0.00    +0.000 A 
ATOM      7  C   UNL     1       4.583   4.596  16.780  0.00  0.00    +0.000 A 
ATOM      8  C   UNL     1       3.735   4.393  17.901  0.00  0.00    +0.000 A 
ATOM      9  C   UNL     1       3.171   3.252  18.511  0.00  0.00    +0.000 A 
ATOM     10  C   UNL     1       5.168   3.614  15.826  0.00  0.00    +0.000 C 
ATOM     11  C   UNL     1       5.531   4.312  14.491  0.00  0.00    +0.000 C 
ATOM     12  C   UNL     1       6.355   5.598  14.753  0.00  0.00    +0.000 C 
ATOM     13  C   UNL     1       5.565   6.634  15.579  0.00  0.00    +0.000 C 
ATOM     14  H   UNL     1       4.061   7.586  17.800  0.00  0.00    +0.000 HD
ENDROOT
BRANCH  11  15
ATOM     15  N   UNL     1       6.235   3.396  13.598  0.00  0.00    +0.000 N 
ATOM     16  C   UNL     1       5.753   3.102  12.343  0.00  0.00    +0.000 C 
ATOM     17  C   UNL     1       6.600   2.129  11.567  0.00  0.00    +0.000 C 
ATOM     18  O   UNL     1       4.706   3.552  11.890  0.00  0.00    +0.000 OA
ATOM     19  H   UNL     1       7.171   3.103  13.846  0.00  0.00    +0.000 HD
ENDBRANCH  11  15
BRANCH   1  21
ATOM     20  C   UNL     1       1.492   2.574  21.679  0.00  0.00    +0.000 C 
ATOM     21  O   UNL     1       1.701   2.385  20.285  0.00  0.00    +0.000 OA
ENDBRANCH   1  21
TORSDOF 2
ENDMDL
MODEL 6
REMARK VINA RESULT:      -7.1      2.231      6.324
REMARK  Name = 
REMARK  4 active torsions:
REMARK  status: ('A' for Active; 'I' for Inactive)
REMARK    1  A    between atoms: C_1  and  O_2
REMARK    2  A    between atoms: O_2  and  C_3
REMARK    3  A    between atoms: C_13  and  N_14
REMARK    4  A    between atoms: C_15  and  C_16
REMARK                            x       y       z     vdW  Elec       q    Type
REMARK                         _______ _______ _______ _____ _____    ______ ____
ROOT
ATOM      1  C   UNL     1       1.970   4.139  18.971  0.00  0.00    +0.000 A 
ATOM      2  C   UNL     1       2.186   5.339  19.651  0.00  0.00    +0.000 A 
ATOM      3  C   UNL     1       3.244   6.194  19.318  0.00  0.00    +0.000 A 
ATOM      4  C   UNL     1       4.079   5.805  18.265  0.00  0.00    +0.000 A 
ATOM      5  N   UNL     1       5.174   6.440  17.717  0.00  0.00    +0.000 N 
ATOM      6  C   UNL     1       5.665   5.699  16.677  0.00  0.00    +0.000 A 
ATOM      7  C   UNL     1       4.890   4.564  16.554  0.00  0.00    +0.000 A 
ATOM      8  C   UNL     1       3.889   4.616  17.559  0.00  0.00    +0.000 A 
ATOM      9  C   UNL     1       2.821   3.768  17.924  0.00  0.00    +0.000 A 
ATOM     10  C   UNL     1       5.137   3.549  15.492  0.00  0.00    +0.000 C 
ATOM     11  C   UNL     1       5.940   4.177  14.325  0.00  0.00    +0.000 C 
ATOM     12  C   UNL     1       7.181   4.935  14.860  0.00  0.00    +0.000 C 
ATOM     13  C   UNL     1       6.791   6.102  15.790  0.00  0.00    +0.000 C 
ATOM     14  H   UNL     1       5.531   7.335  18.024  0.00  0.00    +0.000 HD
ENDROOT
BRANCH  11  15
ATOM     15  N   UNL     1       6.314   3.161  13.344  0.00  0.00    +0.000 N 
ATOM     16  C   UNL     1       5.579   2.965  12.196  0.00  0.00    +0.000 C 
ATOM     17  C   UNL     1       6.101   1.867  11.308  0.00  0.00    +0.000 C 
ATOM     18  O   UNL     1       4.561   3.591  11.921  0.00  0.00    +0.000 OA
ATOM     19  H   UNL     1       7.214   2.710  13.433  0.00  0.00    +0.000 HD
ENDBRANCH  11  15
BRANCH   1  21
ATOM     20  C   UNL     1       0.665   2.161  18.786  0.00  0.00    +0.000 C 
ATOM     21  O   UNL     1       0.892   3.418  19.413  0.00  0.00    +0.000 OA
ENDBRANCH   1  21
TORSDOF 2
ENDMDL
MODEL 7
REMARK VINA RESULT:      -7.0      5.309      6.562
REMARK  Name = 
REMARK  4 active torsions:
REMARK  status: ('A' for Active; 'I' for Inactive)
REMARK    1  A    between atoms: C_1  and  O_2
REMARK    2  A    between atoms: O_2  and  C_3
REMARK    3  A    between atoms: C_13  and  N_14
REMARK    4  A    between atoms: C_15  and  C_16
REMARK                            x       y       z     vdW  Elec       q    Type
REMARK                         _______ _______ _______ _____ _____    ______ ____
ROOT
ATOM      1  C   UNL     1       5.307   5.773  16.203  0.00  0.00    +0.000 A 
ATOM      2  C   UNL     1       5.454   4.701  17.087  0.00  0.00    +0.000 A 
ATOM      3  C   UNL     1       4.783   4.663  18.316  0.00  0.00    +0.000 A 
ATOM      4  C   UNL     1       3.947   5.741  18.626  0.00  0.00    +0.000 A 
ATOM      5  N   UNL     1       3.164   5.968  19.739  0.00  0.00    +0.000 N 
ATOM      6  C   UNL     1       2.488   7.148  19.595  0.00  0.00    +0.000 A 
ATOM      7  C   UNL     1       2.842   7.703  18.382  0.00  0.00    +0.000 A 
ATOM      8  C   UNL     1       3.772   6.825  17.764  0.00  0.00    +0.000 A 
ATOM      9  C   UNL     1       4.469   6.842  16.537  0.00  0.00    +0.000 A 
ATOM     10  C   UNL     1       2.260   8.985  17.898  0.00  0.00    +0.000 C 
ATOM     11  C   UNL     1       0.919   9.273  18.620  0.00  0.00    +0.000 C 
ATOM     12  C   UNL     1       1.079   9.121  20.153  0.00  0.00    +0.000 C 
ATOM     13  C   UNL     1       1.484   7.687  20.554  0.00  0.00    +0.000 C 
ATOM     14  H   UNL     1       3.084   5.334  20.522  0.00  0.00    +0.000 HD
ENDROOT
BRANCH  11  15
ATOM     15  N   UNL     1       0.408  10.593  18.262  0.00  0.00    +0.000 N 
ATOM     16  C   UNL     1      -0.934  10.889  18.333  0.00  0.00    +0.000 C 
ATOM     17  C   UNL     1      -1.283  12.292  17.914  0.00  0.00    +0.000 C 
ATOM     18  O   UNL     1      -1.795  10.082  18.669  0.00  0.00    +0.000 OA
ATOM     19  H   UNL     1       1.069  11.345  18.116  0.00  0.00    +0.000 HD
ENDBRANCH  11  15
BRANCH   1  21
ATOM     20  C   UNL     1       6.238   4.340  14.551  0.00  0.00    +0.000 C 
ATOM     21  O   UNL     1       6.026   5.658  15.042  0.00  0.00    +0.000 OA
ENDBRANCH   1  21
TORSDOF 2
ENDMDL
MODEL 8
REMARK VINA RESULT:      -6.9      5.203      6.906
REMARK  Name = 
REMARK  4 active torsions:
REMARK  status: ('A' for Active; 'I' for Inactive)
REMARK    1  A    between atoms: C_1  and  O_2
REMARK    2  A    between atoms: O_2  and  C_3
REMARK    3  A    between atoms: C_13  and  N_14
REMARK    4  A    between atoms: C_15  and  C_16
REMARK                            x       y       z     vdW  Elec       q    Type
REMARK                         _______ _______ _______ _____ _____    ______ ____
ROOT
ATOM      1  C   UNL     1       4.709   4.281  19.101  0.00  0.00    +0.000 A 
ATOM      2  C   UNL     1       5.304   4.583  17.874  0.00  0.00    +0.000 A 
ATOM      3  C   UNL     1       4.932   5.712  17.134  0.00  0.00    +0.000 A 
ATOM      4  C   UNL     1       3.940   6.538  17.674  0.00  0.00    +0.000 A 
ATOM      5  N   UNL     1       3.389   7.704  17.185  0.00  0.00    +0.000 N 
ATOM      6  C   UNL     1       2.467   8.187  18.072  0.00  0.00    +0.000 A 
ATOM      7  C   UNL     1       2.407   7.322  19.145  0.00  0.00    +0.000 A 
ATOM      8  C   UNL     1       3.329   6.270  18.901  0.00  0.00    +0.000 A 
ATOM      9  C   UNL     1       3.716   5.119  19.621  0.00  0.00    +0.000 A 
ATOM     10  C   UNL     1       1.517   7.570  20.314  0.00  0.00    +0.000 C 
ATOM     11  C   UNL     1       1.142   9.071  20.393  0.00  0.00    +0.000 C 
ATOM     12  C   UNL     1       0.641   9.584  19.020  0.00  0.00    +0.000 C 
ATOM     13  C   UNL     1       1.724   9.470  17.928  0.00  0.00    +0.000 C 
ATOM     14  H   UNL     1       3.658   8.144  16.315  0.00  0.00    +0.000 HD
ENDROOT
BRANCH  11  15
ATOM     15  N   UNL     1       0.158   9.307  21.446  0.00  0.00    +0.000 N 
ATOM     16  C   UNL     1       0.034  10.536  22.055  0.00  0.00    +0.000 C 
ATOM     17  C   UNL     1      -1.021  10.593  23.127  0.00  0.00    +0.000 C 
ATOM     18  O   UNL     1       0.740  11.504  21.790  0.00  0.00    +0.000 OA
ATOM     19  H   UNL     1      -0.549   8.603  21.615  0.00  0.00    +0.000 HD
ENDBRANCH  11  15
BRANCH   1  21
ATOM     20  C   UNL     1       4.231   2.142  20.020  0.00  0.00    +0.000 C 
ATOM     21  O   UNL     1       5.187   3.146  19.703  0.00  0.00    +0.000 OA
ENDBRANCH   1  21
TORSDOF 2
ENDMDL
MODEL 9
REMARK VINA RESULT:      -6.9      3.348      6.459
REMARK  Name = 
REMARK  4 active torsions:
REMARK  status: ('A' for Active; 'I' for Inactive)
REMARK    1  A    between atoms: C_1  and  O_2
REMARK    2  A    between atoms: O_2  and  C_3
REMARK    3  A    between atoms: C_13  and  N_14
REMARK    4  A    between atoms: C_15  and  C_16
REMARK                            x       y       z     vdW  Elec       q    Type
REMARK                         _______ _______ _______ _____ _____    ______ ____
ROOT
ATOM      1  C   UNL     1       2.100   3.423  19.873  0.00  0.00    +0.000 A 
ATOM      2  C   UNL     1       1.856   2.411  18.941  0.00  0.00    +0.000 A 
ATOM      3  C   UNL     1       2.678   2.227  17.822  0.00  0.00    +0.000 A 
ATOM      4  C   UNL     1       3.764   3.095  17.671  0.00  0.00    +0.000 A 
ATOM      5  N   UNL     1       4.733   3.145  16.691  0.00  0.00    +0.000 N 
ATOM      6  C   UNL     1       5.621   4.147  16.971  0.00  0.00    +0.000 A 
ATOM      7  C   UNL     1       5.221   4.765  18.137  0.00  0.00    +0.000 A 
ATOM      8  C   UNL     1       4.041   4.113  18.586  0.00  0.00    +0.000 A 
ATOM      9  C   UNL     1       3.191   4.282  19.699  0.00  0.00    +0.000 A 
ATOM     10  C   UNL     1       5.990   5.888  18.743  0.00  0.00    +0.000 C 
ATOM     11  C   UNL     1       7.452   5.874  18.232  0.00  0.00    +0.000 C 
ATOM     12  C   UNL     1       7.492   5.762  16.687  0.00  0.00    +0.000 C 
ATOM     13  C   UNL     1       6.849   4.453  16.185  0.00  0.00    +0.000 C 
ATOM     14  H   UNL     1       4.789   2.509  15.907  0.00  0.00    +0.000 HD
ENDROOT
BRANCH  11  15
ATOM     15  N   UNL     1       8.180   7.049  18.703  0.00  0.00    +0.000 N 
ATOM     16  C   UNL     1       8.045   8.274  18.090  0.00  0.00    +0.000 C 
ATOM     17  C   UNL     1       8.880   9.368  18.699  0.00  0.00    +0.000 C 
ATOM     18  O   UNL     1       7.340   8.471  17.105  0.00  0.00    +0.000 OA
ATOM     19  H   UNL     1       8.663   6.996  19.590  0.00  0.00    +0.000 HD
ENDBRANCH  11  15
BRANCH   1  21
ATOM     20  C   UNL     1       1.407   2.528  21.962  0.00  0.00    +0.000 C 
ATOM     21  O   UNL     1       1.210   3.468  20.913  0.00  0.00    +0.000 OA
ENDBRANCH   1  21
TORSDOF 2
ENDMDL
