MODEL 1
REMARK VINA RESULT:     -10.4      0.000      0.000
REMARK  Name = 
REMARK  5 active torsions:
REMARK  status: ('A' for Active; 'I' for Inactive)
REMARK    1  A    between atoms: C_1  and  C_2
REMARK    2  A    between atoms: C_3  and  C_4
REMARK    3  A    between atoms: C_7  and  C_8
REMARK    4  A    between atoms: C_25  and  C_26
REMARK    5  A    between atoms: C_26  and  C_28
REMARK                            x       y       z     vdW  Elec       q    Type
REMARK                         _______ _______ _______ _____ _____    ______ ____
ROOT
ATOM      1  C   UNL     1       1.875   4.694  20.294  0.00  0.00    +0.000 C 
ATOM      2  C   UNL     1       2.778   5.205  19.197  0.00  0.00    +0.000 A 
ATOM      3  C   UNL     1       2.757   6.548  18.803  0.00  0.00    +0.000 A 
ATOM      4  N   UNL     1       3.445   6.967  17.717  0.00  0.00    +0.000 NA
ATOM      5  C   UNL     1       4.260   6.145  17.059  0.00  0.00    +0.000 A 
ATOM      6  C   UNL     1       4.918   6.691  15.965  0.00  0.00    +0.000 A 
ATOM      7  C   UNL     1       5.846   5.963  15.229  0.00  0.00    +0.000 A 
ATOM      8  C   UNL     1       6.132   4.674  15.621  0.00  0.00    +0.000 A 
ATOM      9  F   UNL     1       7.034   3.959  14.935  0.00  0.00    +0.000 F 
ATOM     10  C   UNL     1       5.490   4.102  16.719  0.00  0.00    +0.000 A 
ATOM     11  C   UNL     1       4.485   4.811  17.439  0.00  0.00    +0.000 A 
ATOM     12  C   UNL     1       3.690   4.333  18.528  0.00  0.00    +0.000 A 
ENDROOT
BRANCH   3  13
ATOM     13  C   UNL     1       2.051   7.658  19.494  0.00  0.00    +0.000 A 
ATOM     14  C   UNL     1       1.836   7.674  20.874  0.00  0.00    +0.000 A 
ATOM     15  C   UNL     1       1.161   8.729  21.505  0.00  0.00    +0.000 A 
ATOM     16  C   UNL     1       0.738   9.869  20.800  0.00  0.00    +0.000 A 
ATOM     17  C   UNL     1       1.009   9.883  19.424  0.00  0.00    +0.000 A 
ATOM     18  C   UNL     1       1.636   8.799  18.786  0.00  0.00    +0.000 A 
BRANCH  16  19
ATOM     19  C   UNL     1       0.063  10.995  21.493  0.00  0.00    +0.000 A 
ATOM     20  C   UNL     1       0.304  12.331  21.105  0.00  0.00    +0.000 A 
ATOM     21  C   UNL     1      -0.292  13.413  21.763  0.00  0.00    +0.000 A 
ATOM     22  C   UNL     1      -1.166  13.189  22.820  0.00  0.00    +0.000 A 
ATOM     23  C   UNL     1      -1.442  11.884  23.216  0.00  0.00    +0.000 A 
ATOM     24  C   UNL     1      -0.829  10.810  22.564  0.00  0.00    +0.000 A 
ATOM     25  F   UNL     1      -1.117   9.579  23.016  0.00  0.00    +0.000 F 
ENDBRANCH  16  19
ENDBRANCH   3  13
BRANCH  12  26
ATOM     26  C   UNL     1       3.859   2.947  19.082  0.00  0.00    +0.000 C 
ATOM     27  O   UNL     1       4.693   2.797  19.982  0.00  0.00    +0.000 OA
BRANCH  26  28
ATOM     28  C   UNL     1       3.015   1.789  18.567  0.00  0.00    +0.000 C 
ATOM     29  F   UNL     1       1.941   1.472  19.338  0.00  0.00    +0.000 F 
ATOM     30  F   UNL     1       2.526   2.054  17.322  0.00  0.00    +0.000 F 
ATOM     31  F   UNL     1       3.736   0.639  18.452  0.00  0.00    +0.000 F 
ENDBRANCH  26  28
ENDBRANCH  12  26
TORSDOF 4
ENDMDL
MODEL 2
REMARK VINA RESULT:     -10.3      0.850      1.382
REMARK  Name = 
REMARK  5 active torsions:
REMARK  status: ('A' for Active; 'I' for Inactive)
REMARK    1  A    between atoms: C_1  and  C_2
REMARK    2  A    between atoms: C_3  and  C_4
REMARK    3  A    between atoms: C_7  and  C_8
REMARK    4  A    between atoms: C_25  and  C_26
REMARK    5  A    between atoms: C_26  and  C_28
REMARK                            x       y       z     vdW  Elec       q    Type
REMARK                         _______ _______ _______ _____ _____    ______ ____
ROOT
ATOM      1  C   UNL     1       1.822   4.704  20.338  0.00  0.00    +0.000 C 
ATOM      2  C   UNL     1       2.735   5.223  19.253  0.00  0.00    +0.000 A 
ATOM      3  C   UNL     1       2.722   6.570  18.874  0.00  0.00    +0.000 A 
ATOM      4  N   UNL     1       3.419   6.999  17.798  0.00  0.00    +0.000 NA
ATOM      5  C   UNL     1       4.235   6.180  17.135  0.00  0.00    +0.000 A 
ATOM      6  C   UNL     1       4.902   6.736  16.052  0.00  0.00    +0.000 A 
ATOM      7  C   UNL     1       5.832   6.013  15.314  0.00  0.00    +0.000 A 
ATOM      8  C   UNL     1       6.109   4.718  15.693  0.00  0.00    +0.000 A 
ATOM      9  F   UNL     1       7.013   4.007  15.005  0.00  0.00    +0.000 F 
ATOM     10  C   UNL     1       5.458   4.137  16.780  0.00  0.00    +0.000 A 
ATOM     11  C   UNL     1       4.452   4.841  17.502  0.00  0.00    +0.000 A 
ATOM     12  C   UNL     1       3.648   4.354  18.580  0.00  0.00    +0.000 A 
ENDROOT
BRANCH   3  13
ATOM     13  C   UNL     1       2.017   7.676  19.573  0.00  0.00    +0.000 A 
ATOM     14  C   UNL     1       1.827   7.696  20.958  0.00  0.00    +0.000 A 
ATOM     15  C   UNL     1       1.151   8.746  21.596  0.00  0.00    +0.000 A 
ATOM     16  C   UNL     1       0.703   9.878  20.894  0.00  0.00    +0.000 A 
ATOM     17  C   UNL     1       0.949   9.888  19.513  0.00  0.00    +0.000 A 
ATOM     18  C   UNL     1       1.576   8.809  18.868  0.00  0.00    +0.000 A 
BRANCH  16  19
ATOM     19  C   UNL     1       0.029  10.999  21.595  0.00  0.00    +0.000 A 
ATOM     20  C   UNL     1      -0.979  10.751  22.551  0.00  0.00    +0.000 A 
ATOM     21  C   UNL     1      -1.655  11.789  23.202  0.00  0.00    +0.000 A 
ATOM     22  C   UNL     1      -1.326  13.112  22.931  0.00  0.00    +0.000 A 
ATOM     23  C   UNL     1      -0.323  13.393  22.008  0.00  0.00    +0.000 A 
ATOM     24  C   UNL     1       0.335  12.350  21.350  0.00  0.00    +0.000 A 
ATOM     25  F   UNL     1       1.272  12.692  20.451  0.00  0.00    +0.000 F 
ENDBRANCH  16  19
ENDBRANCH   3  13
BRANCH  12  26
ATOM     26  C   UNL     1       3.806   2.962  19.119  0.00  0.00    +0.000 C 
ATOM     27  O   UNL     1       4.623   2.800  20.032  0.00  0.00    +0.000 OA
BRANCH  26  28
ATOM     28  C   UNL     1       2.973   1.810  18.573  0.00  0.00    +0.000 C 
ATOM     29  F   UNL     1       2.429   2.024  17.346  0.00  0.00    +0.000 F 
ATOM     30  F   UNL     1       3.719   0.673  18.466  0.00  0.00    +0.000 F 
ATOM     31  F   UNL     1       1.928   1.499  19.389  0.00  0.00    +0.000 F 
ENDBRANCH  26  28
ENDBRANCH  12  26
TORSDOF 4
ENDMDL
MODEL 3
REMARK VINA RESULT:     -10.3      0.216      1.110
REMARK  Name = 
REMARK  5 active torsions:
REMARK  status: ('A' for Active; 'I' for Inactive)
REMARK    1  A    between atoms: C_1  and  C_2
REMARK    2  A    between atoms: C_3  and  C_4
REMARK    3  A    between atoms: C_7  and  C_8
REMARK    4  A    between atoms: C_25  and  C_26
REMARK    5  A    between atoms: C_26  and  C_28
REMARK                            x       y       z     vdW  Elec       q    Type
REMARK                         _______ _______ _______ _____ _____    ______ ____
ROOT
ATOM      1  C   UNL     1       1.654   4.859  20.363  0.00  0.00    +0.000 C 
ATOM      2  C   UNL     1       2.602   5.315  19.280  0.00  0.00    +0.000 A 
ATOM      3  C   UNL     1       2.663   6.655  18.883  0.00  0.00    +0.000 A 
ATOM      4  N   UNL     1       3.391   7.031  17.808  0.00  0.00    +0.000 NA
ATOM      5  C   UNL     1       4.169   6.162  17.164  0.00  0.00    +0.000 A 
ATOM      6  C   UNL     1       4.874   6.667  16.080  0.00  0.00    +0.000 A 
ATOM      7  C   UNL     1       5.772   5.886  15.361  0.00  0.00    +0.000 A 
ATOM      8  C   UNL     1       5.978   4.583  15.761  0.00  0.00    +0.000 A 
ATOM      9  F   UNL     1       6.849   3.817  15.091  0.00  0.00    +0.000 F 
ATOM     10  C   UNL     1       5.287   4.053  16.850  0.00  0.00    +0.000 A 
ATOM     11  C   UNL     1       4.313   4.819  17.551  0.00  0.00    +0.000 A 
ATOM     12  C   UNL     1       3.474   4.390  18.628  0.00  0.00    +0.000 A 
ENDROOT
BRANCH   3  13
ATOM     13  C   UNL     1       2.010   7.806  19.559  0.00  0.00    +0.000 A 
ATOM     14  C   UNL     1       1.525   8.916  18.863  0.00  0.00    +0.000 A 
ATOM     15  C   UNL     1       0.919   9.995  19.523  0.00  0.00    +0.000 A 
ATOM     16  C   UNL     1       0.686   9.984  20.909  0.00  0.00    +0.000 A 
ATOM     17  C   UNL     1       1.116   8.842  21.600  0.00  0.00    +0.000 A 
ATOM     18  C   UNL     1       1.773   7.788  20.945  0.00  0.00    +0.000 A 
BRANCH  16  19
ATOM     19  C   UNL     1       0.003  11.118  21.582  0.00  0.00    +0.000 A 
ATOM     20  C   UNL     1       0.251  12.449  21.184  0.00  0.00    +0.000 A 
ATOM     21  C   UNL     1      -0.353  13.538  21.823  0.00  0.00    +0.000 A 
ATOM     22  C   UNL     1      -1.242  13.325  22.869  0.00  0.00    +0.000 A 
ATOM     23  C   UNL     1      -1.525  12.025  23.274  0.00  0.00    +0.000 A 
ATOM     24  C   UNL     1      -0.905  10.944  22.641  0.00  0.00    +0.000 A 
ATOM     25  F   UNL     1      -1.200   9.717  23.101  0.00  0.00    +0.000 F 
ENDBRANCH  16  19
ENDBRANCH   3  13
BRANCH  12  26
ATOM     26  C   UNL     1       3.555   2.999  19.188  0.00  0.00    +0.000 C 
ATOM     27  O   UNL     1       4.259   2.834  20.191  0.00  0.00    +0.000 OA
BRANCH  26  28
ATOM     28  C   UNL     1       2.780   1.852  18.554  0.00  0.00    +0.000 C 
ATOM     29  F   UNL     1       2.288   2.107  17.312  0.00  0.00    +0.000 F 
ATOM     30  F   UNL     1       3.560   0.740  18.435  0.00  0.00    +0.000 F 
ATOM     31  F   UNL     1       1.705   1.481  19.304  0.00  0.00    +0.000 F 
ENDBRANCH  26  28
ENDBRANCH  12  26
TORSDOF 4
ENDMDL
MODEL 4
REMARK VINA RESULT:     -10.2      0.839      1.474
REMARK  Name = 
REMARK  5 active torsions:
REMARK  status: ('A' for Active; 'I' for Inactive)
REMARK    1  A    between atoms: C_1  and  C_2
REMARK    2  A    between atoms: C_3  and  C_4
REMARK    3  A    between atoms: C_7  and  C_8
REMARK    4  A    between atoms: C_25  and  C_26
REMARK    5  A    between atoms: C_26  and  C_28
REMARK                            x       y       z     vdW  Elec       q    Type
REMARK                         _______ _______ _______ _____ _____    ______ ____
ROOT
ATOM      1  C   UNL     1       1.859   4.746  20.335  0.00  0.00    +0.000 C 
ATOM      2  C   UNL     1       2.766   5.246  19.236  0.00  0.00    +0.000 A 
ATOM      3  C   UNL     1       2.766   6.590  18.848  0.00  0.00    +0.000 A 
ATOM      4  N   UNL     1       3.456   7.003  17.761  0.00  0.00    +0.000 NA
ATOM      5  C   UNL     1       4.254   6.169  17.095  0.00  0.00    +0.000 A 
ATOM      6  C   UNL     1       4.915   6.709  16.000  0.00  0.00    +0.000 A 
ATOM      7  C   UNL     1       5.827   5.969  15.256  0.00  0.00    +0.000 A 
ATOM      8  C   UNL     1       6.093   4.673  15.642  0.00  0.00    +0.000 A 
ATOM      9  F   UNL     1       6.979   3.945  14.949  0.00  0.00    +0.000 F 
ATOM     10  C   UNL     1       5.447   4.107  16.741  0.00  0.00    +0.000 A 
ATOM     11  C   UNL     1       4.458   4.830  17.469  0.00  0.00    +0.000 A 
ATOM     12  C   UNL     1       3.659   4.361  18.559  0.00  0.00    +0.000 A 
ENDROOT
BRANCH   3  13
ATOM     13  C   UNL     1       2.083   7.710  19.547  0.00  0.00    +0.000 A 
ATOM     14  C   UNL     1       1.566   8.819  18.872  0.00  0.00    +0.000 A 
ATOM     15  C   UNL     1       0.932   9.869  19.552  0.00  0.00    +0.000 A 
ATOM     16  C   UNL     1       0.702   9.825  20.938  0.00  0.00    +0.000 A 
ATOM     17  C   UNL     1       1.163   8.683  21.608  0.00  0.00    +0.000 A 
ATOM     18  C   UNL     1       1.848   7.659  20.932  0.00  0.00    +0.000 A 
BRANCH  16  19
ATOM     19  C   UNL     1      -0.011  10.927  21.633  0.00  0.00    +0.000 A 
ATOM     20  C   UNL     1      -1.001  10.649  22.601  0.00  0.00    +0.000 A 
ATOM     21  C   UNL     1      -1.712  11.667  23.246  0.00  0.00    +0.000 A 
ATOM     22  C   UNL     1      -1.439  12.998  22.958  0.00  0.00    +0.000 A 
ATOM     23  C   UNL     1      -0.455  13.309  22.025  0.00  0.00    +0.000 A 
ATOM     24  C   UNL     1       0.239  12.285  21.372  0.00  0.00    +0.000 A 
ATOM     25  F   UNL     1       1.155  12.654  20.462  0.00  0.00    +0.000 F 
ENDBRANCH  16  19
ENDBRANCH   3  13
BRANCH  12  26
ATOM     26  C   UNL     1       3.807   2.970  19.106  0.00  0.00    +0.000 C 
ATOM     27  O   UNL     1       4.636   2.803  20.007  0.00  0.00    +0.000 OA
BRANCH  26  28
ATOM     28  C   UNL     1       2.948   1.827  18.583  0.00  0.00    +0.000 C 
ATOM     29  F   UNL     1       1.888   1.497  19.369  0.00  0.00    +0.000 F 
ATOM     30  F   UNL     1       2.435   2.122  17.355  0.00  0.00    +0.000 F 
ATOM     31  F   UNL     1       3.661   0.677  18.428  0.00  0.00    +0.000 F 
ENDBRANCH  26  28
ENDBRANCH  12  26
TORSDOF 4
ENDMDL
MODEL 5
REMARK VINA RESULT:      -9.9      1.017      1.503
REMARK  Name = 
REMARK  5 active torsions:
REMARK  status: ('A' for Active; 'I' for Inactive)
REMARK    1  A    between atoms: C_1  and  C_2
REMARK    2  A    between atoms: C_3  and  C_4
REMARK    3  A    between atoms: C_7  and  C_8
REMARK    4  A    between atoms: C_25  and  C_26
REMARK    5  A    between atoms: C_26  and  C_28
REMARK                            x       y       z     vdW  Elec       q    Type
REMARK                         _______ _______ _______ _____ _____    ______ ____
ROOT
ATOM      1  C   UNL     1       1.330   4.800  19.969  0.00  0.00    +0.000 C 
ATOM      2  C   UNL     1       2.381   5.240  18.979  0.00  0.00    +0.000 A 
ATOM      3  C   UNL     1       2.575   6.592  18.676  0.00  0.00    +0.000 A 
ATOM      4  N   UNL     1       3.400   6.972  17.675  0.00  0.00    +0.000 NA
ATOM      5  C   UNL     1       4.147   6.081  17.023  0.00  0.00    +0.000 A 
ATOM      6  C   UNL     1       4.961   6.591  16.020  0.00  0.00    +0.000 A 
ATOM      7  C   UNL     1       5.839   5.783  15.307  0.00  0.00    +0.000 A 
ATOM      8  C   UNL     1       5.913   4.445  15.632  0.00  0.00    +0.000 A 
ATOM      9  F   UNL     1       6.763   3.651  14.967  0.00  0.00    +0.000 F 
ATOM     10  C   UNL     1       5.112   3.909  16.638  0.00  0.00    +0.000 A 
ATOM     11  C   UNL     1       4.157   4.709  17.329  0.00  0.00    +0.000 A 
ATOM     12  C   UNL     1       3.218   4.287  18.321  0.00  0.00    +0.000 A 
ENDROOT
BRANCH   3  13
ATOM     13  C   UNL     1       1.972   7.750  19.386  0.00  0.00    +0.000 A 
ATOM     14  C   UNL     1       1.523   8.895  18.721  0.00  0.00    +0.000 A 
ATOM     15  C   UNL     1       0.965   9.979  19.413  0.00  0.00    +0.000 A 
ATOM     16  C   UNL     1       0.744   9.943  20.800  0.00  0.00    +0.000 A 
ATOM     17  C   UNL     1       1.136   8.770  21.460  0.00  0.00    +0.000 A 
ATOM     18  C   UNL     1       1.746   7.707  20.773  0.00  0.00    +0.000 A 
BRANCH  16  19
ATOM     19  C   UNL     1       0.110  11.085  21.507  0.00  0.00    +0.000 A 
ATOM     20  C   UNL     1       0.421  12.416  21.153  0.00  0.00    +0.000 A 
ATOM     21  C   UNL     1      -0.135  13.510  21.825  0.00  0.00    +0.000 A 
ATOM     22  C   UNL     1      -1.038  13.306  22.860  0.00  0.00    +0.000 A 
ATOM     23  C   UNL     1      -1.383  12.008  23.222  0.00  0.00    +0.000 A 
ATOM     24  C   UNL     1      -0.810  10.920  22.557  0.00  0.00    +0.000 A 
ATOM     25  F   UNL     1      -1.164   9.694  22.976  0.00  0.00    +0.000 F 
ENDBRANCH  16  19
ENDBRANCH   3  13
BRANCH  12  26
ATOM     26  C   UNL     1       3.151   2.863  18.791  0.00  0.00    +0.000 C 
ATOM     27  O   UNL     1       2.319   2.127  18.247  0.00  0.00    +0.000 OA
BRANCH  26  28
ATOM     28  C   UNL     1       4.088   2.350  19.876  0.00  0.00    +0.000 C 
ATOM     29  F   UNL     1       4.599   1.109  19.656  0.00  0.00    +0.000 F 
ATOM     30  F   UNL     1       5.159   3.180  20.031  0.00  0.00    +0.000 F 
ATOM     31  F   UNL     1       3.481   2.286  21.093  0.00  0.00    +0.000 F 
ENDBRANCH  26  28
ENDBRANCH  12  26
TORSDOF 4
ENDMDL
MODEL 6
REMARK VINA RESULT:      -9.9      1.297      1.412
REMARK  Name = 
REMARK  5 active torsions:
REMARK  status: ('A' for Active; 'I' for Inactive)
REMARK    1  A    between atoms: C_1  and  C_2
REMARK    2  A    between atoms: C_3  and  C_4
REMARK    3  A    between atoms: C_7  and  C_8
REMARK    4  A    between atoms: C_25  and  C_26
REMARK    5  A    between atoms: C_26  and  C_28
REMARK                            x       y       z     vdW  Elec       q    Type
REMARK                         _______ _______ _______ _____ _____    ______ ____
ROOT
ATOM      1  C   UNL     1       1.279   4.764  20.062  0.00  0.00    +0.000 C 
ATOM      2  C   UNL     1       2.512   5.295  19.369  0.00  0.00    +0.000 A 
ATOM      3  C   UNL     1       2.663   6.659  19.098  0.00  0.00    +0.000 A 
ATOM      4  N   UNL     1       3.686   7.110  18.337  0.00  0.00    +0.000 NA
ATOM      5  C   UNL     1       4.649   6.288  17.922  0.00  0.00    +0.000 A 
ATOM      6  C   UNL     1       5.650   6.868  17.154  0.00  0.00    +0.000 A 
ATOM      7  C   UNL     1       6.749   6.140  16.711  0.00  0.00    +0.000 A 
ATOM      8  C   UNL     1       6.848   4.814  17.072  0.00  0.00    +0.000 A 
ATOM      9  F   UNL     1       7.906   4.097  16.668  0.00  0.00    +0.000 F 
ATOM     10  C   UNL     1       5.861   4.208  17.848  0.00  0.00    +0.000 A 
ATOM     11  C   UNL     1       4.695   4.922  18.249  0.00  0.00    +0.000 A 
ATOM     12  C   UNL     1       3.568   4.419  18.972  0.00  0.00    +0.000 A 
ENDROOT
BRANCH   3  13
ATOM     13  C   UNL     1       1.801   7.759  19.602  0.00  0.00    +0.000 A 
ATOM     14  C   UNL     1       1.325   7.805  20.915  0.00  0.00    +0.000 A 
ATOM     15  C   UNL     1       0.506   8.850  21.368  0.00  0.00    +0.000 A 
ATOM     16  C   UNL     1       0.188   9.952  20.556  0.00  0.00    +0.000 A 
ATOM     17  C   UNL     1       0.717   9.938  19.258  0.00  0.00    +0.000 A 
ATOM     18  C   UNL     1       1.491   8.863  18.789  0.00  0.00    +0.000 A 
BRANCH  16  19
ATOM     19  C   UNL     1      -0.645  11.069  21.069  0.00  0.00    +0.000 A 
ATOM     20  C   UNL     1      -0.546  11.486  22.414  0.00  0.00    +0.000 A 
ATOM     21  C   UNL     1      -1.342  12.513  22.932  0.00  0.00    +0.000 A 
ATOM     22  C   UNL     1      -2.250  13.171  22.112  0.00  0.00    +0.000 A 
ATOM     23  C   UNL     1      -2.360  12.800  20.776  0.00  0.00    +0.000 A 
ATOM     24  C   UNL     1      -1.572  11.762  20.270  0.00  0.00    +0.000 A 
ATOM     25  F   UNL     1      -1.749  11.435  18.980  0.00  0.00    +0.000 F 
ENDBRANCH  16  19
ENDBRANCH   3  13
BRANCH  12  26
ATOM     26  C   UNL     1       3.500   2.993  19.439  0.00  0.00    +0.000 C 
ATOM     27  O   UNL     1       4.006   2.734  20.536  0.00  0.00    +0.000 OA
BRANCH  26  28
ATOM     28  C   UNL     1       2.813   1.925  18.599  0.00  0.00    +0.000 C 
ATOM     29  F   UNL     1       1.682   1.404  19.144  0.00  0.00    +0.000 F 
ATOM     30  F   UNL     1       2.458   2.415  17.377  0.00  0.00    +0.000 F 
ATOM     31  F   UNL     1       3.627   0.860  18.356  0.00  0.00    +0.000 F 
ENDBRANCH  26  28
ENDBRANCH  12  26
TORSDOF 4
ENDMDL
MODEL 7
REMARK VINA RESULT:      -9.8      1.312      1.910
REMARK  Name = 
REMARK  5 active torsions:
REMARK  status: ('A' for Active; 'I' for Inactive)
REMARK    1  A    between atoms: C_1  and  C_2
REMARK    2  A    between atoms: C_3  and  C_4
REMARK    3  A    between atoms: C_7  and  C_8
REMARK    4  A    between atoms: C_25  and  C_26
REMARK    5  A    between atoms: C_26  and  C_28
REMARK                            x       y       z     vdW  Elec       q    Type
REMARK                         _______ _______ _______ _____ _____    ______ ____
ROOT
ATOM      1  C   UNL     1       1.298   4.696  19.564  0.00  0.00    +0.000 C 
ATOM      2  C   UNL     1       2.409   5.165  18.655  0.00  0.00    +0.000 A 
ATOM      3  C   UNL     1       2.652   6.527  18.446  0.00  0.00    +0.000 A 
ATOM      4  N   UNL     1       3.536   6.942  17.511  0.00  0.00    +0.000 NA
ATOM      5  C   UNL     1       4.292   6.072  16.843  0.00  0.00    +0.000 A 
ATOM      6  C   UNL     1       5.168   6.618  15.915  0.00  0.00    +0.000 A 
ATOM      7  C   UNL     1       6.060   5.830  15.196  0.00  0.00    +0.000 A 
ATOM      8  C   UNL     1       6.084   4.474  15.441  0.00  0.00    +0.000 A 
ATOM      9  F   UNL     1       6.946   3.697  14.771  0.00  0.00    +0.000 F 
ATOM     10  C   UNL     1       5.220   3.900  16.372  0.00  0.00    +0.000 A 
ATOM     11  C   UNL     1       4.252   4.684  17.063  0.00  0.00    +0.000 A 
ATOM     12  C   UNL     1       3.253   4.230  17.981  0.00  0.00    +0.000 A 
ENDROOT
BRANCH   3  13
ATOM     13  C   UNL     1       2.044   7.656  19.196  0.00  0.00    +0.000 A 
ATOM     14  C   UNL     1       1.580   8.816  18.570  0.00  0.00    +0.000 A 
ATOM     15  C   UNL     1       1.016   9.874  19.299  0.00  0.00    +0.000 A 
ATOM     16  C   UNL     1       0.806   9.793  20.687  0.00  0.00    +0.000 A 
ATOM     17  C   UNL     1       1.214   8.603  21.307  0.00  0.00    +0.000 A 
ATOM     18  C   UNL     1       1.829   7.568  20.582  0.00  0.00    +0.000 A 
BRANCH  16  19
ATOM     19  C   UNL     1       0.168  10.906  21.433  0.00  0.00    +0.000 A 
ATOM     20  C   UNL     1      -0.807  10.648  22.421  0.00  0.00    +0.000 A 
ATOM     21  C   UNL     1      -1.449  11.678  23.116  0.00  0.00    +0.000 A 
ATOM     22  C   UNL     1      -1.120  13.003  22.857  0.00  0.00    +0.000 A 
ATOM     23  C   UNL     1      -0.149  13.294  21.904  0.00  0.00    +0.000 A 
ATOM     24  C   UNL     1       0.476  12.258  21.203  0.00  0.00    +0.000 A 
ATOM     25  F   UNL     1       1.382  12.610  20.276  0.00  0.00    +0.000 F 
ENDBRANCH  16  19
ENDBRANCH   3  13
BRANCH  12  26
ATOM     26  C   UNL     1       3.126   2.782  18.358  0.00  0.00    +0.000 C 
ATOM     27  O   UNL     1       2.393   2.078  17.655  0.00  0.00    +0.000 OA
BRANCH  26  28
ATOM     28  C   UNL     1       3.892   2.210  19.544  0.00  0.00    +0.000 C 
ATOM     29  F   UNL     1       4.393   0.960  19.356  0.00  0.00    +0.000 F 
ATOM     30  F   UNL     1       4.953   3.002  19.869  0.00  0.00    +0.000 F 
ATOM     31  F   UNL     1       3.122   2.132  20.664  0.00  0.00    +0.000 F 
ENDBRANCH  26  28
ENDBRANCH  12  26
TORSDOF 4
ENDMDL
MODEL 8
REMARK VINA RESULT:      -9.8      1.010      1.659
REMARK  Name = 
REMARK  5 active torsions:
REMARK  status: ('A' for Active; 'I' for Inactive)
REMARK    1  A    between atoms: C_1  and  C_2
REMARK    2  A    between atoms: C_3  and  C_4
REMARK    3  A    between atoms: C_7  and  C_8
REMARK    4  A    between atoms: C_25  and  C_26
REMARK    5  A    between atoms: C_26  and  C_28
REMARK                            x       y       z     vdW  Elec       q    Type
REMARK                         _______ _______ _______ _____ _____    ______ ____
ROOT
ATOM      1  C   UNL     1       1.812   4.630  20.126  0.00  0.00    +0.000 C 
ATOM      2  C   UNL     1       2.794   5.158  19.107  0.00  0.00    +0.000 A 
ATOM      3  C   UNL     1       2.764   6.493  18.691  0.00  0.00    +0.000 A 
ATOM      4  N   UNL     1       3.534   6.922  17.666  0.00  0.00    +0.000 NA
ATOM      5  C   UNL     1       4.432   6.119  17.097  0.00  0.00    +0.000 A 
ATOM      6  C   UNL     1       5.169   6.673  16.058  0.00  0.00    +0.000 A 
ATOM      7  C   UNL     1       6.183   5.968  15.421  0.00  0.00    +0.000 A 
ATOM      8  C   UNL     1       6.475   4.694  15.859  0.00  0.00    +0.000 A 
ATOM      9  F   UNL     1       7.458   4.002  15.269  0.00  0.00    +0.000 F 
ATOM     10  C   UNL     1       5.755   4.116  16.903  0.00  0.00    +0.000 A 
ATOM     11  C   UNL     1       4.666   4.798  17.518  0.00  0.00    +0.000 A 
ATOM     12  C   UNL     1       3.791   4.308  18.537  0.00  0.00    +0.000 A 
ENDROOT
BRANCH   3  13
ATOM     13  C   UNL     1       1.962   7.588  19.297  0.00  0.00    +0.000 A 
ATOM     14  C   UNL     1       1.514   8.691  18.565  0.00  0.00    +0.000 A 
ATOM     15  C   UNL     1       0.765   9.716  19.159  0.00  0.00    +0.000 A 
ATOM     16  C   UNL     1       0.348   9.653  20.500  0.00  0.00    +0.000 A 
ATOM     17  C   UNL     1       0.744   8.516  21.219  0.00  0.00    +0.000 A 
ATOM     18  C   UNL     1       1.542   7.517  20.636  0.00  0.00    +0.000 A 
BRANCH  16  19
ATOM     19  C   UNL     1      -0.482  10.729  21.098  0.00  0.00    +0.000 A 
ATOM     20  C   UNL     1      -0.723  10.767  22.488  0.00  0.00    +0.000 A 
ATOM     21  C   UNL     1      -1.529  11.750  23.074  0.00  0.00    +0.000 A 
ATOM     22  C   UNL     1      -2.103  12.740  22.287  0.00  0.00    +0.000 A 
ATOM     23  C   UNL     1      -1.870  12.745  20.915  0.00  0.00    +0.000 A 
ATOM     24  C   UNL     1      -1.077  11.750  20.336  0.00  0.00    +0.000 A 
ATOM     25  F   UNL     1      -0.918  11.797  19.003  0.00  0.00    +0.000 F 
ENDBRANCH  16  19
ENDBRANCH   3  13
BRANCH  12  26
ATOM     26  C   UNL     1       3.954   2.936  19.126  0.00  0.00    +0.000 C 
ATOM     27  O   UNL     1       4.749   2.816  20.065  0.00  0.00    +0.000 OA
BRANCH  26  28
ATOM     28  C   UNL     1       3.150   1.756  18.599  0.00  0.00    +0.000 C 
ATOM     29  F   UNL     1       2.609   1.934  17.364  0.00  0.00    +0.000 F 
ATOM     30  F   UNL     1       3.921   0.634  18.519  0.00  0.00    +0.000 F 
ATOM     31  F   UNL     1       2.106   1.439  19.414  0.00  0.00    +0.000 F 
ENDBRANCH  26  28
ENDBRANCH  12  26
TORSDOF 4
ENDMDL
MODEL 9
REMARK VINA RESULT:      -9.7      1.020      1.121
REMARK  Name = 
REMARK  5 active torsions:
REMARK  status: ('A' for Active; 'I' for Inactive)
REMARK    1  A    between atoms: C_1  and  C_2
REMARK    2  A    between atoms: C_3  and  C_4
REMARK    3  A    between atoms: C_7  and  C_8
REMARK    4  A    between atoms: C_25  and  C_26
REMARK    5  A    between atoms: C_26  and  C_28
REMARK                            x       y       z     vdW  Elec       q    Type
REMARK                         _______ _______ _______ _____ _____    ______ ____
ROOT
ATOM      1  C   UNL     1       1.136   4.641  19.144  0.00  0.00    +0.000 C 
ATOM      2  C   UNL     1       2.339   5.123  18.368  0.00  0.00    +0.000 A 
ATOM      3  C   UNL     1       2.645   6.485  18.272  0.00  0.00    +0.000 A 
ATOM      4  N   UNL     1       3.623   6.924  17.448  0.00  0.00    +0.000 NA
ATOM      5  C   UNL     1       4.406   6.069  16.793  0.00  0.00    +0.000 A 
ATOM      6  C   UNL     1       5.379   6.637  15.982  0.00  0.00    +0.000 A 
ATOM      7  C   UNL     1       6.305   5.862  15.293  0.00  0.00    +0.000 A 
ATOM      8  C   UNL     1       6.261   4.493  15.449  0.00  0.00    +0.000 A 
ATOM      9  F   UNL     1       7.153   3.727  14.806  0.00  0.00    +0.000 F 
ATOM     10  C   UNL     1       5.299   3.896  16.261  0.00  0.00    +0.000 A 
ATOM     11  C   UNL     1       4.300   4.673  16.915  0.00  0.00    +0.000 A 
ATOM     12  C   UNL     1       3.208   4.201  17.710  0.00  0.00    +0.000 A 
ENDROOT
BRANCH   3  13
ATOM     13  C   UNL     1       2.010   7.588  19.040  0.00  0.00    +0.000 A 
ATOM     14  C   UNL     1       1.933   7.591  20.435  0.00  0.00    +0.000 A 
ATOM     15  C   UNL     1       1.323   8.639  21.140  0.00  0.00    +0.000 A 
ATOM     16  C   UNL     1       0.831   9.784  20.491  0.00  0.00    +0.000 A 
ATOM     17  C   UNL     1       0.964   9.812  19.095  0.00  0.00    +0.000 A 
ATOM     18  C   UNL     1       1.526   8.735  18.388  0.00  0.00    +0.000 A 
BRANCH  16  19
ATOM     19  C   UNL     1       0.228  10.903  21.259  0.00  0.00    +0.000 A 
ATOM     20  C   UNL     1       0.556  12.243  20.961  0.00  0.00    +0.000 A 
ATOM     21  C   UNL     1       0.029  13.314  21.691  0.00  0.00    +0.000 A 
ATOM     22  C   UNL     1      -0.863  13.078  22.730  0.00  0.00    +0.000 A 
ATOM     23  C   UNL     1      -1.224  11.770  23.037  0.00  0.00    +0.000 A 
ATOM     24  C   UNL     1      -0.680  10.704  22.314  0.00  0.00    +0.000 A 
ATOM     25  F   UNL     1      -1.048   9.467  22.683  0.00  0.00    +0.000 F 
ENDBRANCH  16  19
ENDBRANCH   3  13
BRANCH  12  26
ATOM     26  C   UNL     1       2.999   2.738  17.978  0.00  0.00    +0.000 C 
ATOM     27  O   UNL     1       2.274   2.118  17.192  0.00  0.00    +0.000 OA
BRANCH  26  28
ATOM     28  C   UNL     1       3.677   2.052  19.156  0.00  0.00    +0.000 C 
ATOM     29  F   UNL     1       2.912   1.939  20.275  0.00  0.00    +0.000 F 
ATOM     30  F   UNL     1       4.065   0.786  18.830  0.00  0.00    +0.000 F 
ATOM     31  F   UNL     1       4.807   2.702  19.550  0.00  0.00    +0.000 F 
ENDBRANCH  26  28
ENDBRANCH  12  26
TORSDOF 4
ENDMDL
