MODEL 1
REMARK VINA RESULT:      -7.3      0.000      0.000
REMARK  Name = 
REMARK  14 active torsions:
REMARK  status: ('A' for Active; 'I' for Inactive)
REMARK    1  A    between atoms: C_1  and  N_2
REMARK    2  A    between atoms: N_2  and  C_3
REMARK    3  A    between atoms: N_12  and  C_13
REMARK    4  A    between atoms: C_13  and  C_14
REMARK    5  A    between atoms: C_15  and  C_16
REMARK    6  A    between atoms: C_16  and  O_17
REMARK    7  A    between atoms: O_17  and  P_18
REMARK    8  A    between atoms: P_18  and  O_20
REMARK    9  A    between atoms: P_18  and  O_21
REMARK   10  A    between atoms: C_22  and  C_23
REMARK   11  A    between atoms: C_23  and  O_24
REMARK   12  A    between atoms: O_24  and  P_25
REMARK   13  A    between atoms: P_25  and  O_27
REMARK   14  A    between atoms: P_25  and  O_28
REMARK                            x       y       z     vdW  Elec       q    Type
REMARK                         _______ _______ _______ _____ _____    ______ ____
ROOT
ATOM      1  C   UNL     1       2.564   6.065  18.059  0.00  0.00    +0.000 C 
ATOM      2  C   UNL     1       3.329   4.739  18.423  0.00  0.00    +0.000 C 
ATOM      3  C   UNL     1       3.856   5.788  17.352  0.00  0.00    +0.000 C 
ENDROOT
BRANCH   1   4
ATOM      4  C   UNL     1       2.487   7.152  19.142  0.00  0.00    +0.000 C 
BRANCH   4  14
ATOM      5  C   UNL     1       0.714  11.453  20.296  0.00  0.00    +0.000 A 
ATOM      6  N   UNL     1       0.393  11.058  21.556  0.00  0.00    +0.000 NA
ATOM      7  C   UNL     1       0.534   9.762  21.863  0.00  0.00    +0.000 A 
ATOM      8 CL   UNL     1       0.225   9.360  23.513  0.00  0.00    +0.000 Cl
ATOM      9  N   UNL     1       0.965   8.743  21.112  0.00  0.00    +0.000 NA
ATOM     10  C   UNL     1       1.267   9.176  19.872  0.00  0.00    +0.000 A 
ATOM     11  C   UNL     1       1.192  10.468  19.404  0.00  0.00    +0.000 A 
ATOM     12  N   UNL     1       1.645  10.526  18.104  0.00  0.00    +0.000 NA
ATOM     13  C   UNL     1       2.047   9.307  17.830  0.00  0.00    +0.000 A 
ATOM     14  N   UNL     1       1.839   8.431  18.861  0.00  0.00    +0.000 N 
BRANCH   5  16
ATOM     15  C   UNL     1       1.731  13.666  20.065  0.00  0.00    +0.000 C 
ATOM     16  N   UNL     1       0.599  12.780  19.908  0.00  0.00    +0.000 N 
ATOM     17  H   UNL     1       0.034  12.893  19.069  0.00  0.00    +0.000 HD
ENDBRANCH   5  16
ENDBRANCH   4  14
ENDBRANCH   1   4
BRANCH   2  18
ATOM     18  C   UNL     1       3.370   4.583  19.924  0.00  0.00    +0.000 C 
BRANCH  18  19
ATOM     19  O   UNL     1       3.049   3.348  20.705  0.00  0.00    +0.000 OA
BRANCH  19  20
ATOM     20  P   UNL     1       1.444   3.063  20.125  0.00  0.00    +0.000 P 
ATOM     21  O   UNL     1       1.841   1.718  19.523  0.00  0.00    +0.000 OA
BRANCH  20  22
ATOM     22  O   UNL     1       0.922   2.654  21.613  0.00  0.00    +0.000 OA
ATOM     23  H   UNL     1       0.113   2.126  21.526  0.00  0.00    +0.000 HD
ENDBRANCH  20  22
BRANCH  20  24
ATOM     24  O   UNL     1      -0.161   2.779  19.544  0.00  0.00    +0.000 OA
ATOM     25  H   UNL     1      -0.473   3.656  19.249  0.00  0.00    +0.000 HD
ENDBRANCH  20  24
ENDBRANCH  19  20
ENDBRANCH  18  19
ENDBRANCH   2  18
BRANCH   3  26
ATOM     26  C   UNL     1       4.788   6.962  17.274  0.00  0.00    +0.000 C 
BRANCH  26  27
ATOM     27  O   UNL     1       5.823   6.784  16.366  0.00  0.00    +0.000 OA
BRANCH  27  28
ATOM     28  P   UNL     1       6.900   5.476  16.719  0.00  0.00    +0.000 P 
ATOM     29  O   UNL     1       7.485   5.499  15.308  0.00  0.00    +0.000 OA
BRANCH  28  30
ATOM     30  O   UNL     1       7.849   6.478  17.575  0.00  0.00    +0.000 OA
ATOM     31  H   UNL     1       7.384   7.324  17.711  0.00  0.00    +0.000 HD
ENDBRANCH  28  30
BRANCH  28  32
ATOM     32  O   UNL     1       7.976   4.169  17.073  0.00  0.00    +0.000 OA
ATOM     33  H   UNL     1       8.112   3.740  16.204  0.00  0.00    +0.000 HD
ENDBRANCH  28  32
ENDBRANCH  27  28
ENDBRANCH  26  27
ENDBRANCH   3  26
TORSDOF 13
ENDMDL
MODEL 2
REMARK VINA RESULT:      -7.2      1.188      1.414
REMARK  Name = 
REMARK  14 active torsions:
REMARK  status: ('A' for Active; 'I' for Inactive)
REMARK    1  A    between atoms: C_1  and  N_2
REMARK    2  A    between atoms: N_2  and  C_3
REMARK    3  A    between atoms: N_12  and  C_13
REMARK    4  A    between atoms: C_13  and  C_14
REMARK    5  A    between atoms: C_15  and  C_16
REMARK    6  A    between atoms: C_16  and  O_17
REMARK    7  A    between atoms: O_17  and  P_18
REMARK    8  A    between atoms: P_18  and  O_20
REMARK    9  A    between atoms: P_18  and  O_21
REMARK   10  A    between atoms: C_22  and  C_23
REMARK   11  A    between atoms: C_23  and  O_24
REMARK   12  A    between atoms: O_24  and  P_25
REMARK   13  A    between atoms: P_25  and  O_27
REMARK   14  A    between atoms: P_25  and  O_28
REMARK                            x       y       z     vdW  Elec       q    Type
REMARK                         _______ _______ _______ _____ _____    ______ ____
ROOT
ATOM      1  C   UNL     1       3.256   5.559  17.842  0.00  0.00    +0.000 C 
ATOM      2  C   UNL     1       4.101   4.318  18.314  0.00  0.00    +0.000 C 
ATOM      3  C   UNL     1       4.653   5.425  17.315  0.00  0.00    +0.000 C 
ENDROOT
BRANCH   1   4
ATOM      4  C   UNL     1       2.921   6.623  18.899  0.00  0.00    +0.000 C 
BRANCH   4  14
ATOM      5  C   UNL     1       0.967  10.925  19.704  0.00  0.00    +0.000 A 
ATOM      6  N   UNL     1       0.718  10.642  21.010  0.00  0.00    +0.000 NA
ATOM      7  C   UNL     1       0.940   9.392  21.435  0.00  0.00    +0.000 A 
ATOM      8 CL   UNL     1       0.718   9.142  23.129  0.00  0.00    +0.000 Cl
ATOM      9  N   UNL     1       1.394   8.326  20.769  0.00  0.00    +0.000 NA
ATOM     10  C   UNL     1       1.624   8.647  19.480  0.00  0.00    +0.000 A 
ATOM     11  C   UNL     1       1.461   9.881  18.892  0.00  0.00    +0.000 A 
ATOM     12  N   UNL     1       1.858   9.830  17.573  0.00  0.00    +0.000 NA
ATOM     13  C   UNL     1       2.314   8.611  17.403  0.00  0.00    +0.000 A 
ATOM     14  N   UNL     1       2.194   7.834  18.523  0.00  0.00    +0.000 N 
BRANCH   5  16
ATOM     15  C   UNL     1      -0.511  12.532  18.599  0.00  0.00    +0.000 C 
ATOM     16  N   UNL     1       0.765  12.199  19.194  0.00  0.00    +0.000 N 
ATOM     17  H   UNL     1       1.217  12.919  19.755  0.00  0.00    +0.000 HD
ENDBRANCH   5  16
ENDBRANCH   4  14
ENDBRANCH   1   4
BRANCH   2  18
ATOM     18  C   UNL     1       3.957   4.155  19.808  0.00  0.00    +0.000 C 
BRANCH  18  19
ATOM     19  O   UNL     1       3.598   2.902  20.541  0.00  0.00    +0.000 OA
BRANCH  19  20
ATOM     20  P   UNL     1       1.875   2.991  20.415  0.00  0.00    +0.000 P 
ATOM     21  O   UNL     1       1.822   1.759  19.517  0.00  0.00    +0.000 OA
BRANCH  20  22
ATOM     22  O   UNL     1       1.681   2.361  21.905  0.00  0.00    +0.000 OA
ATOM     23  H   UNL     1       2.471   2.560  22.433  0.00  0.00    +0.000 HD
ENDBRANCH  20  22
BRANCH  20  24
ATOM     24  O   UNL     1       0.152   3.081  20.289  0.00  0.00    +0.000 OA
ATOM     25  H   UNL     1      -0.019   3.146  19.330  0.00  0.00    +0.000 HD
ENDBRANCH  20  24
ENDBRANCH  19  20
ENDBRANCH  18  19
ENDBRANCH   2  18
BRANCH   3  26
ATOM     26  C   UNL     1       5.457   6.691  17.356  0.00  0.00    +0.000 C 
BRANCH  26  27
ATOM     27  O   UNL     1       6.826   6.471  17.441  0.00  0.00    +0.000 OA
BRANCH  27  28
ATOM     28  P   UNL     1       7.393   5.927  18.983  0.00  0.00    +0.000 P 
ATOM     29  O   UNL     1       8.065   4.700  18.369  0.00  0.00    +0.000 OA
BRANCH  28  30
ATOM     30  O   UNL     1       8.543   7.074  18.973  0.00  0.00    +0.000 OA
ATOM     31  H   UNL     1       8.760   7.320  19.892  0.00  0.00    +0.000 HD
ENDBRANCH  28  30
BRANCH  28  32
ATOM     32  O   UNL     1       7.960   5.385  20.524  0.00  0.00    +0.000 OA
ATOM     33  H   UNL     1       7.508   4.526  20.648  0.00  0.00    +0.000 HD
ENDBRANCH  28  32
ENDBRANCH  27  28
ENDBRANCH  26  27
ENDBRANCH   3  26
TORSDOF 13
ENDMDL
MODEL 3
REMARK VINA RESULT:      -7.2      1.097      1.646
REMARK  Name = 
REMARK  14 active torsions:
REMARK  status: ('A' for Active; 'I' for Inactive)
REMARK    1  A    between atoms: C_1  and  N_2
REMARK    2  A    between atoms: N_2  and  C_3
REMARK    3  A    between atoms: N_12  and  C_13
REMARK    4  A    between atoms: C_13  and  C_14
REMARK    5  A    between atoms: C_15  and  C_16
REMARK    6  A    between atoms: C_16  and  O_17
REMARK    7  A    between atoms: O_17  and  P_18
REMARK    8  A    between atoms: P_18  and  O_20
REMARK    9  A    between atoms: P_18  and  O_21
REMARK   10  A    between atoms: C_22  and  C_23
REMARK   11  A    between atoms: C_23  and  O_24
REMARK   12  A    between atoms: O_24  and  P_25
REMARK   13  A    between atoms: P_25  and  O_27
REMARK   14  A    between atoms: P_25  and  O_28
REMARK                            x       y       z     vdW  Elec       q    Type
REMARK                         _______ _______ _______ _____ _____    ______ ____
ROOT
ATOM      1  C   UNL     1       2.308   6.256  17.929  0.00  0.00    +0.000 C 
ATOM      2  C   UNL     1       2.045   4.747  18.288  0.00  0.00    +0.000 C 
ATOM      3  C   UNL     1       3.457   5.300  17.812  0.00  0.00    +0.000 C 
ENDROOT
BRANCH   1   4
ATOM      4  C   UNL     1       2.256   7.272  19.081  0.00  0.00    +0.000 C 
BRANCH   4  14
ATOM      5  C   UNL     1       0.787  11.626  20.445  0.00  0.00    +0.000 A 
ATOM      6  N   UNL     1       0.408  11.187  21.675  0.00  0.00    +0.000 NA
ATOM      7  C   UNL     1       0.444   9.869  21.910  0.00  0.00    +0.000 A 
ATOM      8 CL   UNL     1       0.067   9.401  23.528  0.00  0.00    +0.000 Cl
ATOM      9  N   UNL     1       0.813   8.863  21.110  0.00  0.00    +0.000 NA
ATOM     10  C   UNL     1       1.176   9.340  19.902  0.00  0.00    +0.000 A 
ATOM     11  C   UNL     1       1.209  10.658  19.508  0.00  0.00    +0.000 A 
ATOM     12  N   UNL     1       1.694  10.753  18.221  0.00  0.00    +0.000 NA
ATOM     13  C   UNL     1       2.009   9.524  17.886  0.00  0.00    +0.000 A 
ATOM     14  N   UNL     1       1.712   8.611  18.861  0.00  0.00    +0.000 N 
BRANCH   5  16
ATOM     15  C   UNL     1       1.990  13.752  20.308  0.00  0.00    +0.000 C 
ATOM     16  N   UNL     1       0.781  12.977  20.133  0.00  0.00    +0.000 N 
ATOM     17  H   UNL     1       0.211  13.185  19.315  0.00  0.00    +0.000 HD
ENDBRANCH   5  16
ENDBRANCH   4  14
ENDBRANCH   1   4
BRANCH   2  18
ATOM     18  C   UNL     1       1.271   4.670  19.583  0.00  0.00    +0.000 C 
BRANCH  18  19
ATOM     19  O   UNL     1       0.596   3.462  20.151  0.00  0.00    +0.000 OA
BRANCH  19  20
ATOM     20  P   UNL     1       1.900   2.836  21.099  0.00  0.00    +0.000 P 
ATOM     21  O   UNL     1       2.318   4.234  21.548  0.00  0.00    +0.000 OA
BRANCH  20  22
ATOM     22  O   UNL     1       0.883   2.365  22.282  0.00  0.00    +0.000 OA
ATOM     23  H   UNL     1       0.486   1.516  22.033  0.00  0.00    +0.000 HD
ENDBRANCH  20  22
BRANCH  20  24
ATOM     24  O   UNL     1       3.205   2.209  22.048  0.00  0.00    +0.000 OA
ATOM     25  H   UNL     1       2.771   1.809  22.825  0.00  0.00    +0.000 HD
ENDBRANCH  20  24
ENDBRANCH  19  20
ENDBRANCH  18  19
ENDBRANCH   2  18
BRANCH   3  26
ATOM     26  C   UNL     1       4.742   5.795  18.408  0.00  0.00    +0.000 C 
BRANCH  26  27
ATOM     27  O   UNL     1       5.742   6.002  17.466  0.00  0.00    +0.000 OA
BRANCH  27  28
ATOM     28  P   UNL     1       7.123   4.972  17.615  0.00  0.00    +0.000 P 
ATOM     29  O   UNL     1       6.755   4.587  19.046  0.00  0.00    +0.000 OA
BRANCH  28  30
ATOM     30  O   UNL     1       6.399   3.853  16.687  0.00  0.00    +0.000 OA
ATOM     31  H   UNL     1       5.767   4.292  16.088  0.00  0.00    +0.000 HD
ENDBRANCH  28  30
BRANCH  28  32
ATOM     32  O   UNL     1       8.505   3.941  17.763  0.00  0.00    +0.000 OA
ATOM     33  H   UNL     1       9.235   4.561  17.964  0.00  0.00    +0.000 HD
ENDBRANCH  28  32
ENDBRANCH  27  28
ENDBRANCH  26  27
ENDBRANCH   3  26
TORSDOF 13
ENDMDL
MODEL 4
REMARK VINA RESULT:      -7.1      1.264      1.796
REMARK  Name = 
REMARK  14 active torsions:
REMARK  status: ('A' for Active; 'I' for Inactive)
REMARK    1  A    between atoms: C_1  and  N_2
REMARK    2  A    between atoms: N_2  and  C_3
REMARK    3  A    between atoms: N_12  and  C_13
REMARK    4  A    between atoms: C_13  and  C_14
REMARK    5  A    between atoms: C_15  and  C_16
REMARK    6  A    between atoms: C_16  and  O_17
REMARK    7  A    between atoms: O_17  and  P_18
REMARK    8  A    between atoms: P_18  and  O_20
REMARK    9  A    between atoms: P_18  and  O_21
REMARK   10  A    between atoms: C_22  and  C_23
REMARK   11  A    between atoms: C_23  and  O_24
REMARK   12  A    between atoms: O_24  and  P_25
REMARK   13  A    between atoms: P_25  and  O_27
REMARK   14  A    between atoms: P_25  and  O_28
REMARK                            x       y       z     vdW  Elec       q    Type
REMARK                         _______ _______ _______ _____ _____    ______ ____
ROOT
ATOM      1  C   UNL     1       2.383   6.516  17.807  0.00  0.00    +0.000 C 
ATOM      2  C   UNL     1       2.457   4.980  18.139  0.00  0.00    +0.000 C 
ATOM      3  C   UNL     1       3.651   5.789  17.473  0.00  0.00    +0.000 C 
ENDROOT
BRANCH   1   4
ATOM      4  C   UNL     1       2.335   7.489  18.995  0.00  0.00    +0.000 C 
BRANCH   4  14
ATOM      5  C   UNL     1       0.680  11.700  20.577  0.00  0.00    +0.000 A 
ATOM      6  N   UNL     1       0.340  11.188  21.790  0.00  0.00    +0.000 NA
ATOM      7  C   UNL     1       0.441   9.864  21.962  0.00  0.00    +0.000 A 
ATOM      8 CL   UNL     1       0.110   9.305  23.561  0.00  0.00    +0.000 Cl
ATOM      9  N   UNL     1       0.846   8.915  21.112  0.00  0.00    +0.000 NA
ATOM     10  C   UNL     1       1.169   9.463  19.924  0.00  0.00    +0.000 A 
ATOM     11  C   UNL     1       1.134  10.798  19.591  0.00  0.00    +0.000 A 
ATOM     12  N   UNL     1       1.597  10.975  18.305  0.00  0.00    +0.000 NA
ATOM     13  C   UNL     1       1.965   9.779  17.909  0.00  0.00    +0.000 A 
ATOM     14  N   UNL     1       1.725   8.809  18.844  0.00  0.00    +0.000 N 
BRANCH   5  16
ATOM     15  C   UNL     1       1.798  13.873  20.447  0.00  0.00    +0.000 C 
ATOM     16  N   UNL     1       0.605  13.063  20.328  0.00  0.00    +0.000 N 
ATOM     17  H   UNL     1      -0.031  13.285  19.565  0.00  0.00    +0.000 HD
ENDBRANCH   5  16
ENDBRANCH   4  14
ENDBRANCH   1   4
BRANCH   2  18
ATOM     18  C   UNL     1       1.928   4.744  19.534  0.00  0.00    +0.000 C 
BRANCH  18  19
ATOM     19  O   UNL     1       2.190   3.554  20.401  0.00  0.00    +0.000 OA
BRANCH  19  20
ATOM     20  P   UNL     1       3.192   2.642  19.326  0.00  0.00    +0.000 P 
ATOM     21  O   UNL     1       4.044   2.116  20.478  0.00  0.00    +0.000 OA
BRANCH  20  22
ATOM     22  O   UNL     1       2.054   1.487  19.162  0.00  0.00    +0.000 OA
ATOM     23  H   UNL     1       2.475   0.618  19.259  0.00  0.00    +0.000 HD
ENDBRANCH  20  22
BRANCH  20  24
ATOM     24  O   UNL     1       4.194   1.730  18.250  0.00  0.00    +0.000 OA
ATOM     25  H   UNL     1       4.910   1.385  18.817  0.00  0.00    +0.000 HD
ENDBRANCH  20  24
ENDBRANCH  19  20
ENDBRANCH  18  19
ENDBRANCH   2  18
BRANCH   3  26
ATOM     26  C   UNL     1       4.905   6.505  17.881  0.00  0.00    +0.000 C 
BRANCH  26  27
ATOM     27  O   UNL     1       6.065   5.843  17.500  0.00  0.00    +0.000 OA
BRANCH  27  28
ATOM     28  P   UNL     1       7.236   5.620  18.754  0.00  0.00    +0.000 P 
ATOM     29  O   UNL     1       6.175   5.130  19.738  0.00  0.00    +0.000 OA
BRANCH  28  30
ATOM     30  O   UNL     1       7.774   4.273  18.024  0.00  0.00    +0.000 OA
ATOM     31  H   UNL     1       7.266   3.506  18.349  0.00  0.00    +0.000 HD
ENDBRANCH  28  30
BRANCH  28  32
ATOM     32  O   UNL     1       8.407   5.396  20.008  0.00  0.00    +0.000 OA
ATOM     33  H   UNL     1       7.873   5.410  20.827  0.00  0.00    +0.000 HD
ENDBRANCH  28  32
ENDBRANCH  27  28
ENDBRANCH  26  27
ENDBRANCH   3  26
TORSDOF 13
ENDMDL
MODEL 5
REMARK VINA RESULT:      -7.1      0.967      1.537
REMARK  Name = 
REMARK  14 active torsions:
REMARK  status: ('A' for Active; 'I' for Inactive)
REMARK    1  A    between atoms: C_1  and  N_2
REMARK    2  A    between atoms: N_2  and  C_3
REMARK    3  A    between atoms: N_12  and  C_13
REMARK    4  A    between atoms: C_13  and  C_14
REMARK    5  A    between atoms: C_15  and  C_16
REMARK    6  A    between atoms: C_16  and  O_17
REMARK    7  A    between atoms: O_17  and  P_18
REMARK    8  A    between atoms: P_18  and  O_20
REMARK    9  A    between atoms: P_18  and  O_21
REMARK   10  A    between atoms: C_22  and  C_23
REMARK   11  A    between atoms: C_23  and  O_24
REMARK   12  A    between atoms: O_24  and  P_25
REMARK   13  A    between atoms: P_25  and  O_27
REMARK   14  A    between atoms: P_25  and  O_28
REMARK                            x       y       z     vdW  Elec       q    Type
REMARK                         _______ _______ _______ _____ _____    ______ ____
ROOT
ATOM      1  C   UNL     1       3.021   5.918  17.885  0.00  0.00    +0.000 C 
ATOM      2  C   UNL     1       2.557   4.428  18.081  0.00  0.00    +0.000 C 
ATOM      3  C   UNL     1       4.079   4.882  18.114  0.00  0.00    +0.000 C 
ENDROOT
BRANCH   1   4
ATOM      4  C   UNL     1       2.658   6.918  18.994  0.00  0.00    +0.000 C 
BRANCH   4  14
ATOM      5  C   UNL     1       0.965  11.294  19.972  0.00  0.00    +0.000 A 
ATOM      6  N   UNL     1       0.630  10.954  21.245  0.00  0.00    +0.000 NA
ATOM      7  C   UNL     1       0.744   9.668  21.601  0.00  0.00    +0.000 A 
ATOM      8 CL   UNL     1       0.417   9.336  23.263  0.00  0.00    +0.000 Cl
ATOM      9  N   UNL     1       1.157   8.613  20.893  0.00  0.00    +0.000 NA
ATOM     10  C   UNL     1       1.475   8.992  19.638  0.00  0.00    +0.000 A 
ATOM     11  C   UNL     1       1.428  10.267  19.121  0.00  0.00    +0.000 A 
ATOM     12  N   UNL     1       1.889  10.266  17.823  0.00  0.00    +0.000 NA
ATOM     13  C   UNL     1       2.268   9.029  17.598  0.00  0.00    +0.000 A 
ATOM     14  N   UNL     1       2.037   8.198  18.660  0.00  0.00    +0.000 N 
BRANCH   5  16
ATOM     15  C   UNL     1       2.059  13.444  19.560  0.00  0.00    +0.000 C 
ATOM     16  N   UNL     1       0.879  12.608  19.534  0.00  0.00    +0.000 N 
ATOM     17  H   UNL     1       0.254  12.712  18.737  0.00  0.00    +0.000 HD
ENDBRANCH   5  16
ENDBRANCH   4  14
ENDBRANCH   1   4
BRANCH   2  18
ATOM     18  C   UNL     1       1.397   4.389  19.047  0.00  0.00    +0.000 C 
BRANCH  18  19
ATOM     19  O   UNL     1       0.757   3.168  19.629  0.00  0.00    +0.000 OA
BRANCH  19  20
ATOM     20  P   UNL     1       1.918   2.805  20.858  0.00  0.00    +0.000 P 
ATOM     21  O   UNL     1       2.127   4.283  21.174  0.00  0.00    +0.000 OA
BRANCH  20  22
ATOM     22  O   UNL     1       0.749   2.372  21.908  0.00  0.00    +0.000 OA
ATOM     23  H   UNL     1       1.101   1.692  22.503  0.00  0.00    +0.000 HD
ENDBRANCH  20  22
BRANCH  20  24
ATOM     24  O   UNL     1       3.080   2.441  22.087  0.00  0.00    +0.000 OA
ATOM     25  H   UNL     1       2.662   2.744  22.916  0.00  0.00    +0.000 HD
ENDBRANCH  20  24
ENDBRANCH  19  20
ENDBRANCH  18  19
ENDBRANCH   2  18
BRANCH   3  26
ATOM     26  C   UNL     1       5.126   5.272  19.116  0.00  0.00    +0.000 C 
BRANCH  26  27
ATOM     27  O   UNL     1       6.225   5.903  18.546  0.00  0.00    +0.000 OA
BRANCH  27  28
ATOM     28  P   UNL     1       6.805   5.196  17.077  0.00  0.00    +0.000 P 
ATOM     29  O   UNL     1       7.597   6.451  16.717  0.00  0.00    +0.000 OA
BRANCH  28  30
ATOM     30  O   UNL     1       7.846   4.278  17.920  0.00  0.00    +0.000 OA
ATOM     31  H   UNL     1       7.816   4.539  18.859  0.00  0.00    +0.000 HD
ENDBRANCH  28  30
BRANCH  28  32
ATOM     32  O   UNL     1       7.384   4.488  15.609  0.00  0.00    +0.000 OA
ATOM     33  H   UNL     1       6.981   3.597  15.608  0.00  0.00    +0.000 HD
ENDBRANCH  28  32
ENDBRANCH  27  28
ENDBRANCH  26  27
ENDBRANCH   3  26
TORSDOF 13
ENDMDL
MODEL 6
REMARK VINA RESULT:      -7.0      1.155      1.814
REMARK  Name = 
REMARK  14 active torsions:
REMARK  status: ('A' for Active; 'I' for Inactive)
REMARK    1  A    between atoms: C_1  and  N_2
REMARK    2  A    between atoms: N_2  and  C_3
REMARK    3  A    between atoms: N_12  and  C_13
REMARK    4  A    between atoms: C_13  and  C_14
REMARK    5  A    between atoms: C_15  and  C_16
REMARK    6  A    between atoms: C_16  and  O_17
REMARK    7  A    between atoms: O_17  and  P_18
REMARK    8  A    between atoms: P_18  and  O_20
REMARK    9  A    between atoms: P_18  and  O_21
REMARK   10  A    between atoms: C_22  and  C_23
REMARK   11  A    between atoms: C_23  and  O_24
REMARK   12  A    between atoms: O_24  and  P_25
REMARK   13  A    between atoms: P_25  and  O_27
REMARK   14  A    between atoms: P_25  and  O_28
REMARK                            x       y       z     vdW  Elec       q    Type
REMARK                         _______ _______ _______ _____ _____    ______ ____
ROOT
ATOM      1  C   UNL     1       3.245   6.402  17.894  0.00  0.00    +0.000 C 
ATOM      2  C   UNL     1       2.807   4.917  17.609  0.00  0.00    +0.000 C 
ATOM      3  C   UNL     1       4.236   5.314  18.180  0.00  0.00    +0.000 C 
ENDROOT
BRANCH   1   4
ATOM      4  C   UNL     1       2.539   7.133  19.046  0.00  0.00    +0.000 C 
BRANCH   4  14
ATOM      5  C   UNL     1       0.727  11.382  20.328  0.00  0.00    +0.000 A 
ATOM      6  N   UNL     1       0.452  10.959  21.591  0.00  0.00    +0.000 NA
ATOM      7  C   UNL     1       0.624   9.661  21.870  0.00  0.00    +0.000 A 
ATOM      8 CL   UNL     1       0.372   9.225  23.521  0.00  0.00    +0.000 Cl
ATOM      9  N   UNL     1       1.049   8.663  21.089  0.00  0.00    +0.000 NA
ATOM     10  C   UNL     1       1.306   9.123  19.847  0.00  0.00    +0.000 A 
ATOM     11  C   UNL     1       1.194  10.421  19.405  0.00  0.00    +0.000 A 
ATOM     12  N   UNL     1       1.606  10.509  18.093  0.00  0.00    +0.000 NA
ATOM     13  C   UNL     1       2.021   9.302  17.786  0.00  0.00    +0.000 A 
ATOM     14  N   UNL     1       1.860   8.405  18.807  0.00  0.00    +0.000 N 
BRANCH   5  16
ATOM     15  C   UNL     1      -0.599  13.121  19.232  0.00  0.00    +0.000 C 
ATOM     16  N   UNL     1       0.577  12.713  19.968  0.00  0.00    +0.000 N 
ATOM     17  H   UNL     1       0.920  13.351  20.683  0.00  0.00    +0.000 HD
ENDBRANCH   5  16
ENDBRANCH   4  14
ENDBRANCH   1   4
BRANCH   2  18
ATOM     18  C   UNL     1       1.422   4.690  18.167  0.00  0.00    +0.000 C 
BRANCH  18  19
ATOM     19  O   UNL     1       1.048   3.772  19.287  0.00  0.00    +0.000 OA
BRANCH  19  20
ATOM     20  P   UNL     1       2.112   2.455  18.935  0.00  0.00    +0.000 P 
ATOM     21  O   UNL     1       2.385   2.208  20.416  0.00  0.00    +0.000 OA
BRANCH  20  22
ATOM     22  O   UNL     1       0.861   1.458  18.626  0.00  0.00    +0.000 OA
ATOM     23  H   UNL     1       0.819   1.296  17.671  0.00  0.00    +0.000 HD
ENDBRANCH  20  22
BRANCH  20  24
ATOM     24  O   UNL     1       3.177   1.138  18.582  0.00  0.00    +0.000 OA
ATOM     25  H   UNL     1       3.748   1.471  17.864  0.00  0.00    +0.000 HD
ENDBRANCH  20  24
ENDBRANCH  19  20
ENDBRANCH  18  19
ENDBRANCH   2  18
BRANCH   3  26
ATOM     26  C   UNL     1       4.935   5.441  19.502  0.00  0.00    +0.000 C 
BRANCH  26  27
ATOM     27  O   UNL     1       6.312   5.274  19.414  0.00  0.00    +0.000 OA
BRANCH  27  28
ATOM     28  P   UNL     1       7.005   5.643  17.872  0.00  0.00    +0.000 P 
ATOM     29  O   UNL     1       7.953   6.676  18.479  0.00  0.00    +0.000 OA
BRANCH  28  30
ATOM     30  O   UNL     1       7.838   4.249  17.904  0.00  0.00    +0.000 OA
ATOM     31  H   UNL     1       8.466   4.268  18.649  0.00  0.00    +0.000 HD
ENDBRANCH  28  30
BRANCH  28  32
ATOM     32  O   UNL     1       7.697   6.011  16.330  0.00  0.00    +0.000 OA
ATOM     33  H   UNL     1       7.899   6.966  16.390  0.00  0.00    +0.000 HD
ENDBRANCH  28  32
ENDBRANCH  27  28
ENDBRANCH  26  27
ENDBRANCH   3  26
TORSDOF 13
ENDMDL
MODEL 7
REMARK VINA RESULT:      -7.0      1.184      1.539
REMARK  Name = 
REMARK  14 active torsions:
REMARK  status: ('A' for Active; 'I' for Inactive)
REMARK    1  A    between atoms: C_1  and  N_2
REMARK    2  A    between atoms: N_2  and  C_3
REMARK    3  A    between atoms: N_12  and  C_13
REMARK    4  A    between atoms: C_13  and  C_14
REMARK    5  A    between atoms: C_15  and  C_16
REMARK    6  A    between atoms: C_16  and  O_17
REMARK    7  A    between atoms: O_17  and  P_18
REMARK    8  A    between atoms: P_18  and  O_20
REMARK    9  A    between atoms: P_18  and  O_21
REMARK   10  A    between atoms: C_22  and  C_23
REMARK   11  A    between atoms: C_23  and  O_24
REMARK   12  A    between atoms: O_24  and  P_25
REMARK   13  A    between atoms: P_25  and  O_27
REMARK   14  A    between atoms: P_25  and  O_28
REMARK                            x       y       z     vdW  Elec       q    Type
REMARK                         _______ _______ _______ _____ _____    ______ ____
ROOT
ATOM      1  C   UNL     1       2.327   6.428  17.780  0.00  0.00    +0.000 C 
ATOM      2  C   UNL     1       2.536   4.903  18.107  0.00  0.00    +0.000 C 
ATOM      3  C   UNL     1       3.620   5.796  17.363  0.00  0.00    +0.000 C 
ENDROOT
BRANCH   1   4
ATOM      4  C   UNL     1       2.285   7.401  18.969  0.00  0.00    +0.000 C 
BRANCH   4  14
ATOM      5  C   UNL     1       0.776  11.681  20.513  0.00  0.00    +0.000 A 
ATOM      6  N   UNL     1       0.399  11.187  21.722  0.00  0.00    +0.000 NA
ATOM      7  C   UNL     1       0.445   9.861  21.901  0.00  0.00    +0.000 A 
ATOM      8 CL   UNL     1       0.068   9.322  23.496  0.00  0.00    +0.000 Cl
ATOM      9  N   UNL     1       0.824   8.893  21.060  0.00  0.00    +0.000 NA
ATOM     10  C   UNL     1       1.185   9.424  19.874  0.00  0.00    +0.000 A 
ATOM     11  C   UNL     1       1.208  10.758  19.536  0.00  0.00    +0.000 A 
ATOM     12  N   UNL     1       1.696  10.911  18.256  0.00  0.00    +0.000 NA
ATOM     13  C   UNL     1       2.022   9.700  17.870  0.00  0.00    +0.000 A 
ATOM     14  N   UNL     1       1.731   8.744  18.805  0.00  0.00    +0.000 N 
BRANCH   5  16
ATOM     15  C   UNL     1      -0.392  13.631  19.607  0.00  0.00    +0.000 C 
ATOM     16  N   UNL     1       0.759  13.045  20.258  0.00  0.00    +0.000 N 
ATOM     17  H   UNL     1       1.197  13.585  21.001  0.00  0.00    +0.000 HD
ENDBRANCH   5  16
ENDBRANCH   4  14
ENDBRANCH   1   4
BRANCH   2  18
ATOM     18  C   UNL     1       2.120   4.637  19.534  0.00  0.00    +0.000 C 
BRANCH  18  19
ATOM     19  O   UNL     1       3.014   4.260  20.672  0.00  0.00    +0.000 OA
BRANCH  19  20
ATOM     20  P   UNL     1       1.915   3.276  21.575  0.00  0.00    +0.000 P 
ATOM     21  O   UNL     1       1.346   2.650  20.305  0.00  0.00    +0.000 OA
BRANCH  20  22
ATOM     22  O   UNL     1       3.101   2.238  21.989  0.00  0.00    +0.000 OA
ATOM     23  H   UNL     1       2.869   1.354  21.664  0.00  0.00    +0.000 HD
ENDBRANCH  20  22
BRANCH  20  24
ATOM     24  O   UNL     1       0.815   2.292  22.479  0.00  0.00    +0.000 OA
ATOM     25  H   UNL     1       1.039   1.377  22.222  0.00  0.00    +0.000 HD
ENDBRANCH  20  24
ENDBRANCH  19  20
ENDBRANCH  18  19
ENDBRANCH   2  18
BRANCH   3  26
ATOM     26  C   UNL     1       4.842   6.605  17.688  0.00  0.00    +0.000 C 
BRANCH  26  27
ATOM     27  O   UNL     1       5.609   6.056  18.708  0.00  0.00    +0.000 OA
BRANCH  27  28
ATOM     28  P   UNL     1       6.923   5.057  18.189  0.00  0.00    +0.000 P 
ATOM     29  O   UNL     1       7.760   5.420  19.414  0.00  0.00    +0.000 OA
BRANCH  28  30
ATOM     30  O   UNL     1       6.099   3.729  18.632  0.00  0.00    +0.000 OA
ATOM     31  H   UNL     1       6.723   3.064  18.975  0.00  0.00    +0.000 HD
ENDBRANCH  28  30
BRANCH  28  32
ATOM     32  O   UNL     1       8.236   4.057  17.670  0.00  0.00    +0.000 OA
ATOM     33  H   UNL     1       8.124   4.014  16.699  0.00  0.00    +0.000 HD
ENDBRANCH  28  32
ENDBRANCH  27  28
ENDBRANCH  26  27
ENDBRANCH   3  26
TORSDOF 13
ENDMDL
MODEL 8
REMARK VINA RESULT:      -7.0      1.125      1.646
REMARK  Name = 
REMARK  14 active torsions:
REMARK  status: ('A' for Active; 'I' for Inactive)
REMARK    1  A    between atoms: C_1  and  N_2
REMARK    2  A    between atoms: N_2  and  C_3
REMARK    3  A    between atoms: N_12  and  C_13
REMARK    4  A    between atoms: C_13  and  C_14
REMARK    5  A    between atoms: C_15  and  C_16
REMARK    6  A    between atoms: C_16  and  O_17
REMARK    7  A    between atoms: O_17  and  P_18
REMARK    8  A    between atoms: P_18  and  O_20
REMARK    9  A    between atoms: P_18  and  O_21
REMARK   10  A    between atoms: C_22  and  C_23
REMARK   11  A    between atoms: C_23  and  O_24
REMARK   12  A    between atoms: O_24  and  P_25
REMARK   13  A    between atoms: P_25  and  O_27
REMARK   14  A    between atoms: P_25  and  O_28
REMARK                            x       y       z     vdW  Elec       q    Type
REMARK                         _______ _______ _______ _____ _____    ______ ____
ROOT
ATOM      1  C   UNL     1       2.400   6.419  17.853  0.00  0.00    +0.000 C 
ATOM      2  C   UNL     1       2.419   4.887  18.210  0.00  0.00    +0.000 C 
ATOM      3  C   UNL     1       3.663   5.657  17.590  0.00  0.00    +0.000 C 
ENDROOT
BRANCH   1   4
ATOM      4  C   UNL     1       2.321   7.412  19.024  0.00  0.00    +0.000 C 
BRANCH   4  14
ATOM      5  C   UNL     1       0.696  11.679  20.482  0.00  0.00    +0.000 A 
ATOM      6  N   UNL     1       0.347  11.203  21.707  0.00  0.00    +0.000 NA
ATOM      7  C   UNL     1       0.436   9.884  21.916  0.00  0.00    +0.000 A 
ATOM      8 CL   UNL     1       0.094   9.373  23.529  0.00  0.00    +0.000 Cl
ATOM      9  N   UNL     1       0.837   8.908  21.095  0.00  0.00    +0.000 NA
ATOM     10  C   UNL     1       1.169   9.421  19.893  0.00  0.00    +0.000 A 
ATOM     11  C   UNL     1       1.146  10.746  19.523  0.00  0.00    +0.000 A 
ATOM     12  N   UNL     1       1.615  10.883  18.234  0.00  0.00    +0.000 NA
ATOM     13  C   UNL     1       1.975   9.674  17.873  0.00  0.00    +0.000 A 
ATOM     14  N   UNL     1       1.723   8.732  18.834  0.00  0.00    +0.000 N 
BRANCH   5  16
ATOM     15  C   UNL     1      -0.503  13.555  19.466  0.00  0.00    +0.000 C 
ATOM     16  N   UNL     1       0.634  13.035  20.194  0.00  0.00    +0.000 N 
ATOM     17  H   UNL     1       1.005  13.610  20.947  0.00  0.00    +0.000 HD
ENDBRANCH   5  16
ENDBRANCH   4  14
ENDBRANCH   1   4
BRANCH   2  18
ATOM     18  C   UNL     1       1.819   4.686  19.582  0.00  0.00    +0.000 C 
BRANCH  18  19
ATOM     19  O   UNL     1       1.805   3.419  20.376  0.00  0.00    +0.000 OA
BRANCH  19  20
ATOM     20  P   UNL     1       3.413   2.870  20.051  0.00  0.00    +0.000 P 
ATOM     21  O   UNL     1       3.534   2.235  21.434  0.00  0.00    +0.000 OA
BRANCH  20  22
ATOM     22  O   UNL     1       2.864   1.640  19.134  0.00  0.00    +0.000 OA
ATOM     23  H   UNL     1       3.262   0.814  19.452  0.00  0.00    +0.000 HD
ENDBRANCH  20  22
BRANCH  20  24
ATOM     24  O   UNL     1       5.022   2.322  19.726  0.00  0.00    +0.000 OA
ATOM     25  H   UNL     1       5.507   2.484  20.558  0.00  0.00    +0.000 HD
ENDBRANCH  20  24
ENDBRANCH  19  20
ENDBRANCH  18  19
ENDBRANCH   2  18
BRANCH   3  26
ATOM     26  C   UNL     1       4.915   6.347  18.047  0.00  0.00    +0.000 C 
BRANCH  26  27
ATOM     27  O   UNL     1       5.938   6.309  17.109  0.00  0.00    +0.000 OA
BRANCH  27  28
ATOM     28  P   UNL     1       6.133   4.798  16.288  0.00  0.00    +0.000 P 
ATOM     29  O   UNL     1       7.247   5.355  15.404  0.00  0.00    +0.000 OA
BRANCH  28  30
ATOM     30  O   UNL     1       6.901   4.185  17.581  0.00  0.00    +0.000 OA
ATOM     31  H   UNL     1       6.241   3.879  18.231  0.00  0.00    +0.000 HD
ENDBRANCH  28  30
BRANCH  28  32
ATOM     32  O   UNL     1       6.327   3.288  15.468  0.00  0.00    +0.000 OA
ATOM     33  H   UNL     1       6.570   3.549  14.557  0.00  0.00    +0.000 HD
ENDBRANCH  28  32
ENDBRANCH  27  28
ENDBRANCH  26  27
ENDBRANCH   3  26
TORSDOF 13
ENDMDL
MODEL 9
REMARK VINA RESULT:      -6.9      1.271      1.707
REMARK  Name = 
REMARK  14 active torsions:
REMARK  status: ('A' for Active; 'I' for Inactive)
REMARK    1  A    between atoms: C_1  and  N_2
REMARK    2  A    between atoms: N_2  and  C_3
REMARK    3  A    between atoms: N_12  and  C_13
REMARK    4  A    between atoms: C_13  and  C_14
REMARK    5  A    between atoms: C_15  and  C_16
REMARK    6  A    between atoms: C_16  and  O_17
REMARK    7  A    between atoms: O_17  and  P_18
REMARK    8  A    between atoms: P_18  and  O_20
REMARK    9  A    between atoms: P_18  and  O_21
REMARK   10  A    between atoms: C_22  and  C_23
REMARK   11  A    between atoms: C_23  and  O_24
REMARK   12  A    between atoms: O_24  and  P_25
REMARK   13  A    between atoms: P_25  and  O_27
REMARK   14  A    between atoms: P_25  and  O_28
REMARK                            x       y       z     vdW  Elec       q    Type
REMARK                         _______ _______ _______ _____ _____    ______ ____
ROOT
ATOM      1  C   UNL     1       2.301   6.468  17.864  0.00  0.00    +0.000 C 
ATOM      2  C   UNL     1       2.143   4.957  18.272  0.00  0.00    +0.000 C 
ATOM      3  C   UNL     1       3.472   5.559  17.641  0.00  0.00    +0.000 C 
ENDROOT
BRANCH   1   4
ATOM      4  C   UNL     1       2.326   7.502  19.001  0.00  0.00    +0.000 C 
BRANCH   4  14
ATOM      5  C   UNL     1       0.657  11.746  20.476  0.00  0.00    +0.000 A 
ATOM      6  N   UNL     1       0.312  11.262  21.699  0.00  0.00    +0.000 NA
ATOM      7  C   UNL     1       0.415   9.943  21.903  0.00  0.00    +0.000 A 
ATOM      8 CL   UNL     1       0.077   9.420  23.513  0.00  0.00    +0.000 Cl
ATOM      9  N   UNL     1       0.826   8.974  21.077  0.00  0.00    +0.000 NA
ATOM     10  C   UNL     1       1.154   9.496  19.878  0.00  0.00    +0.000 A 
ATOM     11  C   UNL     1       1.118  10.822  19.513  0.00  0.00    +0.000 A 
ATOM     12  N   UNL     1       1.586  10.970  18.226  0.00  0.00    +0.000 NA
ATOM     13  C   UNL     1       1.958   9.766  17.860  0.00  0.00    +0.000 A 
ATOM     14  N   UNL     1       1.716   8.817  18.816  0.00  0.00    +0.000 N 
BRANCH   5  16
ATOM     15  C   UNL     1      -0.673  13.666  19.746  0.00  0.00    +0.000 C 
ATOM     16  N   UNL     1       0.582  13.103  20.194  0.00  0.00    +0.000 N 
ATOM     17  H   UNL     1       1.140  13.665  20.834  0.00  0.00    +0.000 HD
ENDBRANCH   5  16
ENDBRANCH   4  14
ENDBRANCH   1   4
BRANCH   2  18
ATOM     18  C   UNL     1       1.515   4.872  19.642  0.00  0.00    +0.000 C 
BRANCH  18  19
ATOM     19  O   UNL     1       0.717   3.732  20.192  0.00  0.00    +0.000 OA
BRANCH  19  20
ATOM     20  P   UNL     1       1.960   2.932  21.091  0.00  0.00    +0.000 P 
ATOM     21  O   UNL     1       2.462   4.250  21.675  0.00  0.00    +0.000 OA
BRANCH  20  22
ATOM     22  O   UNL     1       0.893   2.423  22.213  0.00  0.00    +0.000 OA
ATOM     23  H   UNL     1       1.275   2.565  23.093  0.00  0.00    +0.000 HD
ENDBRANCH  20  22
BRANCH  20  24
ATOM     24  O   UNL     1       3.203   2.132  21.990  0.00  0.00    +0.000 OA
ATOM     25  H   UNL     1       2.830   1.253  22.192  0.00  0.00    +0.000 HD
ENDBRANCH  20  24
ENDBRANCH  19  20
ENDBRANCH  18  19
ENDBRANCH   2  18
BRANCH   3  26
ATOM     26  C   UNL     1       4.790   6.118  18.089  0.00  0.00    +0.000 C 
BRANCH  26  27
ATOM     27  O   UNL     1       5.864   5.279  17.821  0.00  0.00    +0.000 OA
BRANCH  27  28
ATOM     28  P   UNL     1       7.189   5.395  18.928  0.00  0.00    +0.000 P 
ATOM     29  O   UNL     1       8.003   4.360  18.154  0.00  0.00    +0.000 OA
BRANCH  28  30
ATOM     30  O   UNL     1       7.615   6.822  18.280  0.00  0.00    +0.000 OA
ATOM     31  H   UNL     1       6.955   7.497  18.526  0.00  0.00    +0.000 HD
ENDBRANCH  28  30
BRANCH  28  32
ATOM     32  O   UNL     1       8.513   5.513  20.034  0.00  0.00    +0.000 OA
ATOM     33  H   UNL     1       8.796   6.446  19.957  0.00  0.00    +0.000 HD
ENDBRANCH  28  32
ENDBRANCH  27  28
ENDBRANCH  26  27
ENDBRANCH   3  26
TORSDOF 13
ENDMDL
