MODEL 1
REMARK VINA RESULT:      -7.8      0.000      0.000
REMARK  Name = 
REMARK  4 active torsions:
REMARK  status: ('A' for Active; 'I' for Inactive)
REMARK    1  A    between atoms: C_2  and  C_20
REMARK    2  A    between atoms: N_3  and  C_4
REMARK    3  A    between atoms: C_9  and  C_10
REMARK    4  A    between atoms: C_10  and  N_11
REMARK                            x       y       z     vdW  Elec       q    Type
REMARK                         _______ _______ _______ _____ _____    ______ ____
ROOT
ATOM      1  C   UNL     1       1.224   9.633  18.071  0.00  0.00    +0.000 A 
ATOM      2  C   UNL     1       1.529  10.778  18.810  0.00  0.00    +0.000 A 
ATOM      3  N   UNL     1       0.641  11.739  19.209  0.00  0.00    +0.000 NA
ATOM      4  C   UNL     1      -0.632  11.455  18.855  0.00  0.00    +0.000 A 
ATOM      5  N   UNL     1      -1.740  12.216  19.147  0.00  0.00    +0.000 N 
ATOM      6  C   UNL     1      -2.879  11.578  18.699  0.00  0.00    +0.000 A 
ATOM      7  C   UNL     1      -2.473  10.413  18.079  0.00  0.00    +0.000 A 
ATOM      8  C   UNL     1      -1.066  10.345  18.149  0.00  0.00    +0.000 A 
ATOM      9  C   UNL     1      -0.105   9.427  17.706  0.00  0.00    +0.000 A 
ATOM     10  H   UNL     1      -1.701  13.097  19.643  0.00  0.00    +0.000 HD
ENDROOT
BRANCH   1  13
ATOM     11  O   UNL     1       2.336   7.434  19.643  0.00  0.00    +0.000 OA
ATOM     12  C   UNL     1       2.575   7.572  18.448  0.00  0.00    +0.000 C 
ATOM     13  N   UNL     1       2.131   8.624  17.681  0.00  0.00    +0.000 N 
ATOM     14  H   UNL     1       2.335   8.581  16.691  0.00  0.00    +0.000 HD
BRANCH  12  15
ATOM     15  C   UNL     1       3.394   6.524  17.751  0.00  0.00    +0.000 A 
ATOM     16  C   UNL     1       4.550   7.002  17.107  0.00  0.00    +0.000 A 
ATOM     17  C   UNL     1       5.439   6.135  16.468  0.00  0.00    +0.000 A 
ATOM     18  C   UNL     1       5.188   4.768  16.462  0.00  0.00    +0.000 A 
ATOM     19  C   UNL     1       4.044   4.273  17.085  0.00  0.00    +0.000 A 
ATOM     20  C   UNL     1       3.146   5.140  17.731  0.00  0.00    +0.000 A 
ATOM     21 BR   UNL     1       1.671   4.278  18.570  0.00  0.00    +0.000 Br
ENDBRANCH  12  15
ENDBRANCH   1  13
BRANCH   6  22
ATOM     22  C   UNL     1      -4.268  12.079  18.925  0.00  0.00    +0.000 C 
BRANCH  22  23
ATOM     23  N   UNL     1      -5.282  11.426  18.086  0.00  0.00    +0.000 NA
ATOM     24  C   UNL     1      -5.743  12.352  17.020  0.00  0.00    +0.000 C 
ATOM     25  C   UNL     1      -6.704  13.460  17.501  0.00  0.00    +0.000 C 
ATOM     26  O   UNL     1      -7.834  12.923  18.196  0.00  0.00    +0.000 OA
ATOM     27  C   UNL     1      -7.428  12.082  19.282  0.00  0.00    +0.000 C 
ATOM     28  C   UNL     1      -6.491  10.961  18.805  0.00  0.00    +0.000 C 
ENDBRANCH  22  23
ENDBRANCH   6  22
TORSDOF 4
ENDMDL
MODEL 2
REMARK VINA RESULT:      -7.4      8.133     10.057
REMARK  Name = 
REMARK  4 active torsions:
REMARK  status: ('A' for Active; 'I' for Inactive)
REMARK    1  A    between atoms: C_2  and  C_20
REMARK    2  A    between atoms: N_3  and  C_4
REMARK    3  A    between atoms: C_9  and  C_10
REMARK    4  A    between atoms: C_10  and  N_11
REMARK                            x       y       z     vdW  Elec       q    Type
REMARK                         _______ _______ _______ _____ _____    ______ ____
ROOT
ATOM      1  C   UNL     1       7.990   8.113  18.169  0.00  0.00    +0.000 A 
ATOM      2  C   UNL     1       8.526   7.097  18.963  0.00  0.00    +0.000 A 
ATOM      3  N   UNL     1       7.952   5.880  19.209  0.00  0.00    +0.000 NA
ATOM      4  C   UNL     1       6.785   5.709  18.548  0.00  0.00    +0.000 A 
ATOM      5  N   UNL     1       6.002   4.578  18.574  0.00  0.00    +0.000 N 
ATOM      6  C   UNL     1       4.929   4.731  17.718  0.00  0.00    +0.000 A 
ATOM      7  C   UNL     1       5.021   5.998  17.176  0.00  0.00    +0.000 A 
ATOM      8  C   UNL     1       6.165   6.624  17.714  0.00  0.00    +0.000 A 
ATOM      9  C   UNL     1       6.763   7.880  17.552  0.00  0.00    +0.000 A 
ATOM     10  H   UNL     1       6.216   3.758  19.126  0.00  0.00    +0.000 HD
ENDROOT
BRANCH   1  13
ATOM     11  O   UNL     1       8.994  10.143  20.018  0.00  0.00    +0.000 OA
ATOM     12  C   UNL     1       9.103  10.253  18.801  0.00  0.00    +0.000 C 
ATOM     13  N   UNL     1       8.591   9.360  17.889  0.00  0.00    +0.000 N 
ATOM     14  H   UNL     1       8.815   9.526  16.917  0.00  0.00    +0.000 HD
BRANCH  12  15
ATOM     15  C   UNL     1       9.859  11.426  18.248  0.00  0.00    +0.000 A 
ATOM     16  C   UNL     1      11.260  11.329  18.336  0.00  0.00    +0.000 A 
ATOM     17  C   UNL     1      12.094  12.317  17.809  0.00  0.00    +0.000 A 
ATOM     18  C   UNL     1      11.540  13.425  17.179  0.00  0.00    +0.000 A 
ATOM     19  C   UNL     1      10.155  13.549  17.088  0.00  0.00    +0.000 A 
ATOM     20  C   UNL     1       9.310  12.557  17.616  0.00  0.00    +0.000 A 
ATOM     21 BR   UNL     1       7.452  12.870  17.350  0.00  0.00    +0.000 Br
ENDBRANCH  12  15
ENDBRANCH   1  13
BRANCH   6  22
ATOM     22  C   UNL     1       3.922   3.665  17.432  0.00  0.00    +0.000 C 
BRANCH  22  23
ATOM     23  N   UNL     1       3.631   2.796  18.581  0.00  0.00    +0.000 NA
ATOM     24  C   UNL     1       2.423   1.974  18.312  0.00  0.00    +0.000 C 
ATOM     25  C   UNL     1       1.087   2.740  18.419  0.00  0.00    +0.000 C 
ATOM     26  O   UNL     1       0.950   3.402  19.681  0.00  0.00    +0.000 OA
ATOM     27  C   UNL     1       2.064   4.264  19.942  0.00  0.00    +0.000 C 
ATOM     28  C   UNL     1       3.396   3.502  19.861  0.00  0.00    +0.000 C 
ENDBRANCH  22  23
ENDBRANCH   6  22
TORSDOF 4
ENDMDL
MODEL 3
REMARK VINA RESULT:      -7.4      4.404      9.611
REMARK  Name = 
REMARK  4 active torsions:
REMARK  status: ('A' for Active; 'I' for Inactive)
REMARK    1  A    between atoms: C_2  and  C_20
REMARK    2  A    between atoms: N_3  and  C_4
REMARK    3  A    between atoms: C_9  and  C_10
REMARK    4  A    between atoms: C_10  and  N_11
REMARK                            x       y       z     vdW  Elec       q    Type
REMARK                         _______ _______ _______ _____ _____    ______ ____
ROOT
ATOM      1  C   UNL     1       0.551   9.910  19.734  0.00  0.00    +0.000 A 
ATOM      2  C   UNL     1       0.980  10.176  18.432  0.00  0.00    +0.000 A 
ATOM      3  N   UNL     1       1.847   9.412  17.698  0.00  0.00    +0.000 NA
ATOM      4  C   UNL     1       2.239   8.295  18.349  0.00  0.00    +0.000 A 
ATOM      5  N   UNL     1       3.077   7.325  17.852  0.00  0.00    +0.000 N 
ATOM      6  C   UNL     1       3.191   6.292  18.761  0.00  0.00    +0.000 A 
ATOM      7  C   UNL     1       2.440   6.641  19.866  0.00  0.00    +0.000 A 
ATOM      8  C   UNL     1       1.866   7.906  19.625  0.00  0.00    +0.000 A 
ATOM      9  C   UNL     1       1.031   8.759  20.357  0.00  0.00    +0.000 A 
ATOM     10  H   UNL     1       3.512   7.371  16.940  0.00  0.00    +0.000 HD
ENDROOT
BRANCH   1  13
ATOM     11  O   UNL     1       1.055  12.170  21.519  0.00  0.00    +0.000 OA
ATOM     12  C   UNL     1      -0.078  11.775  21.265  0.00  0.00    +0.000 C 
ATOM     13  N   UNL     1      -0.365  10.678  20.485  0.00  0.00    +0.000 N 
ATOM     14  H   UNL     1      -1.342  10.503  20.291  0.00  0.00    +0.000 HD
BRANCH  12  15
ATOM     15  C   UNL     1      -1.248  12.536  21.818  0.00  0.00    +0.000 A 
ATOM     16  C   UNL     1      -1.943  11.889  22.857  0.00  0.00    +0.000 A 
ATOM     17  C   UNL     1      -3.016  12.501  23.508  0.00  0.00    +0.000 A 
ATOM     18  C   UNL     1      -3.415  13.778  23.132  0.00  0.00    +0.000 A 
ATOM     19  C   UNL     1      -2.749  14.435  22.099  0.00  0.00    +0.000 A 
ATOM     20  C   UNL     1      -1.667  13.825  21.441  0.00  0.00    +0.000 A 
ATOM     21 BR   UNL     1      -0.849  14.893  20.095  0.00  0.00    +0.000 Br
ENDBRANCH  12  15
ENDBRANCH   1  13
BRANCH   6  22
ATOM     22  C   UNL     1       3.954   5.031  18.512  0.00  0.00    +0.000 C 
BRANCH  22  23
ATOM     23  N   UNL     1       3.353   4.162  17.491  0.00  0.00    +0.000 NA
ATOM     24  C   UNL     1       1.886   4.054  17.704  0.00  0.00    +0.000 C 
ATOM     25  C   UNL     1       1.472   3.141  18.876  0.00  0.00    +0.000 C 
ATOM     26  O   UNL     1       2.041   1.831  18.761  0.00  0.00    +0.000 OA
ATOM     27  C   UNL     1       3.466   1.891  18.630  0.00  0.00    +0.000 C 
ATOM     28  C   UNL     1       3.885   2.780  17.449  0.00  0.00    +0.000 C 
ENDBRANCH  22  23
ENDBRANCH   6  22
TORSDOF 4
ENDMDL
MODEL 4
REMARK VINA RESULT:      -7.4      4.508     10.054
REMARK  Name = 
REMARK  4 active torsions:
REMARK  status: ('A' for Active; 'I' for Inactive)
REMARK    1  A    between atoms: C_2  and  C_20
REMARK    2  A    between atoms: N_3  and  C_4
REMARK    3  A    between atoms: C_9  and  C_10
REMARK    4  A    between atoms: C_10  and  N_11
REMARK                            x       y       z     vdW  Elec       q    Type
REMARK                         _______ _______ _______ _____ _____    ______ ____
ROOT
ATOM      1  C   UNL     1       0.801   9.716  20.122  0.00  0.00    +0.000 A 
ATOM      2  C   UNL     1       0.895   8.721  21.097  0.00  0.00    +0.000 A 
ATOM      3  N   UNL     1       1.526   7.514  20.957  0.00  0.00    +0.000 NA
ATOM      4  C   UNL     1       2.125   7.374  19.754  0.00  0.00    +0.000 A 
ATOM      5  N   UNL     1       2.860   6.287  19.342  0.00  0.00    +0.000 N 
ATOM      6  C   UNL     1       3.388   6.525  18.089  0.00  0.00    +0.000 A 
ATOM      7  C   UNL     1       2.943   7.771  17.692  0.00  0.00    +0.000 A 
ATOM      8  C   UNL     1       2.129   8.294  18.719  0.00  0.00    +0.000 A 
ATOM      9  C   UNL     1       1.411   9.483  18.891  0.00  0.00    +0.000 A 
ATOM     10  H   UNL     1       3.000   5.457  19.903  0.00  0.00    +0.000 HD
ENDROOT
BRANCH   1  13
ATOM     11  O   UNL     1       1.866  12.191  21.259  0.00  0.00    +0.000 OA
ATOM     12  C   UNL     1       0.749  12.127  20.758  0.00  0.00    +0.000 C 
ATOM     13  N   UNL     1       0.177  10.974  20.269  0.00  0.00    +0.000 N 
ATOM     14  H   UNL     1      -0.720  11.071  19.813  0.00  0.00    +0.000 HD
BRANCH  12  15
ATOM     15  C   UNL     1      -0.063  13.385  20.643  0.00  0.00    +0.000 A 
ATOM     16  C   UNL     1       0.275  14.216  19.560  0.00  0.00    +0.000 A 
ATOM     17  C   UNL     1      -0.434  15.389  19.293  0.00  0.00    +0.000 A 
ATOM     18  C   UNL     1      -1.499  15.754  20.107  0.00  0.00    +0.000 A 
ATOM     19  C   UNL     1      -1.846  14.952  21.192  0.00  0.00    +0.000 A 
ATOM     20  C   UNL     1      -1.138  13.769  21.466  0.00  0.00    +0.000 A 
ATOM     21 BR   UNL     1      -1.789  12.777  22.954  0.00  0.00    +0.000 Br
ENDBRANCH  12  15
ENDBRANCH   1  13
BRANCH   6  22
ATOM     22  C   UNL     1       4.311   5.593  17.373  0.00  0.00    +0.000 C 
BRANCH  22  23
ATOM     23  N   UNL     1       5.416   6.265  16.676  0.00  0.00    +0.000 NA
ATOM     24  C   UNL     1       5.797   5.504  15.459  0.00  0.00    +0.000 C 
ATOM     25  C   UNL     1       6.610   4.221  15.730  0.00  0.00    +0.000 C 
ATOM     26  O   UNL     1       7.775   4.482  16.521  0.00  0.00    +0.000 OA
ATOM     27  C   UNL     1       7.438   5.150  17.742  0.00  0.00    +0.000 C 
ATOM     28  C   UNL     1       6.650   6.443  17.477  0.00  0.00    +0.000 C 
ENDBRANCH  22  23
ENDBRANCH   6  22
TORSDOF 4
ENDMDL
MODEL 5
REMARK VINA RESULT:      -7.4      4.567      9.684
REMARK  Name = 
REMARK  4 active torsions:
REMARK  status: ('A' for Active; 'I' for Inactive)
REMARK    1  A    between atoms: C_2  and  C_20
REMARK    2  A    between atoms: N_3  and  C_4
REMARK    3  A    between atoms: C_9  and  C_10
REMARK    4  A    between atoms: C_10  and  N_11
REMARK                            x       y       z     vdW  Elec       q    Type
REMARK                         _______ _______ _______ _____ _____    ______ ____
ROOT
ATOM      1  C   UNL     1       0.179  10.404  20.229  0.00  0.00    +0.000 A 
ATOM      2  C   UNL     1       0.639  10.682  18.940  0.00  0.00    +0.000 A 
ATOM      3  N   UNL     1       1.483   9.899  18.201  0.00  0.00    +0.000 NA
ATOM      4  C   UNL     1       1.816   8.750  18.829  0.00  0.00    +0.000 A 
ATOM      5  N   UNL     1       2.618   7.756  18.319  0.00  0.00    +0.000 N 
ATOM      6  C   UNL     1       2.672   6.697  19.203  0.00  0.00    +0.000 A 
ATOM      7  C   UNL     1       1.920   7.052  20.306  0.00  0.00    +0.000 A 
ATOM      8  C   UNL     1       1.405   8.347  20.089  0.00  0.00    +0.000 A 
ATOM      9  C   UNL     1       0.597   9.218  20.829  0.00  0.00    +0.000 A 
ATOM     10  H   UNL     1       3.069   7.805  17.415  0.00  0.00    +0.000 HD
ENDROOT
BRANCH   1  13
ATOM     11  O   UNL     1      -0.021  10.710  23.130  0.00  0.00    +0.000 OA
ATOM     12  C   UNL     1      -0.724  11.347  22.353  0.00  0.00    +0.000 C 
ATOM     13  N   UNL     1      -0.714  11.193  20.986  0.00  0.00    +0.000 N 
ATOM     14  H   UNL     1      -1.288  11.833  20.454  0.00  0.00    +0.000 HD
BRANCH  12  15
ATOM     15  C   UNL     1      -1.655  12.386  22.910  0.00  0.00    +0.000 A 
ATOM     16  C   UNL     1      -2.834  11.882  23.487  0.00  0.00    +0.000 A 
ATOM     17  C   UNL     1      -3.765  12.725  24.097  0.00  0.00    +0.000 A 
ATOM     18  C   UNL     1      -3.532  14.094  24.143  0.00  0.00    +0.000 A 
ATOM     19  C   UNL     1      -2.376  14.618  23.569  0.00  0.00    +0.000 A 
ATOM     20  C   UNL     1      -1.434  13.775  22.955  0.00  0.00    +0.000 A 
ATOM     21 BR   UNL     1       0.107  14.662  22.276  0.00  0.00    +0.000 Br
ENDBRANCH  12  15
ENDBRANCH   1  13
BRANCH   6  22
ATOM     22  C   UNL     1       3.383   5.411  18.934  0.00  0.00    +0.000 C 
BRANCH  22  23
ATOM     23  N   UNL     1       3.006   4.775  17.663  0.00  0.00    +0.000 NA
ATOM     24  C   UNL     1       1.598   4.307  17.719  0.00  0.00    +0.000 C 
ATOM     25  C   UNL     1       1.379   3.023  18.546  0.00  0.00    +0.000 C 
ATOM     26  O   UNL     1       2.227   1.954  18.109  0.00  0.00    +0.000 OA
ATOM     27  C   UNL     1       3.604   2.346  18.115  0.00  0.00    +0.000 C 
ATOM     28  C   UNL     1       3.833   3.611  17.273  0.00  0.00    +0.000 C 
ENDBRANCH  22  23
ENDBRANCH   6  22
TORSDOF 4
ENDMDL
MODEL 6
REMARK VINA RESULT:      -7.4      0.963      1.349
REMARK  Name = 
REMARK  4 active torsions:
REMARK  status: ('A' for Active; 'I' for Inactive)
REMARK    1  A    between atoms: C_2  and  C_20
REMARK    2  A    between atoms: N_3  and  C_4
REMARK    3  A    between atoms: C_9  and  C_10
REMARK    4  A    between atoms: C_10  and  N_11
REMARK                            x       y       z     vdW  Elec       q    Type
REMARK                         _______ _______ _______ _____ _____    ______ ____
ROOT
ATOM      1  C   UNL     1       1.000   9.604  18.126  0.00  0.00    +0.000 A 
ATOM      2  C   UNL     1       1.224  10.686  18.980  0.00  0.00    +0.000 A 
ATOM      3  N   UNL     1       0.295  11.614  19.365  0.00  0.00    +0.000 NA
ATOM      4  C   UNL     1      -0.935  11.361  18.866  0.00  0.00    +0.000 A 
ATOM      5  N   UNL     1      -2.071  12.099  19.107  0.00  0.00    +0.000 N 
ATOM      6  C   UNL     1      -3.157  11.500  18.500  0.00  0.00    +0.000 A 
ATOM      7  C   UNL     1      -2.685  10.387  17.833  0.00  0.00    +0.000 A 
ATOM      8  C   UNL     1      -1.291  10.311  18.035  0.00  0.00    +0.000 A 
ATOM      9  C   UNL     1      -0.286   9.430  17.617  0.00  0.00    +0.000 A 
ATOM     10  H   UNL     1      -2.087  12.937  19.672  0.00  0.00    +0.000 HD
ENDROOT
BRANCH   1  13
ATOM     11  O   UNL     1       2.175   7.451  19.716  0.00  0.00    +0.000 OA
ATOM     12  C   UNL     1       2.421   7.594  18.524  0.00  0.00    +0.000 C 
ATOM     13  N   UNL     1       1.946   8.627  17.748  0.00  0.00    +0.000 N 
ATOM     14  H   UNL     1       2.162   8.589  16.761  0.00  0.00    +0.000 HD
BRANCH  12  15
ATOM     15  C   UNL     1       3.284   6.575  17.838  0.00  0.00    +0.000 A 
ATOM     16  C   UNL     1       4.432   7.092  17.209  0.00  0.00    +0.000 A 
ATOM     17  C   UNL     1       5.358   6.256  16.583  0.00  0.00    +0.000 A 
ATOM     18  C   UNL     1       5.154   4.881  16.574  0.00  0.00    +0.000 A 
ATOM     19  C   UNL     1       4.019   4.347  17.181  0.00  0.00    +0.000 A 
ATOM     20  C   UNL     1       3.083   5.183  17.815  0.00  0.00    +0.000 A 
ATOM     21 BR   UNL     1       1.627   4.271  18.633  0.00  0.00    +0.000 Br
ENDBRANCH  12  15
ENDBRANCH   1  13
BRANCH   6  22
ATOM     22  C   UNL     1      -4.564  11.984  18.627  0.00  0.00    +0.000 C 
BRANCH  22  23
ATOM     23  N   UNL     1      -4.962  12.307  20.004  0.00  0.00    +0.000 NA
ATOM     24  C   UNL     1      -6.283  11.701  20.315  0.00  0.00    +0.000 C 
ATOM     25  C   UNL     1      -7.489  12.428  19.685  0.00  0.00    +0.000 C 
ATOM     26  O   UNL     1      -7.507  13.821  20.016  0.00  0.00    +0.000 OA
ATOM     27  C   UNL     1      -6.274  14.458  19.660  0.00  0.00    +0.000 C 
ATOM     28  C   UNL     1      -5.070  13.753  20.305  0.00  0.00    +0.000 C 
ENDBRANCH  22  23
ENDBRANCH   6  22
TORSDOF 4
ENDMDL
MODEL 7
REMARK VINA RESULT:      -7.3      4.702      9.944
REMARK  Name = 
REMARK  4 active torsions:
REMARK  status: ('A' for Active; 'I' for Inactive)
REMARK    1  A    between atoms: C_2  and  C_20
REMARK    2  A    between atoms: N_3  and  C_4
REMARK    3  A    between atoms: C_9  and  C_10
REMARK    4  A    between atoms: C_10  and  N_11
REMARK                            x       y       z     vdW  Elec       q    Type
REMARK                         _______ _______ _______ _____ _____    ______ ____
ROOT
ATOM      1  C   UNL     1       0.144  10.227  20.433  0.00  0.00    +0.000 A 
ATOM      2  C   UNL     1       0.666  10.444  19.156  0.00  0.00    +0.000 A 
ATOM      3  N   UNL     1       1.509   9.606  18.478  0.00  0.00    +0.000 NA
ATOM      4  C   UNL     1       1.773   8.468  19.158  0.00  0.00    +0.000 A 
ATOM      5  N   UNL     1       2.557   7.428  18.715  0.00  0.00    +0.000 N 
ATOM      6  C   UNL     1       2.536   6.399  19.636  0.00  0.00    +0.000 A 
ATOM      7  C   UNL     1       1.754   6.819  20.694  0.00  0.00    +0.000 A 
ATOM      8  C   UNL     1       1.297   8.124  20.412  0.00  0.00    +0.000 A 
ATOM      9  C   UNL     1       0.493   9.049  21.089  0.00  0.00    +0.000 A 
ATOM     10  H   UNL     1       3.046   7.430  17.830  0.00  0.00    +0.000 HD
ENDROOT
BRANCH   1  13
ATOM     11  O   UNL     1      -0.176  10.626  23.312  0.00  0.00    +0.000 OA
ATOM     12  C   UNL     1      -0.814  11.269  22.486  0.00  0.00    +0.000 C 
ATOM     13  N   UNL     1      -0.749  11.074  21.125  0.00  0.00    +0.000 N 
ATOM     14  H   UNL     1      -1.270  11.721  20.549  0.00  0.00    +0.000 HD
BRANCH  12  15
ATOM     15  C   UNL     1      -1.725  12.360  22.970  0.00  0.00    +0.000 A 
ATOM     16  C   UNL     1      -2.924  11.919  23.559  0.00  0.00    +0.000 A 
ATOM     17  C   UNL     1      -3.840  12.819  24.108  0.00  0.00    +0.000 A 
ATOM     18  C   UNL     1      -3.572  14.182  24.078  0.00  0.00    +0.000 A 
ATOM     19  C   UNL     1      -2.397  14.644  23.491  0.00  0.00    +0.000 A 
ATOM     20  C   UNL     1      -1.469  13.743  22.938  0.00  0.00    +0.000 A 
ATOM     21 BR   UNL     1       0.101  14.552  22.229  0.00  0.00    +0.000 Br
ENDBRANCH  12  15
ENDBRANCH   1  13
BRANCH   6  22
ATOM     22  C   UNL     1       3.208   5.080  19.439  0.00  0.00    +0.000 C 
BRANCH  22  23
ATOM     23  N   UNL     1       2.362   3.924  19.769  0.00  0.00    +0.000 NA
ATOM     24  C   UNL     1       3.178   2.849  20.390  0.00  0.00    +0.000 C 
ATOM     25  C   UNL     1       4.058   2.055  19.402  0.00  0.00    +0.000 C 
ATOM     26  O   UNL     1       3.292   1.516  18.318  0.00  0.00    +0.000 OA
ATOM     27  C   UNL     1       2.548   2.539  17.645  0.00  0.00    +0.000 C 
ATOM     28  C   UNL     1       1.651   3.316  18.620  0.00  0.00    +0.000 C 
ENDBRANCH  22  23
ENDBRANCH   6  22
TORSDOF 4
ENDMDL
MODEL 8
REMARK VINA RESULT:      -7.3      4.390     10.147
REMARK  Name = 
REMARK  4 active torsions:
REMARK  status: ('A' for Active; 'I' for Inactive)
REMARK    1  A    between atoms: C_2  and  C_20
REMARK    2  A    between atoms: N_3  and  C_4
REMARK    3  A    between atoms: C_9  and  C_10
REMARK    4  A    between atoms: C_10  and  N_11
REMARK                            x       y       z     vdW  Elec       q    Type
REMARK                         _______ _______ _______ _____ _____    ______ ____
ROOT
ATOM      1  C   UNL     1       0.842   9.963  19.731  0.00  0.00    +0.000 A 
ATOM      2  C   UNL     1       0.879   9.021  20.761  0.00  0.00    +0.000 A 
ATOM      3  N   UNL     1       1.490   7.797  20.711  0.00  0.00    +0.000 NA
ATOM      4  C   UNL     1       2.131   7.580  19.542  0.00  0.00    +0.000 A 
ATOM      5  N   UNL     1       2.858   6.458  19.217  0.00  0.00    +0.000 N 
ATOM      6  C   UNL     1       3.438   6.618  17.975  0.00  0.00    +0.000 A 
ATOM      7  C   UNL     1       3.033   7.848  17.494  0.00  0.00    +0.000 A 
ATOM      8  C   UNL     1       2.192   8.441  18.459  0.00  0.00    +0.000 A 
ATOM      9  C   UNL     1       1.492   9.651  18.538  0.00  0.00    +0.000 A 
ATOM     10  H   UNL     1       2.960   5.658  19.828  0.00  0.00    +0.000 HD
ENDROOT
BRANCH   1  13
ATOM     11  O   UNL     1       1.575  12.291  21.341  0.00  0.00    +0.000 OA
ATOM     12  C   UNL     1       0.665  12.322  20.519  0.00  0.00    +0.000 C 
ATOM     13  N   UNL     1       0.239  11.238  19.785  0.00  0.00    +0.000 N 
ATOM     14  H   UNL     1      -0.471  11.414  19.087  0.00  0.00    +0.000 HD
BRANCH  12  15
ATOM     15  C   UNL     1      -0.037  13.625  20.268  0.00  0.00    +0.000 A 
ATOM     16  C   UNL     1      -1.280  13.767  20.912  0.00  0.00    +0.000 A 
ATOM     17  C   UNL     1      -2.018  14.949  20.819  0.00  0.00    +0.000 A 
ATOM     18  C   UNL     1      -1.524  16.016  20.078  0.00  0.00    +0.000 A 
ATOM     19  C   UNL     1      -0.300  15.896  19.423  0.00  0.00    +0.000 A 
ATOM     20  C   UNL     1       0.449  14.709  19.514  0.00  0.00    +0.000 A 
ATOM     21 BR   UNL     1       2.117  14.749  18.599  0.00  0.00    +0.000 Br
ENDBRANCH  12  15
ENDBRANCH   1  13
BRANCH   6  22
ATOM     22  C   UNL     1       4.367   5.631  17.346  0.00  0.00    +0.000 C 
BRANCH  22  23
ATOM     23  N   UNL     1       5.499   6.244  16.639  0.00  0.00    +0.000 NA
ATOM     24  C   UNL     1       5.872   5.426  15.455  0.00  0.00    +0.000 C 
ATOM     25  C   UNL     1       6.643   4.131  15.786  0.00  0.00    +0.000 C 
ATOM     26  O   UNL     1       7.807   4.389  16.580  0.00  0.00    +0.000 OA
ATOM     27  C   UNL     1       7.475   5.113  17.771  0.00  0.00    +0.000 C 
ATOM     28  C   UNL     1       6.728   6.416  17.448  0.00  0.00    +0.000 C 
ENDBRANCH  22  23
ENDBRANCH   6  22
TORSDOF 4
ENDMDL
MODEL 9
REMARK VINA RESULT:      -7.3      4.975      9.557
REMARK  Name = 
REMARK  4 active torsions:
REMARK  status: ('A' for Active; 'I' for Inactive)
REMARK    1  A    between atoms: C_2  and  C_20
REMARK    2  A    between atoms: N_3  and  C_4
REMARK    3  A    between atoms: C_9  and  C_10
REMARK    4  A    between atoms: C_10  and  N_11
REMARK                            x       y       z     vdW  Elec       q    Type
REMARK                         _______ _______ _______ _____ _____    ______ ____
ROOT
ATOM      1  C   UNL     1       1.035  10.732  19.816  0.00  0.00    +0.000 A 
ATOM      2  C   UNL     1       0.847  10.157  21.074  0.00  0.00    +0.000 A 
ATOM      3  N   UNL     1       1.082   8.850  21.405  0.00  0.00    +0.000 NA
ATOM      4  C   UNL     1       1.583   8.132  20.375  0.00  0.00    +0.000 A 
ATOM      5  N   UNL     1       1.946   6.806  20.418  0.00  0.00    +0.000 N 
ATOM      6  C   UNL     1       2.493   6.430  19.208  0.00  0.00    +0.000 A 
ATOM      7  C   UNL     1       2.434   7.532  18.377  0.00  0.00    +0.000 A 
ATOM      8  C   UNL     1       1.840   8.591  19.094  0.00  0.00    +0.000 A 
ATOM      9  C   UNL     1       1.517   9.920  18.792  0.00  0.00    +0.000 A 
ATOM     10  H   UNL     1       1.844   6.222  21.237  0.00  0.00    +0.000 HD
ENDROOT
BRANCH   1  13
ATOM     11  O   UNL     1       2.153  13.146  21.030  0.00  0.00    +0.000 OA
ATOM     12  C   UNL     1       1.425  13.185  20.044  0.00  0.00    +0.000 C 
ATOM     13  N   UNL     1       0.822  12.086  19.476  0.00  0.00    +0.000 N 
ATOM     14  H   UNL     1       0.306  12.244  18.620  0.00  0.00    +0.000 HD
BRANCH  12  15
ATOM     15  C   UNL     1       1.174  14.510  19.386  0.00  0.00    +0.000 A 
ATOM     16  C   UNL     1      -0.134  15.010  19.530  0.00  0.00    +0.000 A 
ATOM     17  C   UNL     1      -0.497  16.259  19.022  0.00  0.00    +0.000 A 
ATOM     18  C   UNL     1       0.445  17.035  18.358  0.00  0.00    +0.000 A 
ATOM     19  C   UNL     1       1.743  16.558  18.193  0.00  0.00    +0.000 A 
ATOM     20  C   UNL     1       2.116  15.302  18.704  0.00  0.00    +0.000 A 
ATOM     21 BR   UNL     1       3.942  14.841  18.431  0.00  0.00    +0.000 Br
ENDBRANCH  12  15
ENDBRANCH   1  13
BRANCH   6  22
ATOM     22  C   UNL     1       3.075   5.082  18.929  0.00  0.00    +0.000 C 
BRANCH  22  23
ATOM     23  N   UNL     1       2.280   3.967  19.462  0.00  0.00    +0.000 NA
ATOM     24  C   UNL     1       3.116   3.112  20.343  0.00  0.00    +0.000 C 
ATOM     25  C   UNL     1       4.102   2.189  19.596  0.00  0.00    +0.000 C 
ATOM     26  O   UNL     1       3.439   1.376  18.621  0.00  0.00    +0.000 OA
ATOM     27  C   UNL     1       2.681   2.174  17.704  0.00  0.00    +0.000 C 
ATOM     28  C   UNL     1       1.679   3.078  18.441  0.00  0.00    +0.000 C 
ENDBRANCH  22  23
ENDBRANCH   6  22
TORSDOF 4
ENDMDL
