MODEL 1
REMARK VINA RESULT:      -6.7      0.000      0.000
REMARK  Name = 
REMARK  5 active torsions:
REMARK  status: ('A' for Active; 'I' for Inactive)
REMARK    1  A    between atoms: C_1  and  O_2
REMARK    2  A    between atoms: O_2  and  C_3
REMARK    3  A    between atoms: C_10  and  C_11
REMARK    4  A    between atoms: C_11  and  C_12
REMARK    5  A    between atoms: C_16  and  C_17
REMARK                            x       y       z     vdW  Elec       q    Type
REMARK                         _______ _______ _______ _____ _____    ______ ____
ROOT
ATOM      1  C   UNL     1       2.580   4.395  20.672  0.00  0.00    +0.000 A 
ATOM      2  C   UNL     1       1.900   5.620  20.638  0.00  0.00    +0.000 A 
ATOM      3  C   UNL     1       2.215   6.574  19.675  0.00  0.00    +0.000 A 
ATOM      4  C   UNL     1       3.212   6.308  18.739  0.00  0.00    +0.000 A 
ATOM      5  C   UNL     1       3.537   7.303  17.709  0.00  0.00    +0.000 A 
ATOM      6  O   UNL     1       2.965   8.381  17.630  0.00  0.00    +0.000 OA
ATOM      7  C   UNL     1       4.605   6.945  16.767  0.00  0.00    +0.000 A 
ATOM      8  C   UNL     1       5.232   5.766  16.894  0.00  0.00    +0.000 A 
ATOM      9  O   UNL     1       4.927   4.833  17.878  0.00  0.00    +0.000 OA
ATOM     10  C   UNL     1       3.919   5.106  18.776  0.00  0.00    +0.000 A 
ATOM     11  C   UNL     1       3.622   4.136  19.754  0.00  0.00    +0.000 A 
ENDROOT
BRANCH   8  12
ATOM     12  C   UNL     1       6.361   5.376  15.976  0.00  0.00    +0.000 C 
ATOM     13  C   UNL     1       7.441   4.564  16.675  0.00  0.00    +0.000 C 
ATOM     14 BR   UNL     1       5.628   4.340  14.487  0.00  0.00    +0.000 Br
ENDBRANCH   8  12
BRANCH   1  16
ATOM     15  C   UNL     1       1.151   2.640  21.375  0.00  0.00    +0.000 C 
ATOM     16  O   UNL     1       2.320   3.424  21.604  0.00  0.00    +0.000 OA
ENDBRANCH   1  16
BRANCH  11  17
ATOM     17  C   UNL     1       4.381   2.839  19.804  0.00  0.00    +0.000 C 
ATOM     18 BR   UNL     1       3.597   1.566  18.559  0.00  0.00    +0.000 Br
ENDBRANCH  11  17
TORSDOF 3
ENDMDL
MODEL 2
REMARK VINA RESULT:      -6.1      3.527      5.461
REMARK  Name = 
REMARK  5 active torsions:
REMARK  status: ('A' for Active; 'I' for Inactive)
REMARK    1  A    between atoms: C_1  and  O_2
REMARK    2  A    between atoms: O_2  and  C_3
REMARK    3  A    between atoms: C_10  and  C_11
REMARK    4  A    between atoms: C_11  and  C_12
REMARK    5  A    between atoms: C_16  and  C_17
REMARK                            x       y       z     vdW  Elec       q    Type
REMARK                         _______ _______ _______ _____ _____    ______ ____
ROOT
ATOM      1  C   UNL     1       3.546   5.344  18.767  0.00  0.00    +0.000 A 
ATOM      2  C   UNL     1       3.841   6.115  17.634  0.00  0.00    +0.000 A 
ATOM      3  C   UNL     1       3.312   7.394  17.495  0.00  0.00    +0.000 A 
ATOM      4  C   UNL     1       2.485   7.911  18.490  0.00  0.00    +0.000 A 
ATOM      5  C   UNL     1       1.939   9.267  18.358  0.00  0.00    +0.000 A 
ATOM      6  O   UNL     1       2.176   9.984  17.396  0.00  0.00    +0.000 OA
ATOM      7  C   UNL     1       1.070   9.731  19.448  0.00  0.00    +0.000 A 
ATOM      8  C   UNL     1       0.807   8.915  20.479  0.00  0.00    +0.000 A 
ATOM      9  O   UNL     1       1.319   7.627  20.592  0.00  0.00    +0.000 OA
ATOM     10  C   UNL     1       2.157   7.147  19.610  0.00  0.00    +0.000 A 
ATOM     11  C   UNL     1       2.673   5.844  19.757  0.00  0.00    +0.000 A 
ENDROOT
BRANCH   8  12
ATOM     12  C   UNL     1      -0.111   9.334  21.597  0.00  0.00    +0.000 C 
ATOM     13  C   UNL     1       0.561   9.303  22.961  0.00  0.00    +0.000 C 
ATOM     14 BR   UNL     1      -0.759  11.142  21.231  0.00  0.00    +0.000 Br
ENDBRANCH   8  12
BRANCH   1  16
ATOM     15  C   UNL     1       4.131   3.272  17.775  0.00  0.00    +0.000 C 
ATOM     16  O   UNL     1       4.029   4.074  18.950  0.00  0.00    +0.000 OA
ENDBRANCH   1  16
BRANCH  11  17
ATOM     17  C   UNL     1       2.323   5.012  20.960  0.00  0.00    +0.000 C 
ATOM     18 BR   UNL     1       1.015   3.658  20.469  0.00  0.00    +0.000 Br
ENDBRANCH  11  17
TORSDOF 3
ENDMDL
MODEL 3
REMARK VINA RESULT:      -6.1      3.113      4.845
REMARK  Name = 
REMARK  5 active torsions:
REMARK  status: ('A' for Active; 'I' for Inactive)
REMARK    1  A    between atoms: C_1  and  O_2
REMARK    2  A    between atoms: O_2  and  C_3
REMARK    3  A    between atoms: C_10  and  C_11
REMARK    4  A    between atoms: C_11  and  C_12
REMARK    5  A    between atoms: C_16  and  C_17
REMARK                            x       y       z     vdW  Elec       q    Type
REMARK                         _______ _______ _______ _____ _____    ______ ____
ROOT
ATOM      1  C   UNL     1       3.800   4.115  19.069  0.00  0.00    +0.000 A 
ATOM      2  C   UNL     1       4.149   4.695  17.842  0.00  0.00    +0.000 A 
ATOM      3  C   UNL     1       3.728   5.983  17.527  0.00  0.00    +0.000 A 
ATOM      4  C   UNL     1       2.955   6.699  18.437  0.00  0.00    +0.000 A 
ATOM      5  C   UNL     1       2.523   8.066  18.118  0.00  0.00    +0.000 A 
ATOM      6  O   UNL     1       2.810   8.620  17.067  0.00  0.00    +0.000 OA
ATOM      7  C   UNL     1       1.705   8.746  19.130  0.00  0.00    +0.000 A 
ATOM      8  C   UNL     1       1.383   8.105  20.263  0.00  0.00    +0.000 A 
ATOM      9  O   UNL     1       1.787   6.807  20.554  0.00  0.00    +0.000 OA
ATOM     10  C   UNL     1       2.574   6.128  19.651  0.00  0.00    +0.000 A 
ATOM     11  C   UNL     1       2.980   4.818  19.979  0.00  0.00    +0.000 A 
ENDROOT
BRANCH   8  12
ATOM     12  C   UNL     1       0.512   8.749  21.310  0.00  0.00    +0.000 C 
ATOM     13  C   UNL     1       1.293   9.208  22.532  0.00  0.00    +0.000 C 
ATOM     14 BR   UNL     1      -0.401  10.282  20.507  0.00  0.00    +0.000 Br
ENDBRANCH   8  12
BRANCH   1  16
ATOM     15  C   UNL     1       3.735   1.800  18.566  0.00  0.00    +0.000 C 
ATOM     16  O   UNL     1       4.177   2.847  19.428  0.00  0.00    +0.000 OA
ENDBRANCH   1  16
BRANCH  11  17
ATOM     17  C   UNL     1       2.572   4.192  21.283  0.00  0.00    +0.000 C 
ATOM     18 BR   UNL     1       1.115   2.937  20.987  0.00  0.00    +0.000 Br
ENDBRANCH  11  17
TORSDOF 3
ENDMDL
MODEL 4
REMARK VINA RESULT:      -5.8      2.693      6.019
REMARK  Name = 
REMARK  5 active torsions:
REMARK  status: ('A' for Active; 'I' for Inactive)
REMARK    1  A    between atoms: C_1  and  O_2
REMARK    2  A    between atoms: O_2  and  C_3
REMARK    3  A    between atoms: C_10  and  C_11
REMARK    4  A    between atoms: C_11  and  C_12
REMARK    5  A    between atoms: C_16  and  C_17
REMARK                            x       y       z     vdW  Elec       q    Type
REMARK                         _______ _______ _______ _____ _____    ______ ____
ROOT
ATOM      1  C   UNL     1       6.687   5.095  15.251  0.00  0.00    +0.000 A 
ATOM      2  C   UNL     1       6.094   3.894  14.839  0.00  0.00    +0.000 A 
ATOM      3  C   UNL     1       4.935   3.433  15.455  0.00  0.00    +0.000 A 
ATOM      4  C   UNL     1       4.362   4.172  16.488  0.00  0.00    +0.000 A 
ATOM      5  C   UNL     1       3.129   3.700  17.130  0.00  0.00    +0.000 A 
ATOM      6  O   UNL     1       2.566   2.666  16.800  0.00  0.00    +0.000 OA
ATOM      7  C   UNL     1       2.596   4.534  18.216  0.00  0.00    +0.000 A 
ATOM      8  C   UNL     1       3.248   5.649  18.574  0.00  0.00    +0.000 A 
ATOM      9  O   UNL     1       4.421   6.084  17.969  0.00  0.00    +0.000 OA
ATOM     10  C   UNL     1       4.954   5.354  16.931  0.00  0.00    +0.000 A 
ATOM     11  C   UNL     1       6.137   5.826  16.326  0.00  0.00    +0.000 A 
ENDROOT
BRANCH   8  12
ATOM     12  C   UNL     1       2.760   6.513  19.709  0.00  0.00    +0.000 C 
ATOM     13  C   UNL     1       2.080   7.788  19.235  0.00  0.00    +0.000 C 
ATOM     14 BR   UNL     1       1.510   5.471  20.795  0.00  0.00    +0.000 Br
ENDBRANCH   8  12
BRANCH   1  16
ATOM     15  C   UNL     1       8.004   5.336  13.295  0.00  0.00    +0.000 C 
ATOM     16  O   UNL     1       7.835   5.591  14.688  0.00  0.00    +0.000 OA
ENDBRANCH   1  16
BRANCH  11  17
ATOM     17  C   UNL     1       6.785   7.097  16.799  0.00  0.00    +0.000 C 
ATOM     18 BR   UNL     1       7.843   6.747  18.394  0.00  0.00    +0.000 Br
ENDBRANCH  11  17
TORSDOF 3
ENDMDL
MODEL 5
REMARK VINA RESULT:      -5.7      1.788      1.990
REMARK  Name = 
REMARK  5 active torsions:
REMARK  status: ('A' for Active; 'I' for Inactive)
REMARK    1  A    between atoms: C_1  and  O_2
REMARK    2  A    between atoms: O_2  and  C_3
REMARK    3  A    between atoms: C_10  and  C_11
REMARK    4  A    between atoms: C_11  and  C_12
REMARK    5  A    between atoms: C_16  and  C_17
REMARK                            x       y       z     vdW  Elec       q    Type
REMARK                         _______ _______ _______ _____ _____    ______ ____
ROOT
ATOM      1  C   UNL     1       1.946   4.431  19.086  0.00  0.00    +0.000 A 
ATOM      2  C   UNL     1       2.214   5.757  19.454  0.00  0.00    +0.000 A 
ATOM      3  C   UNL     1       3.172   6.498  18.769  0.00  0.00    +0.000 A 
ATOM      4  C   UNL     1       3.867   5.918  17.711  0.00  0.00    +0.000 A 
ATOM      5  C   UNL     1       4.866   6.701  16.972  0.00  0.00    +0.000 A 
ATOM      6  O   UNL     1       5.128   7.863  17.246  0.00  0.00    +0.000 OA
ATOM      7  C   UNL     1       5.558   6.010  15.876  0.00  0.00    +0.000 A 
ATOM      8  C   UNL     1       5.269   4.728  15.614  0.00  0.00    +0.000 A 
ATOM      9  O   UNL     1       4.330   3.989  16.325  0.00  0.00    +0.000 OA
ATOM     10  C   UNL     1       3.634   4.591  17.349  0.00  0.00    +0.000 A 
ATOM     11  C   UNL     1       2.678   3.823  18.043  0.00  0.00    +0.000 A 
ENDROOT
BRANCH   8  12
ATOM     12  C   UNL     1       5.984   3.968  14.527  0.00  0.00    +0.000 C 
ATOM     13  C   UNL     1       5.099   3.679  13.324  0.00  0.00    +0.000 C 
ATOM     14 BR   UNL     1       7.540   5.007  13.957  0.00  0.00    +0.000 Br
ENDBRANCH   8  12
BRANCH   1  16
ATOM     15  C   UNL     1       1.379   3.224  21.045  0.00  0.00    +0.000 C 
ATOM     16  O   UNL     1       1.023   3.651  19.732  0.00  0.00    +0.000 OA
ENDBRANCH   1  16
BRANCH  11  17
ATOM     17  C   UNL     1       2.422   2.391  17.662  0.00  0.00    +0.000 C 
ATOM     18 BR   UNL     1       3.704   1.231  18.553  0.00  0.00    +0.000 Br
ENDBRANCH  11  17
TORSDOF 3
ENDMDL
MODEL 6
REMARK VINA RESULT:      -5.7      2.839      4.324
REMARK  Name = 
REMARK  5 active torsions:
REMARK  status: ('A' for Active; 'I' for Inactive)
REMARK    1  A    between atoms: C_1  and  O_2
REMARK    2  A    between atoms: O_2  and  C_3
REMARK    3  A    between atoms: C_10  and  C_11
REMARK    4  A    between atoms: C_11  and  C_12
REMARK    5  A    between atoms: C_16  and  C_17
REMARK                            x       y       z     vdW  Elec       q    Type
REMARK                         _______ _______ _______ _____ _____    ______ ____
ROOT
ATOM      1  C   UNL     1       3.261   2.994  17.800  0.00  0.00    +0.000 A 
ATOM      2  C   UNL     1       4.345   3.183  16.932  0.00  0.00    +0.000 A 
ATOM      3  C   UNL     1       4.769   4.467  16.603  0.00  0.00    +0.000 A 
ATOM      4  C   UNL     1       4.111   5.570  17.142  0.00  0.00    +0.000 A 
ATOM      5  C   UNL     1       4.565   6.927  16.814  0.00  0.00    +0.000 A 
ATOM      6  O   UNL     1       5.511   7.145  16.071  0.00  0.00    +0.000 OA
ATOM      7  C   UNL     1       3.811   8.033  17.419  0.00  0.00    +0.000 A 
ATOM      8  C   UNL     1       2.761   7.765  18.208  0.00  0.00    +0.000 A 
ATOM      9  O   UNL     1       2.330   6.478  18.506  0.00  0.00    +0.000 OA
ATOM     10  C   UNL     1       3.013   5.402  17.985  0.00  0.00    +0.000 A 
ATOM     11  C   UNL     1       2.563   4.107  18.315  0.00  0.00    +0.000 A 
ENDROOT
BRANCH   8  12
ATOM     12  C   UNL     1       1.934   8.868  18.816  0.00  0.00    +0.000 C 
ATOM     13  C   UNL     1       0.747   9.266  17.953  0.00  0.00    +0.000 C 
ATOM     14 BR   UNL     1       1.298   8.279  20.570  0.00  0.00    +0.000 Br
ENDBRANCH   8  12
BRANCH   1  16
ATOM     15  C   UNL     1       3.693   0.939  18.899  0.00  0.00    +0.000 C 
ATOM     16  O   UNL     1       2.794   1.753  18.149  0.00  0.00    +0.000 OA
ENDBRANCH   1  16
BRANCH  11  17
ATOM     17  C   UNL     1       1.377   3.915  19.220  0.00  0.00    +0.000 C 
ATOM     18 BR   UNL     1       1.963   3.861  21.074  0.00  0.00    +0.000 Br
ENDBRANCH  11  17
TORSDOF 3
ENDMDL
MODEL 7
REMARK VINA RESULT:      -5.7      2.680      5.520
REMARK  Name = 
REMARK  5 active torsions:
REMARK  status: ('A' for Active; 'I' for Inactive)
REMARK    1  A    between atoms: C_1  and  O_2
REMARK    2  A    between atoms: O_2  and  C_3
REMARK    3  A    between atoms: C_10  and  C_11
REMARK    4  A    between atoms: C_11  and  C_12
REMARK    5  A    between atoms: C_16  and  C_17
REMARK                            x       y       z     vdW  Elec       q    Type
REMARK                         _______ _______ _______ _____ _____    ______ ____
ROOT
ATOM      1  C   UNL     1       5.114   4.217  16.615  0.00  0.00    +0.000 A 
ATOM      2  C   UNL     1       4.505   3.075  17.153  0.00  0.00    +0.000 A 
ATOM      3  C   UNL     1       3.496   3.196  18.103  0.00  0.00    +0.000 A 
ATOM      4  C   UNL     1       3.090   4.461  18.521  0.00  0.00    +0.000 A 
ATOM      5  C   UNL     1       2.013   4.596  19.510  0.00  0.00    +0.000 A 
ATOM      6  O   UNL     1       1.442   3.632  20.001  0.00  0.00    +0.000 OA
ATOM      7  C   UNL     1       1.652   5.965  19.902  0.00  0.00    +0.000 A 
ATOM      8  C   UNL     1       2.312   7.002  19.367  0.00  0.00    +0.000 A 
ATOM      9  O   UNL     1       3.338   6.867  18.439  0.00  0.00    +0.000 OA
ATOM     10  C   UNL     1       3.704   5.608  18.019  0.00  0.00    +0.000 A 
ATOM     11  C   UNL     1       4.738   5.500  17.067  0.00  0.00    +0.000 A 
ENDROOT
BRANCH   8  12
ATOM     12  C   UNL     1       2.003   8.421  19.770  0.00  0.00    +0.000 C 
ATOM     13  C   UNL     1       1.394   9.240  18.643  0.00  0.00    +0.000 C 
ATOM     14 BR   UNL     1       0.772   8.386  21.290  0.00  0.00    +0.000 Br
ENDBRANCH   8  12
BRANCH   1  16
ATOM     15  C   UNL     1       5.704   4.064  14.325  0.00  0.00    +0.000 C 
ATOM     16  O   UNL     1       6.120   4.157  15.686  0.00  0.00    +0.000 OA
ENDBRANCH   1  16
BRANCH  11  17
ATOM     17  C   UNL     1       5.409   6.731  16.522  0.00  0.00    +0.000 C 
ATOM     18 BR   UNL     1       7.110   7.010  17.423  0.00  0.00    +0.000 Br
ENDBRANCH  11  17
TORSDOF 3
ENDMDL
MODEL 8
REMARK VINA RESULT:      -5.6      3.247      5.607
REMARK  Name = 
REMARK  5 active torsions:
REMARK  status: ('A' for Active; 'I' for Inactive)
REMARK    1  A    between atoms: C_1  and  O_2
REMARK    2  A    between atoms: O_2  and  C_3
REMARK    3  A    between atoms: C_10  and  C_11
REMARK    4  A    between atoms: C_11  and  C_12
REMARK    5  A    between atoms: C_16  and  C_17
REMARK                            x       y       z     vdW  Elec       q    Type
REMARK                         _______ _______ _______ _____ _____    ______ ____
ROOT
ATOM      1  C   UNL     1       1.092   9.677  19.223  0.00  0.00    +0.000 A 
ATOM      2  C   UNL     1       1.866   9.778  18.058  0.00  0.00    +0.000 A 
ATOM      3  C   UNL     1       2.647   8.707  17.636  0.00  0.00    +0.000 A 
ATOM      4  C   UNL     1       2.658   7.527  18.377  0.00  0.00    +0.000 A 
ATOM      5  C   UNL     1       3.466   6.386  17.927  0.00  0.00    +0.000 A 
ATOM      6  O   UNL     1       4.148   6.420  16.913  0.00  0.00    +0.000 OA
ATOM      7  C   UNL     1       3.427   5.184  18.770  0.00  0.00    +0.000 A 
ATOM      8  C   UNL     1       2.690   5.184  19.890  0.00  0.00    +0.000 A 
ATOM      9  O   UNL     1       1.936   6.272  20.316  0.00  0.00    +0.000 OA
ATOM     10  C   UNL     1       1.918   7.418  19.554  0.00  0.00    +0.000 A 
ATOM     11  C   UNL     1       1.133   8.500  20.002  0.00  0.00    +0.000 A 
ENDROOT
BRANCH   8  12
ATOM     12  C   UNL     1       2.654   3.989  20.806  0.00  0.00    +0.000 C 
ATOM     13  C   UNL     1       1.261   3.396  20.954  0.00  0.00    +0.000 C 
ATOM     14 BR   UNL     1       3.871   2.627  20.105  0.00  0.00    +0.000 Br
ENDBRANCH   8  12
BRANCH   1  16
ATOM     15  C   UNL     1       0.987  11.940  19.920  0.00  0.00    +0.000 C 
ATOM     16  O   UNL     1       0.314  10.704  19.692  0.00  0.00    +0.000 OA
ENDBRANCH   1  16
BRANCH  11  17
ATOM     17  C   UNL     1       0.334   8.394  21.271  0.00  0.00    +0.000 C 
ATOM     18 BR   UNL     1       1.265   9.303  22.717  0.00  0.00    +0.000 Br
ENDBRANCH  11  17
TORSDOF 3
ENDMDL
MODEL 9
REMARK VINA RESULT:      -5.6      2.152      3.194
REMARK  Name = 
REMARK  5 active torsions:
REMARK  status: ('A' for Active; 'I' for Inactive)
REMARK    1  A    between atoms: C_1  and  O_2
REMARK    2  A    between atoms: O_2  and  C_3
REMARK    3  A    between atoms: C_10  and  C_11
REMARK    4  A    between atoms: C_11  and  C_12
REMARK    5  A    between atoms: C_16  and  C_17
REMARK                            x       y       z     vdW  Elec       q    Type
REMARK                         _______ _______ _______ _____ _____    ______ ____
ROOT
ATOM      1  C   UNL     1       3.499   4.916  18.700  0.00  0.00    +0.000 A 
ATOM      2  C   UNL     1       4.449   5.830  19.177  0.00  0.00    +0.000 A 
ATOM      3  C   UNL     1       5.560   6.158  18.405  0.00  0.00    +0.000 A 
ATOM      4  C   UNL     1       5.726   5.575  17.151  0.00  0.00    +0.000 A 
ATOM      5  C   UNL     1       6.886   5.932  16.324  0.00  0.00    +0.000 A 
ATOM      6  O   UNL     1       7.736   6.731  16.690  0.00  0.00    +0.000 OA
ATOM      7  C   UNL     1       6.988   5.266  15.019  0.00  0.00    +0.000 A 
ATOM      8  C   UNL     1       6.055   4.376  14.655  0.00  0.00    +0.000 A 
ATOM      9  O   UNL     1       4.965   4.034  15.448  0.00  0.00    +0.000 OA
ATOM     10  C   UNL     1       4.806   4.644  16.672  0.00  0.00    +0.000 A 
ATOM     11  C   UNL     1       3.684   4.289  17.449  0.00  0.00    +0.000 A 
ENDROOT
BRANCH   8  12
ATOM     12  C   UNL     1       6.142   3.639  13.344  0.00  0.00    +0.000 C 
ATOM     13  C   UNL     1       4.801   3.524  12.636  0.00  0.00    +0.000 C 
ATOM     14 BR   UNL     1       7.413   4.571  12.186  0.00  0.00    +0.000 Br
ENDBRANCH   8  12
BRANCH   1  16
ATOM     15  C   UNL     1       2.165   5.276  20.626  0.00  0.00    +0.000 C 
ATOM     16  O   UNL     1       2.393   4.547  19.421  0.00  0.00    +0.000 OA
ENDBRANCH   1  16
BRANCH  11  17
ATOM     17  C   UNL     1       2.688   3.283  16.942  0.00  0.00    +0.000 C 
ATOM     18 BR   UNL     1       2.738   1.687  18.053  0.00  0.00    +0.000 Br
ENDBRANCH  11  17
TORSDOF 3
ENDMDL
