MODEL 1
REMARK VINA RESULT:      -7.1      0.000      0.000
REMARK  Name = 
REMARK  7 active torsions:
REMARK  status: ('A' for Active; 'I' for Inactive)
REMARK    1  A    between atoms: C_1  and  C_2
REMARK    2  A    between atoms: C_5  and  C_6
REMARK    3  A    between atoms: C_6  and  N_7
REMARK    4  A    between atoms: C_8  and  C_10
REMARK    5  A    between atoms: C_10  and  C_11
REMARK    6  A    between atoms: C_11  and  N_12
REMARK    7  A    between atoms: C_13  and  C_15
REMARK                            x       y       z     vdW  Elec       q    Type
REMARK                         _______ _______ _______ _____ _____    ______ ____
ROOT
ATOM      1  N   UNL     1       4.194   2.954  17.740  0.00  0.00    +0.000 N 
ATOM      2  C   UNL     1       2.819   3.015  17.781  0.00  0.00    +0.000 C 
ATOM      3  O   UNL     1       2.136   3.550  16.913  0.00  0.00    +0.000 OA
ATOM      4  H   UNL     1       4.688   2.411  18.435  0.00  0.00    +0.000 HD
ENDROOT
BRANCH   1   5
ATOM      5  C   UNL     1       4.954   3.475  16.625  0.00  0.00    +0.000 C 
BRANCH   5  10
ATOM      6  C   UNL     1       7.958   8.326  17.821  0.00  0.00    +0.000 C 
ATOM      7  C   UNL     1       7.167   7.081  17.544  0.00  0.00    +0.000 A 
ATOM      8  C   UNL     1       7.573   5.845  18.055  0.00  0.00    +0.000 A 
ATOM      9  C   UNL     1       6.843   4.688  17.773  0.00  0.00    +0.000 A 
ATOM     10  C   UNL     1       5.699   4.739  16.965  0.00  0.00    +0.000 A 
ATOM     11  C   UNL     1       5.279   5.985  16.476  0.00  0.00    +0.000 A 
ATOM     12  C   UNL     1       6.009   7.143  16.758  0.00  0.00    +0.000 A 
ENDBRANCH   5  10
ENDBRANCH   1   5
BRANCH   2  13
ATOM     13  C   UNL     1       2.226   2.440  19.051  0.00  0.00    +0.000 C 
BRANCH  13  14
ATOM     14  C   UNL     1       2.259   3.464  20.178  0.00  0.00    +0.000 C 
BRANCH  14  15
ATOM     15  N   UNL     1       1.957   4.803  19.706  0.00  0.00    +0.000 N 
ATOM     16  C   UNL     1       2.920   5.785  19.584  0.00  0.00    +0.000 C 
ATOM     17  O   UNL     1       4.103   5.577  19.838  0.00  0.00    +0.000 OA
ATOM     18  H   UNL     1       1.008   5.049  19.450  0.00  0.00    +0.000 HD
BRANCH  16  19
ATOM     19  C   UNL     1       2.413   7.065  19.130  0.00  0.00    +0.000 A 
ATOM     20  C   UNL     1       2.386   7.632  17.870  0.00  0.00    +0.000 A 
ATOM     21  C   UNL     1       1.774   8.900  18.004  0.00  0.00    +0.000 A 
ATOM     22  C   UNL     1       1.463   9.034  19.336  0.00  0.00    +0.000 A 
ATOM     23  O   UNL     1       1.843   7.931  20.031  0.00  0.00    +0.000 OA
ENDBRANCH  16  19
ENDBRANCH  14  15
ENDBRANCH  13  14
ENDBRANCH   2  13
TORSDOF 6
ENDMDL
MODEL 2
REMARK VINA RESULT:      -6.8      3.455      6.261
REMARK  Name = 
REMARK  7 active torsions:
REMARK  status: ('A' for Active; 'I' for Inactive)
REMARK    1  A    between atoms: C_1  and  C_2
REMARK    2  A    between atoms: C_5  and  C_6
REMARK    3  A    between atoms: C_6  and  N_7
REMARK    4  A    between atoms: C_8  and  C_10
REMARK    5  A    between atoms: C_10  and  C_11
REMARK    6  A    between atoms: C_11  and  N_12
REMARK    7  A    between atoms: C_13  and  C_15
REMARK                            x       y       z     vdW  Elec       q    Type
REMARK                         _______ _______ _______ _____ _____    ______ ____
ROOT
ATOM      1  N   UNL     1       8.271   8.344  18.327  0.00  0.00    +0.000 N 
ATOM      2  C   UNL     1       7.695   7.226  17.768  0.00  0.00    +0.000 C 
ATOM      3  O   UNL     1       7.149   7.220  16.669  0.00  0.00    +0.000 OA
ATOM      4  H   UNL     1       8.792   8.256  19.189  0.00  0.00    +0.000 HD
ENDROOT
BRANCH   1   5
ATOM      5  C   UNL     1       8.330   9.610  17.629  0.00  0.00    +0.000 C 
BRANCH   5  10
ATOM      6  C   UNL     1      10.607  13.904  20.848  0.00  0.00    +0.000 C 
ATOM      7  C   UNL     1      10.053  12.792  20.005  0.00  0.00    +0.000 A 
ATOM      8  C   UNL     1       9.617  13.033  18.699  0.00  0.00    +0.000 A 
ATOM      9  C   UNL     1       9.082  11.997  17.929  0.00  0.00    +0.000 A 
ATOM     10  C   UNL     1       8.960  10.702  18.452  0.00  0.00    +0.000 A 
ATOM     11  C   UNL     1       9.423  10.459  19.754  0.00  0.00    +0.000 A 
ATOM     12  C   UNL     1       9.959  11.495  20.524  0.00  0.00    +0.000 A 
ENDBRANCH   5  10
ENDBRANCH   1   5
BRANCH   2  13
ATOM     13  C   UNL     1       7.712   6.016  18.679  0.00  0.00    +0.000 C 
BRANCH  13  14
ATOM     14  C   UNL     1       7.521   4.732  17.882  0.00  0.00    +0.000 C 
BRANCH  14  15
ATOM     15  N   UNL     1       6.306   4.033  18.260  0.00  0.00    +0.000 N 
ATOM     16  C   UNL     1       5.139   4.119  17.528  0.00  0.00    +0.000 C 
ATOM     17  O   UNL     1       5.063   4.770  16.489  0.00  0.00    +0.000 OA
ATOM     18  H   UNL     1       6.292   3.453  19.090  0.00  0.00    +0.000 HD
BRANCH  16  19
ATOM     19  C   UNL     1       4.027   3.377  18.088  0.00  0.00    +0.000 A 
ATOM     20  C   UNL     1       3.845   2.831  19.345  0.00  0.00    +0.000 A 
ATOM     21  C   UNL     1       2.572   2.215  19.344  0.00  0.00    +0.000 A 
ATOM     22  C   UNL     1       2.051   2.420  18.089  0.00  0.00    +0.000 A 
ATOM     23  O   UNL     1       2.920   3.122  17.317  0.00  0.00    +0.000 OA
ENDBRANCH  16  19
ENDBRANCH  14  15
ENDBRANCH  13  14
ENDBRANCH   2  13
TORSDOF 6
ENDMDL
MODEL 3
REMARK VINA RESULT:      -6.7      3.411      5.789
REMARK  Name = 
REMARK  7 active torsions:
REMARK  status: ('A' for Active; 'I' for Inactive)
REMARK    1  A    between atoms: C_1  and  C_2
REMARK    2  A    between atoms: C_5  and  C_6
REMARK    3  A    between atoms: C_6  and  N_7
REMARK    4  A    between atoms: C_8  and  C_10
REMARK    5  A    between atoms: C_10  and  C_11
REMARK    6  A    between atoms: C_11  and  N_12
REMARK    7  A    between atoms: C_13  and  C_15
REMARK                            x       y       z     vdW  Elec       q    Type
REMARK                         _______ _______ _______ _____ _____    ______ ____
ROOT
ATOM      1  N   UNL     1       8.319   8.199  18.243  0.00  0.00    +0.000 N 
ATOM      2  C   UNL     1       7.521   7.159  17.821  0.00  0.00    +0.000 C 
ATOM      3  O   UNL     1       6.712   7.254  16.904  0.00  0.00    +0.000 OA
ATOM      4  H   UNL     1       9.036   8.025  18.936  0.00  0.00    +0.000 HD
ENDROOT
BRANCH   1   5
ATOM      5  C   UNL     1       8.308   9.491  17.594  0.00  0.00    +0.000 C 
BRANCH   5  10
ATOM      6  C   UNL     1      10.429  13.772  20.934  0.00  0.00    +0.000 C 
ATOM      7  C   UNL     1       9.915  12.664  20.061  0.00  0.00    +0.000 A 
ATOM      8  C   UNL     1       9.512  12.918  18.747  0.00  0.00    +0.000 A 
ATOM      9  C   UNL     1       9.014  11.885  17.948  0.00  0.00    +0.000 A 
ATOM     10  C   UNL     1       8.898  10.581  18.449  0.00  0.00    +0.000 A 
ATOM     11  C   UNL     1       9.328  10.326  19.759  0.00  0.00    +0.000 A 
ATOM     12  C   UNL     1       9.827  11.358  20.558  0.00  0.00    +0.000 A 
ENDBRANCH   5  10
ENDBRANCH   1   5
BRANCH   2  13
ATOM     13  C   UNL     1       7.667   5.906  18.659  0.00  0.00    +0.000 C 
BRANCH  13  14
ATOM     14  C   UNL     1       7.171   4.683  17.897  0.00  0.00    +0.000 C 
BRANCH  14  15
ATOM     15  N   UNL     1       5.722   4.640  17.821  0.00  0.00    +0.000 N 
ATOM     16  C   UNL     1       4.948   3.968  18.746  0.00  0.00    +0.000 C 
ATOM     17  O   UNL     1       5.437   3.390  19.713  0.00  0.00    +0.000 OA
ATOM     18  H   UNL     1       5.239   5.114  17.067  0.00  0.00    +0.000 HD
BRANCH  16  19
ATOM     19  C   UNL     1       3.524   4.012  18.476  0.00  0.00    +0.000 A 
ATOM     20  C   UNL     1       2.831   4.343  17.328  0.00  0.00    +0.000 A 
ATOM     21  C   UNL     1       1.455   4.215  17.629  0.00  0.00    +0.000 A 
ATOM     22  C   UNL     1       1.387   3.814  18.941  0.00  0.00    +0.000 A 
ATOM     23  O   UNL     1       2.633   3.687  19.469  0.00  0.00    +0.000 OA
ENDBRANCH  16  19
ENDBRANCH  14  15
ENDBRANCH  13  14
ENDBRANCH   2  13
TORSDOF 6
ENDMDL
MODEL 4
REMARK VINA RESULT:      -6.6      3.394      5.926
REMARK  Name = 
REMARK  7 active torsions:
REMARK  status: ('A' for Active; 'I' for Inactive)
REMARK    1  A    between atoms: C_1  and  C_2
REMARK    2  A    between atoms: C_5  and  C_6
REMARK    3  A    between atoms: C_6  and  N_7
REMARK    4  A    between atoms: C_8  and  C_10
REMARK    5  A    between atoms: C_10  and  C_11
REMARK    6  A    between atoms: C_11  and  N_12
REMARK    7  A    between atoms: C_13  and  C_15
REMARK                            x       y       z     vdW  Elec       q    Type
REMARK                         _______ _______ _______ _____ _____    ______ ____
ROOT
ATOM      1  N   UNL     1       8.280   8.160  18.304  0.00  0.00    +0.000 N 
ATOM      2  C   UNL     1       7.567   7.067  17.865  0.00  0.00    +0.000 C 
ATOM      3  O   UNL     1       6.790   7.100  16.915  0.00  0.00    +0.000 OA
ATOM      4  H   UNL     1       8.978   8.041  19.026  0.00  0.00    +0.000 HD
ENDROOT
BRANCH   1   5
ATOM      5  C   UNL     1       8.211   9.442  17.638  0.00  0.00    +0.000 C 
BRANCH   5  10
ATOM      6  C   UNL     1      10.645  13.766  20.698  0.00  0.00    +0.000 C 
ATOM      7  C   UNL     1      10.049  12.647  19.894  0.00  0.00    +0.000 A 
ATOM      8  C   UNL     1       9.533  12.880  18.616  0.00  0.00    +0.000 A 
ATOM      9  C   UNL     1       8.961  11.837  17.884  0.00  0.00    +0.000 A 
ATOM     10  C   UNL     1       8.881  10.543  18.418  0.00  0.00    +0.000 A 
ATOM     11  C   UNL     1       9.424  10.308  19.689  0.00  0.00    +0.000 A 
ATOM     12  C   UNL     1       9.998  11.351  20.422  0.00  0.00    +0.000 A 
ENDBRANCH   5  10
ENDBRANCH   1   5
BRANCH   2  13
ATOM     13  C   UNL     1       7.760   5.834  18.723  0.00  0.00    +0.000 C 
BRANCH  13  14
ATOM     14  C   UNL     1       6.917   4.676  18.205  0.00  0.00    +0.000 C 
BRANCH  14  15
ATOM     15  N   UNL     1       5.750   4.437  19.036  0.00  0.00    +0.000 N 
ATOM     16  C   UNL     1       4.582   3.895  18.540  0.00  0.00    +0.000 C 
ATOM     17  O   UNL     1       4.465   3.549  17.368  0.00  0.00    +0.000 OA
ATOM     18  H   UNL     1       5.773   4.672  20.022  0.00  0.00    +0.000 HD
BRANCH  16  19
ATOM     19  C   UNL     1       3.520   3.770  19.520  0.00  0.00    +0.000 A 
ATOM     20  C   UNL     1       2.877   4.724  20.284  0.00  0.00    +0.000 A 
ATOM     21  C   UNL     1       1.920   4.043  21.072  0.00  0.00    +0.000 A 
ATOM     22  C   UNL     1       2.035   2.713  20.744  0.00  0.00    +0.000 A 
ATOM     23  O   UNL     1       2.999   2.532  19.805  0.00  0.00    +0.000 OA
ENDBRANCH  16  19
ENDBRANCH  14  15
ENDBRANCH  13  14
ENDBRANCH   2  13
TORSDOF 6
ENDMDL
MODEL 5
REMARK VINA RESULT:      -6.6      1.239      1.782
REMARK  Name = 
REMARK  7 active torsions:
REMARK  status: ('A' for Active; 'I' for Inactive)
REMARK    1  A    between atoms: C_1  and  C_2
REMARK    2  A    between atoms: C_5  and  C_6
REMARK    3  A    between atoms: C_6  and  N_7
REMARK    4  A    between atoms: C_8  and  C_10
REMARK    5  A    between atoms: C_10  and  C_11
REMARK    6  A    between atoms: C_11  and  N_12
REMARK    7  A    between atoms: C_13  and  C_15
REMARK                            x       y       z     vdW  Elec       q    Type
REMARK                         _______ _______ _______ _____ _____    ______ ____
ROOT
ATOM      1  N   UNL     1       3.110   3.307  18.664  0.00  0.00    +0.000 N 
ATOM      2  C   UNL     1       1.776   3.583  18.464  0.00  0.00    +0.000 C 
ATOM      3  O   UNL     1       1.293   3.839  17.366  0.00  0.00    +0.000 OA
ATOM      4  H   UNL     1       3.424   3.005  19.577  0.00  0.00    +0.000 HD
ENDROOT
BRANCH   1   5
ATOM      5  C   UNL     1       4.055   3.242  17.571  0.00  0.00    +0.000 C 
BRANCH   5  10
ATOM      6  C   UNL     1       7.599   7.870  17.543  0.00  0.00    +0.000 C 
ATOM      7  C   UNL     1       6.709   6.662  17.529  0.00  0.00    +0.000 A 
ATOM      8  C   UNL     1       5.748   6.493  16.528  0.00  0.00    +0.000 A 
ATOM      9  C   UNL     1       4.909   5.376  16.535  0.00  0.00    +0.000 A 
ATOM     10  C   UNL     1       5.004   4.411  17.548  0.00  0.00    +0.000 A 
ATOM     11  C   UNL     1       5.988   4.571  18.535  0.00  0.00    +0.000 A 
ATOM     12  C   UNL     1       6.828   5.688  18.528  0.00  0.00    +0.000 A 
ENDBRANCH   5  10
ENDBRANCH   1   5
BRANCH   2  13
ATOM     13  C   UNL     1       0.970   3.634  19.746  0.00  0.00    +0.000 C 
BRANCH  13  14
ATOM     14  C   UNL     1       1.693   4.449  20.810  0.00  0.00    +0.000 C 
BRANCH  14  15
ATOM     15  N   UNL     1       1.330   5.854  20.759  0.00  0.00    +0.000 N 
ATOM     16  C   UNL     1       2.105   6.801  20.121  0.00  0.00    +0.000 C 
ATOM     17  O   UNL     1       3.139   6.508  19.525  0.00  0.00    +0.000 OA
ATOM     18  H   UNL     1       0.478   6.175  21.204  0.00  0.00    +0.000 HD
BRANCH  16  19
ATOM     19  C   UNL     1       1.592   8.153  20.212  0.00  0.00    +0.000 A 
ATOM     20  C   UNL     1       1.412   9.120  19.241  0.00  0.00    +0.000 A 
ATOM     21  C   UNL     1       0.876  10.257  19.889  0.00  0.00    +0.000 A 
ATOM     22  C   UNL     1       0.760   9.920  21.216  0.00  0.00    +0.000 A 
ATOM     23  O   UNL     1       1.189   8.649  21.428  0.00  0.00    +0.000 OA
ENDBRANCH  16  19
ENDBRANCH  14  15
ENDBRANCH  13  14
ENDBRANCH   2  13
TORSDOF 6
ENDMDL
MODEL 6
REMARK VINA RESULT:      -6.6      1.991      4.955
REMARK  Name = 
REMARK  7 active torsions:
REMARK  status: ('A' for Active; 'I' for Inactive)
REMARK    1  A    between atoms: C_1  and  C_2
REMARK    2  A    between atoms: C_5  and  C_6
REMARK    3  A    between atoms: C_6  and  N_7
REMARK    4  A    between atoms: C_8  and  C_10
REMARK    5  A    between atoms: C_10  and  C_11
REMARK    6  A    between atoms: C_11  and  N_12
REMARK    7  A    between atoms: C_13  and  C_15
REMARK                            x       y       z     vdW  Elec       q    Type
REMARK                         _______ _______ _______ _____ _____    ______ ____
ROOT
ATOM      1  N   UNL     1       1.706   4.062  19.989  0.00  0.00    +0.000 N 
ATOM      2  C   UNL     1       2.308   2.852  20.252  0.00  0.00    +0.000 C 
ATOM      3  O   UNL     1       3.087   2.669  21.182  0.00  0.00    +0.000 OA
ATOM      4  H   UNL     1       0.998   4.119  19.269  0.00  0.00    +0.000 HD
ENDROOT
BRANCH   1   5
ATOM      5  C   UNL     1       1.901   5.219  20.835  0.00  0.00    +0.000 C 
BRANCH   5  10
ATOM      6  C   UNL     1       1.990  10.286  17.955  0.00  0.00    +0.000 C 
ATOM      7  C   UNL     1       1.934   8.976  18.685  0.00  0.00    +0.000 A 
ATOM      8  C   UNL     1       1.404   8.898  19.976  0.00  0.00    +0.000 A 
ATOM      9  C   UNL     1       1.376   7.678  20.657  0.00  0.00    +0.000 A 
ATOM     10  C   UNL     1       1.888   6.514  20.067  0.00  0.00    +0.000 A 
ATOM     11  C   UNL     1       2.395   6.592  18.761  0.00  0.00    +0.000 A 
ATOM     12  C   UNL     1       2.422   7.812  18.080  0.00  0.00    +0.000 A 
ENDBRANCH   5  10
ENDBRANCH   1   5
BRANCH   2  13
ATOM     13  C   UNL     1       1.994   1.784  19.225  0.00  0.00    +0.000 C 
BRANCH  13  14
ATOM     14  C   UNL     1       3.132   1.643  18.222  0.00  0.00    +0.000 C 
BRANCH  14  15
ATOM     15  N   UNL     1       4.224   2.557  18.506  0.00  0.00    +0.000 N 
ATOM     16  C   UNL     1       4.503   3.653  17.715  0.00  0.00    +0.000 C 
ATOM     17  O   UNL     1       3.823   3.943  16.734  0.00  0.00    +0.000 OA
ATOM     18  H   UNL     1       4.818   2.403  19.313  0.00  0.00    +0.000 HD
BRANCH  16  19
ATOM     19  C   UNL     1       5.654   4.422  18.145  0.00  0.00    +0.000 A 
ATOM     20  C   UNL     1       5.859   5.188  19.276  0.00  0.00    +0.000 A 
ATOM     21  C   UNL     1       7.169   5.715  19.183  0.00  0.00    +0.000 A 
ATOM     22  C   UNL     1       7.687   5.242  18.002  0.00  0.00    +0.000 A 
ATOM     23  O   UNL     1       6.782   4.457  17.362  0.00  0.00    +0.000 OA
ENDBRANCH  16  19
ENDBRANCH  14  15
ENDBRANCH  13  14
ENDBRANCH   2  13
TORSDOF 6
ENDMDL
MODEL 7
REMARK VINA RESULT:      -6.6      3.585      6.216
REMARK  Name = 
REMARK  7 active torsions:
REMARK  status: ('A' for Active; 'I' for Inactive)
REMARK    1  A    between atoms: C_1  and  C_2
REMARK    2  A    between atoms: C_5  and  C_6
REMARK    3  A    between atoms: C_6  and  N_7
REMARK    4  A    between atoms: C_8  and  C_10
REMARK    5  A    between atoms: C_10  and  C_11
REMARK    6  A    between atoms: C_11  and  N_12
REMARK    7  A    between atoms: C_13  and  C_15
REMARK                            x       y       z     vdW  Elec       q    Type
REMARK                         _______ _______ _______ _____ _____    ______ ____
ROOT
ATOM      1  N   UNL     1       8.351   8.470  18.325  0.00  0.00    +0.000 N 
ATOM      2  C   UNL     1       7.762   7.323  17.842  0.00  0.00    +0.000 C 
ATOM      3  O   UNL     1       7.082   7.286  16.822  0.00  0.00    +0.000 OA
ATOM      4  H   UNL     1       8.982   8.410  19.113  0.00  0.00    +0.000 HD
ENDROOT
BRANCH   1   5
ATOM      5  C   UNL     1       8.261   9.734  17.627  0.00  0.00    +0.000 C 
BRANCH   5  10
ATOM      6  C   UNL     1      11.081  14.016  20.400  0.00  0.00    +0.000 C 
ATOM      7  C   UNL     1      10.326  12.920  19.706  0.00  0.00    +0.000 A 
ATOM      8  C   UNL     1      10.287  11.628  20.239  0.00  0.00    +0.000 A 
ATOM      9  C   UNL     1       9.600  10.609  19.575  0.00  0.00    +0.000 A 
ATOM     10  C   UNL     1       8.949  10.856  18.358  0.00  0.00    +0.000 A 
ATOM     11  C   UNL     1       8.968  12.159  17.840  0.00  0.00    +0.000 A 
ATOM     12  C   UNL     1       9.654  13.179  18.505  0.00  0.00    +0.000 A 
ENDBRANCH   5  10
ENDBRANCH   1   5
BRANCH   2  13
ATOM     13  C   UNL     1       7.953   6.119  18.742  0.00  0.00    +0.000 C 
BRANCH  13  14
ATOM     14  C   UNL     1       7.585   4.833  18.014  0.00  0.00    +0.000 C 
BRANCH  14  15
ATOM     15  N   UNL     1       6.462   4.157  18.637  0.00  0.00    +0.000 N 
ATOM     16  C   UNL     1       5.178   4.230  18.136  0.00  0.00    +0.000 C 
ATOM     17  O   UNL     1       4.909   4.847  17.108  0.00  0.00    +0.000 OA
ATOM     18  H   UNL     1       6.603   3.605  19.475  0.00  0.00    +0.000 HD
BRANCH  16  19
ATOM     19  C   UNL     1       4.190   3.517  18.920  0.00  0.00    +0.000 A 
ATOM     20  C   UNL     1       2.816   3.438  18.791  0.00  0.00    +0.000 A 
ATOM     21  C   UNL     1       2.353   2.600  19.831  0.00  0.00    +0.000 A 
ATOM     22  C   UNL     1       3.468   2.215  20.536  0.00  0.00    +0.000 A 
ATOM     23  O   UNL     1       4.589   2.762  19.996  0.00  0.00    +0.000 OA
ENDBRANCH  16  19
ENDBRANCH  14  15
ENDBRANCH  13  14
ENDBRANCH   2  13
TORSDOF 6
ENDMDL
MODEL 8
REMARK VINA RESULT:      -6.5      1.783      4.856
REMARK  Name = 
REMARK  7 active torsions:
REMARK  status: ('A' for Active; 'I' for Inactive)
REMARK    1  A    between atoms: C_1  and  C_2
REMARK    2  A    between atoms: C_5  and  C_6
REMARK    3  A    between atoms: C_6  and  N_7
REMARK    4  A    between atoms: C_8  and  C_10
REMARK    5  A    between atoms: C_10  and  C_11
REMARK    6  A    between atoms: C_11  and  N_12
REMARK    7  A    between atoms: C_13  and  C_15
REMARK                            x       y       z     vdW  Elec       q    Type
REMARK                         _______ _______ _______ _____ _____    ______ ____
ROOT
ATOM      1  N   UNL     1       2.824   3.822  20.163  0.00  0.00    +0.000 N 
ATOM      2  C   UNL     1       2.167   2.815  19.492  0.00  0.00    +0.000 C 
ATOM      3  O   UNL     1       0.947   2.685  19.487  0.00  0.00    +0.000 OA
ATOM      4  H   UNL     1       3.822   3.931  20.043  0.00  0.00    +0.000 HD
ENDROOT
BRANCH   1   5
ATOM      5  C   UNL     1       2.115   4.857  20.882  0.00  0.00    +0.000 C 
BRANCH   5  10
ATOM      6  C   UNL     1       1.860   9.874  17.923  0.00  0.00    +0.000 C 
ATOM      7  C   UNL     1       1.959   8.590  18.695  0.00  0.00    +0.000 A 
ATOM      8  C   UNL     1       2.515   7.446  18.115  0.00  0.00    +0.000 A 
ATOM      9  C   UNL     1       2.583   6.250  18.834  0.00  0.00    +0.000 A 
ATOM     10  C   UNL     1       2.085   6.168  20.142  0.00  0.00    +0.000 A 
ATOM     11  C   UNL     1       1.551   7.325  20.729  0.00  0.00    +0.000 A 
ATOM     12  C   UNL     1       1.484   8.522  20.011  0.00  0.00    +0.000 A 
ENDBRANCH   5  10
ENDBRANCH   1   5
BRANCH   2  13
ATOM     13  C   UNL     1       3.099   1.819  18.833  0.00  0.00    +0.000 C 
BRANCH  13  14
ATOM     14  C   UNL     1       3.774   2.433  17.613  0.00  0.00    +0.000 C 
BRANCH  14  15
ATOM     15  N   UNL     1       4.740   3.453  17.981  0.00  0.00    +0.000 N 
ATOM     16  C   UNL     1       5.479   4.150  17.047  0.00  0.00    +0.000 C 
ATOM     17  O   UNL     1       5.343   3.974  15.840  0.00  0.00    +0.000 OA
ATOM     18  H   UNL     1       4.893   3.677  18.958  0.00  0.00    +0.000 HD
BRANCH  16  19
ATOM     19  C   UNL     1       6.414   5.101  17.616  0.00  0.00    +0.000 A 
ATOM     20  C   UNL     1       6.735   6.391  17.239  0.00  0.00    +0.000 A 
ATOM     21  C   UNL     1       7.713   6.853  18.149  0.00  0.00    +0.000 A 
ATOM     22  C   UNL     1       7.934   5.820  19.028  0.00  0.00    +0.000 A 
ATOM     23  O   UNL     1       7.155   4.752  18.719  0.00  0.00    +0.000 OA
ENDBRANCH  16  19
ENDBRANCH  14  15
ENDBRANCH  13  14
ENDBRANCH   2  13
TORSDOF 6
ENDMDL
MODEL 9
REMARK VINA RESULT:      -6.4      1.930      4.958
REMARK  Name = 
REMARK  7 active torsions:
REMARK  status: ('A' for Active; 'I' for Inactive)
REMARK    1  A    between atoms: C_1  and  C_2
REMARK    2  A    between atoms: C_5  and  C_6
REMARK    3  A    between atoms: C_6  and  N_7
REMARK    4  A    between atoms: C_8  and  C_10
REMARK    5  A    between atoms: C_10  and  C_11
REMARK    6  A    between atoms: C_11  and  N_12
REMARK    7  A    between atoms: C_13  and  C_15
REMARK                            x       y       z     vdW  Elec       q    Type
REMARK                         _______ _______ _______ _____ _____    ______ ____
ROOT
ATOM      1  N   UNL     1       2.537   3.725  20.288  0.00  0.00    +0.000 N 
ATOM      2  C   UNL     1       1.674   2.943  19.554  0.00  0.00    +0.000 C 
ATOM      3  O   UNL     1       0.458   3.106  19.537  0.00  0.00    +0.000 OA
ATOM      4  H   UNL     1       3.535   3.601  20.178  0.00  0.00    +0.000 HD
ENDROOT
BRANCH   1   5
ATOM      5  C   UNL     1       2.080   4.855  21.066  0.00  0.00    +0.000 C 
BRANCH   5  10
ATOM      6  C   UNL     1       1.867   9.759  17.921  0.00  0.00    +0.000 C 
ATOM      7  C   UNL     1       1.955   8.505  18.742  0.00  0.00    +0.000 A 
ATOM      8  C   UNL     1       2.548   7.350  18.225  0.00  0.00    +0.000 A 
ATOM      9  C   UNL     1       2.605   6.181  18.988  0.00  0.00    +0.000 A 
ATOM     10  C   UNL     1       2.060   6.138  20.278  0.00  0.00    +0.000 A 
ATOM     11  C   UNL     1       1.488   7.306  20.803  0.00  0.00    +0.000 A 
ATOM     12  C   UNL     1       1.432   8.476  20.041  0.00  0.00    +0.000 A 
ENDBRANCH   5  10
ENDBRANCH   1   5
BRANCH   2  13
ATOM     13  C   UNL     1       2.356   1.795  18.839  0.00  0.00    +0.000 C 
BRANCH  13  14
ATOM     14  C   UNL     1       3.869   1.884  18.989  0.00  0.00    +0.000 C 
BRANCH  14  15
ATOM     15  N   UNL     1       4.485   2.584  17.876  0.00  0.00    +0.000 N 
ATOM     16  C   UNL     1       5.274   3.704  18.046  0.00  0.00    +0.000 C 
ATOM     17  O   UNL     1       5.531   4.163  19.156  0.00  0.00    +0.000 OA
ATOM     18  H   UNL     1       4.344   2.254  16.928  0.00  0.00    +0.000 HD
BRANCH  16  19
ATOM     19  C   UNL     1       5.768   4.279  16.810  0.00  0.00    +0.000 A 
ATOM     20  C   UNL     1       6.156   5.569  16.504  0.00  0.00    +0.000 A 
ATOM     21  C   UNL     1       6.552   5.567  15.146  0.00  0.00    +0.000 A 
ATOM     22  C   UNL     1       6.383   4.278  14.702  0.00  0.00    +0.000 A 
ATOM     23  O   UNL     1       5.909   3.485  15.698  0.00  0.00    +0.000 OA
ENDBRANCH  16  19
ENDBRANCH  14  15
ENDBRANCH  13  14
ENDBRANCH   2  13
TORSDOF 6
ENDMDL
