MODEL 1
REMARK VINA RESULT:      -7.3      0.000      0.000
REMARK  Name = 
REMARK  5 active torsions:
REMARK  status: ('A' for Active; 'I' for Inactive)
REMARK    1  A    between atoms: O_1  and  C_2
REMARK    2  A    between atoms: C_3  and  O_4
REMARK    3  A    between atoms: C_7  and  C_8
REMARK    4  A    between atoms: C_8  and  N_9
REMARK    5  A    between atoms: C_11  and  C_12
REMARK                            x       y       z     vdW  Elec       q    Type
REMARK                         _______ _______ _______ _____ _____    ______ ____
ROOT
ATOM      1  C   UNL     1       4.827   3.896  18.989  0.00  0.00    +0.000 C 
ENDROOT
BRANCH   1   6
ATOM      2  C   UNL     1       2.347   4.215  19.507  0.00  0.00    +0.000 C 
ATOM      3  C   UNL     1       1.138   3.302  19.326  0.00  0.00    +0.000 C 
ATOM      4  C   UNL     1       1.765   1.922  19.133  0.00  0.00    +0.000 C 
ATOM      5  N   UNL     1       3.106   2.118  18.574  0.00  0.00    +0.000 NA
ATOM      6  C   UNL     1       3.389   3.578  18.572  0.00  0.00    +0.000 C 
ATOM      7  H   UNL     1       3.145   1.772  17.612  0.00  0.00    +0.000 HD
BRANCH   2   8
ATOM      8  O   UNL     1       2.763   4.216  20.876  0.00  0.00    +0.000 OA
ATOM      9  H   UNL     1       2.069   4.703  21.360  0.00  0.00    +0.000 HD
ENDBRANCH   2   8
BRANCH   3  10
ATOM     10  O   UNL     1       0.267   3.370  20.449  0.00  0.00    +0.000 OA
ATOM     11  H   UNL     1      -0.101   2.475  20.576  0.00  0.00    +0.000 HD
ENDBRANCH   3  10
ENDBRANCH   1   6
BRANCH   1  12
ATOM     12  N   UNL     1       5.696   4.211  17.877  0.00  0.00    +0.000 N 
ATOM     13  C   UNL     1       5.396   4.137  16.550  0.00  0.00    +0.000 A 
ATOM     14  C   UNL     1       6.588   4.429  15.924  0.00  0.00    +0.000 A 
ATOM     15  N   UNL     1       7.550   4.663  16.875  0.00  0.00    +0.000 NA
ATOM     16  N   UNL     1       6.989   4.526  18.073  0.00  0.00    +0.000 NA
BRANCH  14  17
ATOM     17  C   UNL     1       6.816   4.448  14.491  0.00  0.00    +0.000 A 
ATOM     18  C   UNL     1       7.718   5.355  13.916  0.00  0.00    +0.000 A 
ATOM     19  C   UNL     1       7.924   5.374  12.534  0.00  0.00    +0.000 A 
ATOM     20  C   UNL     1       7.226   4.488  11.715  0.00  0.00    +0.000 A 
ATOM     21  C   UNL     1       6.327   3.582  12.275  0.00  0.00    +0.000 A 
ATOM     22  C   UNL     1       6.126   3.559  13.658  0.00  0.00    +0.000 A 
ENDBRANCH  14  17
ENDBRANCH   1  12
TORSDOF 5
ENDMDL
MODEL 2
REMARK VINA RESULT:      -7.2      1.557      1.973
REMARK  Name = 
REMARK  5 active torsions:
REMARK  status: ('A' for Active; 'I' for Inactive)
REMARK    1  A    between atoms: O_1  and  C_2
REMARK    2  A    between atoms: C_3  and  O_4
REMARK    3  A    between atoms: C_7  and  C_8
REMARK    4  A    between atoms: C_8  and  N_9
REMARK    5  A    between atoms: C_11  and  C_12
REMARK                            x       y       z     vdW  Elec       q    Type
REMARK                         _______ _______ _______ _____ _____    ______ ____
ROOT
ATOM      1  C   UNL     1       5.179   4.580  19.197  0.00  0.00    +0.000 C 
ENDROOT
BRANCH   1   6
ATOM      2  C   UNL     1       3.360   2.844  19.641  0.00  0.00    +0.000 C 
ATOM      3  C   UNL     1       1.880   2.794  19.272  0.00  0.00    +0.000 C 
ATOM      4  C   UNL     1       1.755   3.850  18.175  0.00  0.00    +0.000 C 
ATOM      5  N   UNL     1       2.818   4.838  18.387  0.00  0.00    +0.000 NA
ATOM      6  C   UNL     1       3.695   4.336  19.479  0.00  0.00    +0.000 C 
ATOM      7  H   UNL     1       2.417   5.736  18.671  0.00  0.00    +0.000 HD
BRANCH   2   8
ATOM      8  O   UNL     1       4.116   2.010  18.757  0.00  0.00    +0.000 OA
ATOM      9  H   UNL     1       4.540   2.618  18.121  0.00  0.00    +0.000 HD
ENDBRANCH   2   8
BRANCH   3  10
ATOM     10  O   UNL     1       1.499   1.492  18.843  0.00  0.00    +0.000 OA
ATOM     11  H   UNL     1       1.070   1.057  19.603  0.00  0.00    +0.000 HD
ENDBRANCH   3  10
ENDBRANCH   1   6
BRANCH   1  12
ATOM     12  N   UNL     1       5.449   4.995  17.838  0.00  0.00    +0.000 N 
ATOM     13  C   UNL     1       5.680   4.192  16.762  0.00  0.00    +0.000 A 
ATOM     14  C   UNL     1       5.990   5.075  15.750  0.00  0.00    +0.000 A 
ATOM     15  N   UNL     1       5.938   6.356  16.240  0.00  0.00    +0.000 NA
ATOM     16  N   UNL     1       5.604   6.294  17.526  0.00  0.00    +0.000 NA
BRANCH  14  17
ATOM     17  C   UNL     1       6.356   4.720  14.392  0.00  0.00    +0.000 A 
ATOM     18  C   UNL     1       5.651   3.730  13.690  0.00  0.00    +0.000 A 
ATOM     19  C   UNL     1       6.016   3.386  12.386  0.00  0.00    +0.000 A 
ATOM     20  C   UNL     1       7.092   4.026  11.774  0.00  0.00    +0.000 A 
ATOM     21  C   UNL     1       7.800   5.012  12.460  0.00  0.00    +0.000 A 
ATOM     22  C   UNL     1       7.430   5.360  13.762  0.00  0.00    +0.000 A 
ENDBRANCH  14  17
ENDBRANCH   1  12
TORSDOF 5
ENDMDL
MODEL 3
REMARK VINA RESULT:      -7.2      1.599      1.698
REMARK  Name = 
REMARK  5 active torsions:
REMARK  status: ('A' for Active; 'I' for Inactive)
REMARK    1  A    between atoms: O_1  and  C_2
REMARK    2  A    between atoms: C_3  and  O_4
REMARK    3  A    between atoms: C_7  and  C_8
REMARK    4  A    between atoms: C_8  and  N_9
REMARK    5  A    between atoms: C_11  and  C_12
REMARK                            x       y       z     vdW  Elec       q    Type
REMARK                         _______ _______ _______ _____ _____    ______ ____
ROOT
ATOM      1  C   UNL     1       5.120   4.653  19.114  0.00  0.00    +0.000 C 
ENDROOT
BRANCH   1   6
ATOM      2  C   UNL     1       3.399   2.840  19.637  0.00  0.00    +0.000 C 
ATOM      3  C   UNL     1       1.906   2.730  19.343  0.00  0.00    +0.000 C 
ATOM      4  C   UNL     1       1.683   3.785  18.260  0.00  0.00    +0.000 C 
ATOM      5  N   UNL     1       2.712   4.816  18.426  0.00  0.00    +0.000 NA
ATOM      6  C   UNL     1       3.663   4.346  19.469  0.00  0.00    +0.000 C 
ATOM      7  H   UNL     1       2.290   5.695  18.735  0.00  0.00    +0.000 HD
BRANCH   2   8
ATOM      8  O   UNL     1       4.144   2.043  18.712  0.00  0.00    +0.000 OA
ATOM      9  H   UNL     1       4.909   1.703  19.214  0.00  0.00    +0.000 HD
ENDBRANCH   2   8
BRANCH   3  10
ATOM     10  O   UNL     1       1.558   1.415  18.924  0.00  0.00    +0.000 OA
ATOM     11  H   UNL     1       2.340   0.853  19.078  0.00  0.00    +0.000 HD
ENDBRANCH   3  10
ENDBRANCH   1   6
BRANCH   1  12
ATOM     12  N   UNL     1       5.313   5.026  17.731  0.00  0.00    +0.000 N 
ATOM     13  C   UNL     1       5.753   4.231  16.716  0.00  0.00    +0.000 A 
ATOM     14  C   UNL     1       5.864   5.092  15.645  0.00  0.00    +0.000 A 
ATOM     15  N   UNL     1       5.496   6.353  16.043  0.00  0.00    +0.000 NA
ATOM     16  N   UNL     1       5.159   6.300  17.327  0.00  0.00    +0.000 NA
BRANCH  14  17
ATOM     17  C   UNL     1       6.335   4.743  14.318  0.00  0.00    +0.000 A 
ATOM     18  C   UNL     1       7.446   5.388  13.754  0.00  0.00    +0.000 A 
ATOM     19  C   UNL     1       7.887   5.055  12.471  0.00  0.00    +0.000 A 
ATOM     20  C   UNL     1       7.218   4.076  11.739  0.00  0.00    +0.000 A 
ATOM     21  C   UNL     1       6.112   3.428  12.288  0.00  0.00    +0.000 A 
ATOM     22  C   UNL     1       5.676   3.756  13.574  0.00  0.00    +0.000 A 
ENDBRANCH  14  17
ENDBRANCH   1  12
TORSDOF 5
ENDMDL
MODEL 4
REMARK VINA RESULT:      -7.1      1.078      1.091
REMARK  Name = 
REMARK  5 active torsions:
REMARK  status: ('A' for Active; 'I' for Inactive)
REMARK    1  A    between atoms: O_1  and  C_2
REMARK    2  A    between atoms: C_3  and  O_4
REMARK    3  A    between atoms: C_7  and  C_8
REMARK    4  A    between atoms: C_8  and  N_9
REMARK    5  A    between atoms: C_11  and  C_12
REMARK                            x       y       z     vdW  Elec       q    Type
REMARK                         _______ _______ _______ _____ _____    ______ ____
ROOT
ATOM      1  C   UNL     1       4.952   4.956  18.971  0.00  0.00    +0.000 C 
ENDROOT
BRANCH   1   6
ATOM      2  C   UNL     1       2.752   4.054  19.903  0.00  0.00    +0.000 C 
ATOM      3  C   UNL     1       2.376   2.711  20.520  0.00  0.00    +0.000 C 
ATOM      4  C   UNL     1       3.729   2.092  20.869  0.00  0.00    +0.000 C 
ATOM      5  N   UNL     1       4.724   2.657  19.953  0.00  0.00    +0.000 NA
ATOM      6  C   UNL     1       4.059   3.727  19.161  0.00  0.00    +0.000 C 
ATOM      7  H   UNL     1       5.068   1.937  19.312  0.00  0.00    +0.000 HD
BRANCH   2   8
ATOM      8  O   UNL     1       2.932   5.035  20.930  0.00  0.00    +0.000 OA
ATOM      9  H   UNL     1       2.078   5.503  20.998  0.00  0.00    +0.000 HD
ENDBRANCH   2   8
BRANCH   3  10
ATOM     10  O   UNL     1       1.529   2.881  21.651  0.00  0.00    +0.000 OA
ATOM     11  H   UNL     1       0.662   2.500  21.416  0.00  0.00    +0.000 HD
ENDBRANCH   3  10
ENDBRANCH   1   6
BRANCH   1  12
ATOM     12  N   UNL     1       5.835   4.857  17.830  0.00  0.00    +0.000 N 
ATOM     13  C   UNL     1       5.487   4.886  16.513  0.00  0.00    +0.000 A 
ATOM     14  C   UNL     1       6.672   4.644  15.852  0.00  0.00    +0.000 A 
ATOM     15  N   UNL     1       7.676   4.478  16.774  0.00  0.00    +0.000 NA
ATOM     16  N   UNL     1       7.149   4.612  17.987  0.00  0.00    +0.000 NA
BRANCH  14  17
ATOM     17  C   UNL     1       6.839   4.535  14.415  0.00  0.00    +0.000 A 
ATOM     18  C   UNL     1       7.724   5.378  13.726  0.00  0.00    +0.000 A 
ATOM     19  C   UNL     1       7.871   5.275  12.340  0.00  0.00    +0.000 A 
ATOM     20  C   UNL     1       7.131   4.330  11.631  0.00  0.00    +0.000 A 
ATOM     21  C   UNL     1       6.248   3.487  12.304  0.00  0.00    +0.000 A 
ATOM     22  C   UNL     1       6.106   3.586  13.691  0.00  0.00    +0.000 A 
ENDBRANCH  14  17
ENDBRANCH   1  12
TORSDOF 5
ENDMDL
MODEL 5
REMARK VINA RESULT:      -7.0      0.551      1.237
REMARK  Name = 
REMARK  5 active torsions:
REMARK  status: ('A' for Active; 'I' for Inactive)
REMARK    1  A    between atoms: O_1  and  C_2
REMARK    2  A    between atoms: C_3  and  O_4
REMARK    3  A    between atoms: C_7  and  C_8
REMARK    4  A    between atoms: C_8  and  N_9
REMARK    5  A    between atoms: C_11  and  C_12
REMARK                            x       y       z     vdW  Elec       q    Type
REMARK                         _______ _______ _______ _____ _____    ______ ____
ROOT
ATOM      1  C   UNL     1       4.871   3.719  19.052  0.00  0.00    +0.000 C 
ENDROOT
BRANCH   1   6
ATOM      2  C   UNL     1       2.593   3.960  20.180  0.00  0.00    +0.000 C 
ATOM      3  C   UNL     1       1.178   3.637  19.709  0.00  0.00    +0.000 C 
ATOM      4  C   UNL     1       1.407   2.714  18.513  0.00  0.00    +0.000 C 
ATOM      5  N   UNL     1       2.722   3.035  17.950  0.00  0.00    +0.000 NA
ATOM      6  C   UNL     1       3.381   4.011  18.860  0.00  0.00    +0.000 C 
ATOM      7  H   UNL     1       2.619   3.462  17.026  0.00  0.00    +0.000 HD
BRANCH   2   8
ATOM      8  O   UNL     1       3.063   2.938  21.064  0.00  0.00    +0.000 OA
ATOM      9  H   UNL     1       2.439   2.194  20.962  0.00  0.00    +0.000 HD
ENDBRANCH   2   8
BRANCH   3  10
ATOM     10  O   UNL     1       0.414   3.032  20.746  0.00  0.00    +0.000 OA
ATOM     11  H   UNL     1       0.770   3.365  21.591  0.00  0.00    +0.000 HD
ENDBRANCH   3  10
ENDBRANCH   1   6
BRANCH   1  12
ATOM     12  N   UNL     1       5.687   4.110  17.925  0.00  0.00    +0.000 N 
ATOM     13  C   UNL     1       5.385   3.976  16.603  0.00  0.00    +0.000 A 
ATOM     14  C   UNL     1       6.530   4.392  15.958  0.00  0.00    +0.000 A 
ATOM     15  N   UNL     1       7.467   4.755  16.894  0.00  0.00    +0.000 NA
ATOM     16  N   UNL     1       6.936   4.578  18.100  0.00  0.00    +0.000 NA
BRANCH  14  17
ATOM     17  C   UNL     1       6.741   4.408  14.523  0.00  0.00    +0.000 A 
ATOM     18  C   UNL     1       6.054   3.519  13.683  0.00  0.00    +0.000 A 
ATOM     19  C   UNL     1       6.270   3.533  12.302  0.00  0.00    +0.000 A 
ATOM     20  C   UNL     1       7.178   4.434  11.750  0.00  0.00    +0.000 A 
ATOM     21  C   UNL     1       7.868   5.323  12.574  0.00  0.00    +0.000 A 
ATOM     22  C   UNL     1       7.646   5.313  13.954  0.00  0.00    +0.000 A 
ENDBRANCH  14  17
ENDBRANCH   1  12
TORSDOF 5
ENDMDL
MODEL 6
REMARK VINA RESULT:      -7.0      1.556      1.649
REMARK  Name = 
REMARK  5 active torsions:
REMARK  status: ('A' for Active; 'I' for Inactive)
REMARK    1  A    between atoms: O_1  and  C_2
REMARK    2  A    between atoms: C_3  and  O_4
REMARK    3  A    between atoms: C_7  and  C_8
REMARK    4  A    between atoms: C_8  and  N_9
REMARK    5  A    between atoms: C_11  and  C_12
REMARK                            x       y       z     vdW  Elec       q    Type
REMARK                         _______ _______ _______ _____ _____    ______ ____
ROOT
ATOM      1  C   UNL     1       4.832   5.478  19.109  0.00  0.00    +0.000 C 
ENDROOT
BRANCH   1   6
ATOM      2  C   UNL     1       3.830   3.170  19.540  0.00  0.00    +0.000 C 
ATOM      3  C   UNL     1       2.684   2.410  18.877  0.00  0.00    +0.000 C 
ATOM      4  C   UNL     1       2.481   3.159  17.561  0.00  0.00    +0.000 C 
ATOM      5  N   UNL     1       2.934   4.539  17.761  0.00  0.00    +0.000 NA
ATOM      6  C   UNL     1       3.564   4.621  19.107  0.00  0.00    +0.000 C 
ATOM      7  H   UNL     1       2.139   5.183  17.728  0.00  0.00    +0.000 HD
BRANCH   2   8
ATOM      8  O   UNL     1       5.087   2.675  19.069  0.00  0.00    +0.000 OA
ATOM      9  H   UNL     1       4.889   2.202  18.238  0.00  0.00    +0.000 HD
ENDBRANCH   2   8
BRANCH   3  10
ATOM     10  O   UNL     1       3.012   1.037  18.696  0.00  0.00    +0.000 OA
ATOM     11  H   UNL     1       3.756   0.842  19.295  0.00  0.00    +0.000 HD
ENDBRANCH   3  10
ENDBRANCH   1   6
BRANCH   1  12
ATOM     12  N   UNL     1       5.724   5.194  18.008  0.00  0.00    +0.000 N 
ATOM     13  C   UNL     1       5.441   5.270  16.677  0.00  0.00    +0.000 A 
ATOM     14  C   UNL     1       6.582   4.793  16.068  0.00  0.00    +0.000 A 
ATOM     15  N   UNL     1       7.497   4.450  17.033  0.00  0.00    +0.000 NA
ATOM     16  N   UNL     1       6.957   4.701  18.221  0.00  0.00    +0.000 NA
BRANCH  14  17
ATOM     17  C   UNL     1       6.782   4.633  14.640  0.00  0.00    +0.000 A 
ATOM     18  C   UNL     1       7.706   5.429  13.947  0.00  0.00    +0.000 A 
ATOM     19  C   UNL     1       7.885   5.277  12.570  0.00  0.00    +0.000 A 
ATOM     20  C   UNL     1       7.139   4.329  11.873  0.00  0.00    +0.000 A 
ATOM     21  C   UNL     1       6.218   3.531  12.550  0.00  0.00    +0.000 A 
ATOM     22  C   UNL     1       6.043   3.679  13.929  0.00  0.00    +0.000 A 
ENDBRANCH  14  17
ENDBRANCH   1  12
TORSDOF 5
ENDMDL
MODEL 7
REMARK VINA RESULT:      -7.0      1.473      1.589
REMARK  Name = 
REMARK  5 active torsions:
REMARK  status: ('A' for Active; 'I' for Inactive)
REMARK    1  A    between atoms: O_1  and  C_2
REMARK    2  A    between atoms: C_3  and  O_4
REMARK    3  A    between atoms: C_7  and  C_8
REMARK    4  A    between atoms: C_8  and  N_9
REMARK    5  A    between atoms: C_11  and  C_12
REMARK                            x       y       z     vdW  Elec       q    Type
REMARK                         _______ _______ _______ _____ _____    ______ ____
ROOT
ATOM      1  C   UNL     1       4.676   5.025  19.029  0.00  0.00    +0.000 C 
ENDROOT
BRANCH   1   6
ATOM      2  C   UNL     1       2.786   4.206  20.539  0.00  0.00    +0.000 C 
ATOM      3  C   UNL     1       1.291   4.020  20.298  0.00  0.00    +0.000 C 
ATOM      4  C   UNL     1       1.176   4.034  18.774  0.00  0.00    +0.000 C 
ATOM      5  N   UNL     1       2.299   4.819  18.252  0.00  0.00    +0.000 NA
ATOM      6  C   UNL     1       3.195   5.148  19.393  0.00  0.00    +0.000 C 
ATOM      7  H   UNL     1       1.961   5.690  17.835  0.00  0.00    +0.000 HD
BRANCH   2   8
ATOM      8  O   UNL     1       3.456   2.943  20.480  0.00  0.00    +0.000 OA
ATOM      9  H   UNL     1       3.567   2.661  21.408  0.00  0.00    +0.000 HD
ENDBRANCH   2   8
BRANCH   3  10
ATOM     10  O   UNL     1       0.820   2.811  20.884  0.00  0.00    +0.000 OA
ATOM     11  H   UNL     1       0.109   3.057  21.505  0.00  0.00    +0.000 HD
ENDBRANCH   3  10
ENDBRANCH   1   6
BRANCH   1  12
ATOM     12  N   UNL     1       4.954   5.293  17.636  0.00  0.00    +0.000 N 
ATOM     13  C   UNL     1       5.393   4.408  16.698  0.00  0.00    +0.000 A 
ATOM     14  C   UNL     1       5.604   5.187  15.580  0.00  0.00    +0.000 A 
ATOM     15  N   UNL     1       5.294   6.491  15.877  0.00  0.00    +0.000 NA
ATOM     16  N   UNL     1       4.895   6.544  17.144  0.00  0.00    +0.000 NA
BRANCH  14  17
ATOM     17  C   UNL     1       6.113   4.724  14.304  0.00  0.00    +0.000 A 
ATOM     18  C   UNL     1       7.304   5.241  13.772  0.00  0.00    +0.000 A 
ATOM     19  C   UNL     1       7.783   4.798  12.536  0.00  0.00    +0.000 A 
ATOM     20  C   UNL     1       7.073   3.837  11.820  0.00  0.00    +0.000 A 
ATOM     21  C   UNL     1       5.888   3.316  12.337  0.00  0.00    +0.000 A 
ATOM     22  C   UNL     1       5.413   3.754  13.576  0.00  0.00    +0.000 A 
ENDBRANCH  14  17
ENDBRANCH   1  12
TORSDOF 5
ENDMDL
MODEL 8
REMARK VINA RESULT:      -6.9      4.624      8.210
REMARK  Name = 
REMARK  5 active torsions:
REMARK  status: ('A' for Active; 'I' for Inactive)
REMARK    1  A    between atoms: O_1  and  C_2
REMARK    2  A    between atoms: C_3  and  O_4
REMARK    3  A    between atoms: C_7  and  C_8
REMARK    4  A    between atoms: C_8  and  N_9
REMARK    5  A    between atoms: C_11  and  C_12
REMARK                            x       y       z     vdW  Elec       q    Type
REMARK                         _______ _______ _______ _____ _____    ______ ____
ROOT
ATOM      1  C   UNL     1       3.550   5.428  18.018  0.00  0.00    +0.000 C 
ENDROOT
BRANCH   1   6
ATOM      2  C   UNL     1       5.707   4.360  17.165  0.00  0.00    +0.000 C 
ATOM      3  C   UNL     1       7.068   4.948  16.803  0.00  0.00    +0.000 C 
ATOM      4  C   UNL     1       7.040   6.328  17.458  0.00  0.00    +0.000 C 
ATOM      5  N   UNL     1       5.637   6.744  17.556  0.00  0.00    +0.000 NA
ATOM      6  C   UNL     1       4.791   5.594  17.137  0.00  0.00    +0.000 C 
ATOM      7  H   UNL     1       5.455   7.534  16.932  0.00  0.00    +0.000 HD
BRANCH   2   8
ATOM      8  O   UNL     1       5.764   3.744  18.456  0.00  0.00    +0.000 OA
ATOM      9  H   UNL     1       6.054   4.446  19.069  0.00  0.00    +0.000 HD
ENDBRANCH   2   8
BRANCH   3  10
ATOM     10  O   UNL     1       8.129   4.125  17.275  0.00  0.00    +0.000 OA
ATOM     11  H   UNL     1       7.717   3.357  17.714  0.00  0.00    +0.000 HD
ENDBRANCH   3  10
ENDBRANCH   1   6
BRANCH   1  12
ATOM     12  N   UNL     1       2.961   6.682  18.430  0.00  0.00    +0.000 N 
ATOM     13  C   UNL     1       2.341   6.951  19.613  0.00  0.00    +0.000 A 
ATOM     14  C   UNL     1       1.867   8.236  19.454  0.00  0.00    +0.000 A 
ATOM     15  N   UNL     1       2.210   8.689  18.204  0.00  0.00    +0.000 NA
ATOM     16  N   UNL     1       2.882   7.724  17.584  0.00  0.00    +0.000 NA
BRANCH  14  17
ATOM     17  C   UNL     1       1.093   8.985  20.425  0.00  0.00    +0.000 A 
ATOM     18  C   UNL     1       1.154   8.672  21.791  0.00  0.00    +0.000 A 
ATOM     19  C   UNL     1       0.397   9.390  22.721  0.00  0.00    +0.000 A 
ATOM     20  C   UNL     1      -0.429  10.427  22.291  0.00  0.00    +0.000 A 
ATOM     21  C   UNL     1      -0.498  10.748  20.936  0.00  0.00    +0.000 A 
ATOM     22  C   UNL     1       0.264  10.033  20.007  0.00  0.00    +0.000 A 
ENDBRANCH  14  17
ENDBRANCH   1  12
TORSDOF 5
ENDMDL
MODEL 9
REMARK VINA RESULT:      -6.9      1.438      1.913
REMARK  Name = 
REMARK  5 active torsions:
REMARK  status: ('A' for Active; 'I' for Inactive)
REMARK    1  A    between atoms: O_1  and  C_2
REMARK    2  A    between atoms: C_3  and  O_4
REMARK    3  A    between atoms: C_7  and  C_8
REMARK    4  A    between atoms: C_8  and  N_9
REMARK    5  A    between atoms: C_11  and  C_12
REMARK                            x       y       z     vdW  Elec       q    Type
REMARK                         _______ _______ _______ _____ _____    ______ ____
ROOT
ATOM      1  C   UNL     1       3.854   5.623  18.773  0.00  0.00    +0.000 C 
ENDROOT
BRANCH   1   6
ATOM      2  C   UNL     1       2.309   3.591  18.756  0.00  0.00    +0.000 C 
ATOM      3  C   UNL     1       1.505   2.906  19.857  0.00  0.00    +0.000 C 
ATOM      4  C   UNL     1       1.471   3.953  20.970  0.00  0.00    +0.000 C 
ATOM      5  N   UNL     1       2.659   4.799  20.820  0.00  0.00    +0.000 NA
ATOM      6  C   UNL     1       3.336   4.413  19.553  0.00  0.00    +0.000 C 
ATOM      7  H   UNL     1       3.304   4.648  21.600  0.00  0.00    +0.000 HD
BRANCH   2   8
ATOM      8  O   UNL     1       1.450   4.409  17.955  0.00  0.00    +0.000 OA
ATOM      9  H   UNL     1       1.134   5.117  18.548  0.00  0.00    +0.000 HD
ENDBRANCH   2   8
BRANCH   3  10
ATOM     10  O   UNL     1       0.210   2.535  19.397  0.00  0.00    +0.000 OA
ATOM     11  H   UNL     1      -0.351   2.428  20.188  0.00  0.00    +0.000 HD
ENDBRANCH   3  10
ENDBRANCH   1   6
BRANCH   1  12
ATOM     12  N   UNL     1       4.873   5.293  17.802  0.00  0.00    +0.000 N 
ATOM     13  C   UNL     1       4.747   5.287  16.446  0.00  0.00    +0.000 A 
ATOM     14  C   UNL     1       5.958   4.797  16.003  0.00  0.00    +0.000 A 
ATOM     15  N   UNL     1       6.757   4.527  17.086  0.00  0.00    +0.000 NA
ATOM     16  N   UNL     1       6.079   4.837  18.187  0.00  0.00    +0.000 NA
BRANCH  14  17
ATOM     17  C   UNL     1       6.325   4.559  14.620  0.00  0.00    +0.000 A 
ATOM     18  C   UNL     1       5.602   3.656  13.827  0.00  0.00    +0.000 A 
ATOM     19  C   UNL     1       5.969   3.423  12.499  0.00  0.00    +0.000 A 
ATOM     20  C   UNL     1       7.065   4.089  11.954  0.00  0.00    +0.000 A 
ATOM     21  C   UNL     1       7.792   4.989  12.732  0.00  0.00    +0.000 A 
ATOM     22  C   UNL     1       7.421   5.226  14.058  0.00  0.00    +0.000 A 
ENDBRANCH  14  17
ENDBRANCH   1  12
TORSDOF 5
ENDMDL
