MODEL 1
REMARK VINA RESULT:      -7.1      0.000      0.000
REMARK  Name = 
REMARK  9 active torsions:
REMARK  status: ('A' for Active; 'I' for Inactive)
REMARK    1  A    between atoms: C_1  and  C_2
REMARK    2  A    between atoms: C_4  and  O_5
REMARK    3  A    between atoms: C_7  and  S_8
REMARK    4  A    between atoms: S_8  and  C_9
REMARK    5  A    between atoms: C_9  and  C_10
REMARK    6  A    between atoms: C_10  and  O_12
REMARK    7  A    between atoms: O_12  and  C_13
REMARK    8  A    between atoms: C_13  and  C_14
REMARK    9  A    between atoms: C_20  and  C_21
REMARK                            x       y       z     vdW  Elec       q    Type
REMARK                         _______ _______ _______ _____ _____    ______ ____
ROOT
ATOM      1  S   UNL     1       4.740   3.971  17.713  0.00  0.00    +0.000 S 
ENDROOT
BRANCH   1   7
ATOM      2  C   UNL     1       7.874   8.303  17.230  0.00  0.00    +0.000 C 
ATOM      3  C   UNL     1       7.441   7.055  17.956  0.00  0.00    +0.000 A 
ATOM      4  C   UNL     1       8.097   6.686  19.134  0.00  0.00    +0.000 A 
ATOM      5  C   UNL     1       7.683   5.538  19.785  0.00  0.00    +0.000 A 
ATOM      6  N   UNL     1       6.686   4.745  19.362  0.00  0.00    +0.000 NA
ATOM      7  C   UNL     1       6.036   5.101  18.228  0.00  0.00    +0.000 A 
ATOM      8  C   UNL     1       6.387   6.237  17.487  0.00  0.00    +0.000 A 
BRANCH   5   9
ATOM      9  O   UNL     1       8.288   5.126  20.934  0.00  0.00    +0.000 OA
ATOM     10  H   UNL     1       8.082   4.190  21.071  0.00  0.00    +0.000 HD
ENDBRANCH   5   9
BRANCH   8  11
ATOM     11  C   UNL     1       5.718   6.590  16.268  0.00  0.00    +0.000 C 
ATOM     12  N   UNL     1       5.111   6.825  15.306  0.00  0.00    +0.000 NA
ENDBRANCH   8  11
ENDBRANCH   1   7
BRANCH   1  13
ATOM     13  C   UNL     1       3.999   3.517  19.332  0.00  0.00    +0.000 C 
BRANCH  13  14
ATOM     14  C   UNL     1       2.508   3.245  19.229  0.00  0.00    +0.000 C 
ATOM     15  O   UNL     1       1.991   2.195  18.858  0.00  0.00    +0.000 OA
BRANCH  14  16
ATOM     16  O   UNL     1       1.807   4.349  19.630  0.00  0.00    +0.000 OA
BRANCH  16  17
ATOM     17  C   UNL     1       2.571   5.383  20.276  0.00  0.00    +0.000 C 
BRANCH  17  18
ATOM     18  C   UNL     1       2.277   6.725  19.648  0.00  0.00    +0.000 A 
ATOM     19  C   UNL     1       1.656   7.742  20.386  0.00  0.00    +0.000 A 
ATOM     20  C   UNL     1       1.358   8.970  19.789  0.00  0.00    +0.000 A 
ATOM     21  C   UNL     1       1.695   9.202  18.457  0.00  0.00    +0.000 A 
ATOM     22  C   UNL     1       2.342   8.212  17.723  0.00  0.00    +0.000 A 
ATOM     23  C   UNL     1       2.629   6.978  18.314  0.00  0.00    +0.000 A 
ENDBRANCH  17  18
ENDBRANCH  16  17
ENDBRANCH  14  16
ENDBRANCH  13  14
ENDBRANCH   1  13
TORSDOF 8
ENDMDL
MODEL 2
REMARK VINA RESULT:      -6.8      3.148      6.878
REMARK  Name = 
REMARK  9 active torsions:
REMARK  status: ('A' for Active; 'I' for Inactive)
REMARK    1  A    between atoms: C_1  and  C_2
REMARK    2  A    between atoms: C_4  and  O_5
REMARK    3  A    between atoms: C_7  and  S_8
REMARK    4  A    between atoms: S_8  and  C_9
REMARK    5  A    between atoms: C_9  and  C_10
REMARK    6  A    between atoms: C_10  and  O_12
REMARK    7  A    between atoms: O_12  and  C_13
REMARK    8  A    between atoms: C_13  and  C_14
REMARK    9  A    between atoms: C_20  and  C_21
REMARK                            x       y       z     vdW  Elec       q    Type
REMARK                         _______ _______ _______ _____ _____    ______ ____
ROOT
ATOM      1  S   UNL     1       6.630   4.752  17.942  0.00  0.00    +0.000 S 
ENDROOT
BRANCH   1   7
ATOM      2  C   UNL     1       1.899   4.259  20.434  0.00  0.00    +0.000 C 
ATOM      3  C   UNL     1       2.856   5.009  19.541  0.00  0.00    +0.000 A 
ATOM      4  C   UNL     1       2.460   6.229  18.985  0.00  0.00    +0.000 A 
ATOM      5  C   UNL     1       3.353   6.900  18.171  0.00  0.00    +0.000 A 
ATOM      6  N   UNL     1       4.584   6.461  17.873  0.00  0.00    +0.000 NA
ATOM      7  C   UNL     1       4.982   5.286  18.417  0.00  0.00    +0.000 A 
ATOM      8  C   UNL     1       4.150   4.521  19.244  0.00  0.00    +0.000 A 
BRANCH   5   9
ATOM      9  O   UNL     1       3.020   8.091  17.597  0.00  0.00    +0.000 OA
ATOM     10  H   UNL     1       3.613   8.773  17.941  0.00  0.00    +0.000 HD
ENDBRANCH   5   9
BRANCH   8  11
ATOM     11  C   UNL     1       4.564   3.260  19.789  0.00  0.00    +0.000 C 
ATOM     12  N   UNL     1       4.816   2.227  20.256  0.00  0.00    +0.000 NA
ENDBRANCH   8  11
ENDBRANCH   1   7
BRANCH   1  13
ATOM     13  C   UNL     1       7.667   6.035  18.751  0.00  0.00    +0.000 C 
BRANCH  13  14
ATOM     14  C   UNL     1       7.913   7.232  17.849  0.00  0.00    +0.000 C 
ATOM     15  O   UNL     1       7.735   7.268  16.635  0.00  0.00    +0.000 OA
BRANCH  14  16
ATOM     16  O   UNL     1       8.354   8.291  18.594  0.00  0.00    +0.000 OA
BRANCH  16  17
ATOM     17  C   UNL     1       8.410   9.560  17.918  0.00  0.00    +0.000 C 
BRANCH  17  18
ATOM     18  C   UNL     1       9.325  10.509  18.656  0.00  0.00    +0.000 A 
ATOM     19  C   UNL     1      10.236  11.315  17.959  0.00  0.00    +0.000 A 
ATOM     20  C   UNL     1      11.102  12.167  18.649  0.00  0.00    +0.000 A 
ATOM     21  C   UNL     1      11.053  12.238  20.040  0.00  0.00    +0.000 A 
ATOM     22  C   UNL     1      10.130  11.468  20.742  0.00  0.00    +0.000 A 
ATOM     23  C   UNL     1       9.272  10.606  20.054  0.00  0.00    +0.000 A 
ENDBRANCH  17  18
ENDBRANCH  16  17
ENDBRANCH  14  16
ENDBRANCH  13  14
ENDBRANCH   1  13
TORSDOF 8
ENDMDL
MODEL 3
REMARK VINA RESULT:      -6.7      3.209      6.684
REMARK  Name = 
REMARK  9 active torsions:
REMARK  status: ('A' for Active; 'I' for Inactive)
REMARK    1  A    between atoms: C_1  and  C_2
REMARK    2  A    between atoms: C_4  and  O_5
REMARK    3  A    between atoms: C_7  and  S_8
REMARK    4  A    between atoms: S_8  and  C_9
REMARK    5  A    between atoms: C_9  and  C_10
REMARK    6  A    between atoms: C_10  and  O_12
REMARK    7  A    between atoms: O_12  and  C_13
REMARK    8  A    between atoms: C_13  and  C_14
REMARK    9  A    between atoms: C_20  and  C_21
REMARK                            x       y       z     vdW  Elec       q    Type
REMARK                         _______ _______ _______ _____ _____    ______ ____
ROOT
ATOM      1  S   UNL     1       6.319   5.310  19.419  0.00  0.00    +0.000 S 
ENDROOT
BRANCH   1   7
ATOM      2  C   UNL     1       1.618   2.746  19.030  0.00  0.00    +0.000 C 
ATOM      3  C   UNL     1       2.473   3.978  18.871  0.00  0.00    +0.000 A 
ATOM      4  C   UNL     1       1.899   5.150  18.370  0.00  0.00    +0.000 A 
ATOM      5  C   UNL     1       2.701   6.268  18.234  0.00  0.00    +0.000 A 
ATOM      6  N   UNL     1       4.004   6.309  18.552  0.00  0.00    +0.000 NA
ATOM      7  C   UNL     1       4.566   5.182  19.051  0.00  0.00    +0.000 A 
ATOM      8  C   UNL     1       3.845   3.993  19.215  0.00  0.00    +0.000 A 
BRANCH   5   9
ATOM      9  O   UNL     1       2.198   7.436  17.746  0.00  0.00    +0.000 OA
ATOM     10  H   UNL     1       2.894   8.108  17.780  0.00  0.00    +0.000 HD
ENDBRANCH   5   9
BRANCH   8  11
ATOM     11  C   UNL     1       4.454   2.792  19.711  0.00  0.00    +0.000 C 
ATOM     12  N   UNL     1       4.988   1.869  20.170  0.00  0.00    +0.000 NA
ENDBRANCH   8  11
ENDBRANCH   1   7
BRANCH   1  13
ATOM     13  C   UNL     1       7.049   5.133  17.742  0.00  0.00    +0.000 C 
BRANCH  13  14
ATOM     14  C   UNL     1       7.065   6.446  16.977  0.00  0.00    +0.000 C 
ATOM     15  O   UNL     1       7.693   7.453  17.289  0.00  0.00    +0.000 OA
BRANCH  14  16
ATOM     16  O   UNL     1       6.279   6.343  15.863  0.00  0.00    +0.000 OA
BRANCH  16  17
ATOM     17  C   UNL     1       5.741   5.037  15.586  0.00  0.00    +0.000 C 
BRANCH  17  18
ATOM     18  C   UNL     1       6.144   4.584  14.203  0.00  0.00    +0.000 A 
ATOM     19  C   UNL     1       5.363   3.660  13.495  0.00  0.00    +0.000 A 
ATOM     20  C   UNL     1       5.759   3.220  12.228  0.00  0.00    +0.000 A 
ATOM     21  C   UNL     1       6.925   3.715  11.648  0.00  0.00    +0.000 A 
ATOM     22  C   UNL     1       7.691   4.659  12.326  0.00  0.00    +0.000 A 
ATOM     23  C   UNL     1       7.305   5.089  13.599  0.00  0.00    +0.000 A 
ENDBRANCH  17  18
ENDBRANCH  16  17
ENDBRANCH  14  16
ENDBRANCH  13  14
ENDBRANCH   1  13
TORSDOF 8
ENDMDL
MODEL 4
REMARK VINA RESULT:      -6.6      3.215      6.705
REMARK  Name = 
REMARK  9 active torsions:
REMARK  status: ('A' for Active; 'I' for Inactive)
REMARK    1  A    between atoms: C_1  and  C_2
REMARK    2  A    between atoms: C_4  and  O_5
REMARK    3  A    between atoms: C_7  and  S_8
REMARK    4  A    between atoms: S_8  and  C_9
REMARK    5  A    between atoms: C_9  and  C_10
REMARK    6  A    between atoms: C_10  and  O_12
REMARK    7  A    between atoms: O_12  and  C_13
REMARK    8  A    between atoms: C_13  and  C_14
REMARK    9  A    between atoms: C_20  and  C_21
REMARK                            x       y       z     vdW  Elec       q    Type
REMARK                         _______ _______ _______ _____ _____    ______ ____
ROOT
ATOM      1  S   UNL     1       5.285   5.404  19.290  0.00  0.00    +0.000 S 
ENDROOT
BRANCH   1   7
ATOM      2  C   UNL     1       0.423   3.230  19.973  0.00  0.00    +0.000 C 
ATOM      3  C   UNL     1       1.875   3.133  19.577  0.00  0.00    +0.000 A 
ATOM      4  C   UNL     1       2.385   1.908  19.139  0.00  0.00    +0.000 A 
ATOM      5  C   UNL     1       3.719   1.842  18.780  0.00  0.00    +0.000 A 
ATOM      6  N   UNL     1       4.567   2.880  18.821  0.00  0.00    +0.000 NA
ATOM      7  C   UNL     1       4.079   4.075  19.232  0.00  0.00    +0.000 A 
ATOM      8  C   UNL     1       2.748   4.246  19.630  0.00  0.00    +0.000 A 
BRANCH   5   9
ATOM      9  O   UNL     1       4.272   0.673  18.350  0.00  0.00    +0.000 OA
ATOM     10  H   UNL     1       3.590  -0.013  18.363  0.00  0.00    +0.000 HD
ENDBRANCH   5   9
BRANCH   8  11
ATOM     11  C   UNL     1       2.245   5.506  20.098  0.00  0.00    +0.000 C 
ATOM     12  N   UNL     1       1.916   6.540  20.512  0.00  0.00    +0.000 NA
ENDBRANCH   8  11
ENDBRANCH   1   7
BRANCH   1  13
ATOM     13  C   UNL     1       6.463   4.875  17.983  0.00  0.00    +0.000 C 
BRANCH  13  14
ATOM     14  C   UNL     1       6.858   6.018  17.064  0.00  0.00    +0.000 C 
ATOM     15  O   UNL     1       7.843   6.738  17.193  0.00  0.00    +0.000 OA
BRANCH  14  16
ATOM     16  O   UNL     1       5.955   6.124  16.042  0.00  0.00    +0.000 OA
BRANCH  16  17
ATOM     17  C   UNL     1       5.396   4.889  15.560  0.00  0.00    +0.000 C 
BRANCH  17  18
ATOM     18  C   UNL     1       5.998   4.524  14.224  0.00  0.00    +0.000 A 
ATOM     19  C   UNL     1       7.188   5.121  13.786  0.00  0.00    +0.000 A 
ATOM     20  C   UNL     1       7.723   4.803  12.535  0.00  0.00    +0.000 A 
ATOM     21  C   UNL     1       7.086   3.870  11.718  0.00  0.00    +0.000 A 
ATOM     22  C   UNL     1       5.922   3.245  12.155  0.00  0.00    +0.000 A 
ATOM     23  C   UNL     1       5.378   3.572  13.401  0.00  0.00    +0.000 A 
ENDBRANCH  17  18
ENDBRANCH  16  17
ENDBRANCH  14  16
ENDBRANCH  13  14
ENDBRANCH   1  13
TORSDOF 8
ENDMDL
MODEL 5
REMARK VINA RESULT:      -6.6      1.038      1.516
REMARK  Name = 
REMARK  9 active torsions:
REMARK  status: ('A' for Active; 'I' for Inactive)
REMARK    1  A    between atoms: C_1  and  C_2
REMARK    2  A    between atoms: C_4  and  O_5
REMARK    3  A    between atoms: C_7  and  S_8
REMARK    4  A    between atoms: S_8  and  C_9
REMARK    5  A    between atoms: C_9  and  C_10
REMARK    6  A    between atoms: C_10  and  O_12
REMARK    7  A    between atoms: O_12  and  C_13
REMARK    8  A    between atoms: C_13  and  C_14
REMARK    9  A    between atoms: C_20  and  C_21
REMARK                            x       y       z     vdW  Elec       q    Type
REMARK                         _______ _______ _______ _____ _____    ______ ____
ROOT
ATOM      1  S   UNL     1       5.077   3.802  17.348  0.00  0.00    +0.000 S 
ENDROOT
BRANCH   1   7
ATOM      2  C   UNL     1       7.745   8.461  17.248  0.00  0.00    +0.000 C 
ATOM      3  C   UNL     1       7.420   7.132  17.884  0.00  0.00    +0.000 A 
ATOM      4  C   UNL     1       8.064   6.764  19.069  0.00  0.00    +0.000 A 
ATOM      5  C   UNL     1       7.750   5.543  19.635  0.00  0.00    +0.000 A 
ATOM      6  N   UNL     1       6.862   4.677  19.125  0.00  0.00    +0.000 NA
ATOM      7  C   UNL     1       6.223   5.030  17.983  0.00  0.00    +0.000 A 
ATOM      8  C   UNL     1       6.478   6.238  17.323  0.00  0.00    +0.000 A 
BRANCH   5   9
ATOM      9  O   UNL     1       8.350   5.129  20.787  0.00  0.00    +0.000 OA
ATOM     10  H   UNL     1       7.963   4.280  21.046  0.00  0.00    +0.000 HD
ENDBRANCH   5   9
BRANCH   8  11
ATOM     11  C   UNL     1       5.824   6.591  16.096  0.00  0.00    +0.000 C 
ATOM     12  N   UNL     1       5.222   6.889  15.148  0.00  0.00    +0.000 NA
ENDBRANCH   8  11
ENDBRANCH   1   7
BRANCH   1  13
ATOM     13  C   UNL     1       3.770   3.832  18.639  0.00  0.00    +0.000 C 
BRANCH  13  14
ATOM     14  C   UNL     1       2.704   4.877  18.358  0.00  0.00    +0.000 C 
ATOM     15  O   UNL     1       1.639   4.682  17.781  0.00  0.00    +0.000 OA
BRANCH  14  16
ATOM     16  O   UNL     1       3.097   6.087  18.861  0.00  0.00    +0.000 OA
BRANCH  16  17
ATOM     17  C   UNL     1       2.887   7.226  18.006  0.00  0.00    +0.000 C 
BRANCH  17  18
ATOM     18  C   UNL     1       2.052   8.267  18.712  0.00  0.00    +0.000 A 
ATOM     19  C   UNL     1       1.707   8.116  20.062  0.00  0.00    +0.000 A 
ATOM     20  C   UNL     1       0.907   9.067  20.701  0.00  0.00    +0.000 A 
ATOM     21  C   UNL     1       0.462  10.189  20.005  0.00  0.00    +0.000 A 
ATOM     22  C   UNL     1       0.826  10.369  18.673  0.00  0.00    +0.000 A 
ATOM     23  C   UNL     1       1.615   9.412  18.029  0.00  0.00    +0.000 A 
ENDBRANCH  17  18
ENDBRANCH  16  17
ENDBRANCH  14  16
ENDBRANCH  13  14
ENDBRANCH   1  13
TORSDOF 8
ENDMDL
MODEL 6
REMARK VINA RESULT:      -6.5      3.108      6.694
REMARK  Name = 
REMARK  9 active torsions:
REMARK  status: ('A' for Active; 'I' for Inactive)
REMARK    1  A    between atoms: C_1  and  C_2
REMARK    2  A    between atoms: C_4  and  O_5
REMARK    3  A    between atoms: C_7  and  S_8
REMARK    4  A    between atoms: S_8  and  C_9
REMARK    5  A    between atoms: C_9  and  C_10
REMARK    6  A    between atoms: C_10  and  O_12
REMARK    7  A    between atoms: O_12  and  C_13
REMARK    8  A    between atoms: C_13  and  C_14
REMARK    9  A    between atoms: C_20  and  C_21
REMARK                            x       y       z     vdW  Elec       q    Type
REMARK                         _______ _______ _______ _____ _____    ______ ____
ROOT
ATOM      1  S   UNL     1       3.982   4.948  17.036  0.00  0.00    +0.000 S 
ENDROOT
BRANCH   1   7
ATOM      2  C   UNL     1       1.800   2.670  21.381  0.00  0.00    +0.000 C 
ATOM      3  C   UNL     1       2.170   3.883  20.564  0.00  0.00    +0.000 A 
ATOM      4  C   UNL     1       1.841   5.155  21.040  0.00  0.00    +0.000 A 
ATOM      5  C   UNL     1       2.190   6.253  20.275  0.00  0.00    +0.000 A 
ATOM      6  N   UNL     1       2.828   6.184  19.097  0.00  0.00    +0.000 NA
ATOM      7  C   UNL     1       3.162   4.956  18.633  0.00  0.00    +0.000 A 
ATOM      8  C   UNL     1       2.843   3.780  19.324  0.00  0.00    +0.000 A 
BRANCH   5   9
ATOM      9  O   UNL     1       1.892   7.518  20.686  0.00  0.00    +0.000 OA
ATOM     10  H   UNL     1       1.126   7.476  21.277  0.00  0.00    +0.000 HD
ENDBRANCH   5   9
BRANCH   8  11
ATOM     11  C   UNL     1       3.167   2.480  18.811  0.00  0.00    +0.000 C 
ATOM     12  N   UNL     1       3.472   1.412  18.470  0.00  0.00    +0.000 NA
ENDBRANCH   8  11
ENDBRANCH   1   7
BRANCH   1  13
ATOM     13  C   UNL     1       5.534   5.850  17.427  0.00  0.00    +0.000 C 
BRANCH  13  14
ATOM     14  C   UNL     1       6.689   4.911  17.727  0.00  0.00    +0.000 C 
ATOM     15  O   UNL     1       6.928   4.386  18.811  0.00  0.00    +0.000 OA
BRANCH  14  16
ATOM     16  O   UNL     1       7.432   4.714  16.596  0.00  0.00    +0.000 OA
BRANCH  16  17
ATOM     17  C   UNL     1       7.204   5.641  15.519  0.00  0.00    +0.000 C 
BRANCH  17  18
ATOM     18  C   UNL     1       6.929   4.898  14.234  0.00  0.00    +0.000 A 
ATOM     19  C   UNL     1       7.743   5.086  13.108  0.00  0.00    +0.000 A 
ATOM     20  C   UNL     1       7.465   4.421  11.912  0.00  0.00    +0.000 A 
ATOM     21  C   UNL     1       6.384   3.544  11.833  0.00  0.00    +0.000 A 
ATOM     22  C   UNL     1       5.588   3.322  12.953  0.00  0.00    +0.000 A 
ATOM     23  C   UNL     1       5.857   3.998  14.147  0.00  0.00    +0.000 A 
ENDBRANCH  17  18
ENDBRANCH  16  17
ENDBRANCH  14  16
ENDBRANCH  13  14
ENDBRANCH   1  13
TORSDOF 8
ENDMDL
MODEL 7
REMARK VINA RESULT:      -6.5      2.391      4.550
REMARK  Name = 
REMARK  9 active torsions:
REMARK  status: ('A' for Active; 'I' for Inactive)
REMARK    1  A    between atoms: C_1  and  C_2
REMARK    2  A    between atoms: C_4  and  O_5
REMARK    3  A    between atoms: C_7  and  S_8
REMARK    4  A    between atoms: S_8  and  C_9
REMARK    5  A    between atoms: C_9  and  C_10
REMARK    6  A    between atoms: C_10  and  O_12
REMARK    7  A    between atoms: O_12  and  C_13
REMARK    8  A    between atoms: C_13  and  C_14
REMARK    9  A    between atoms: C_20  and  C_21
REMARK                            x       y       z     vdW  Elec       q    Type
REMARK                         _______ _______ _______ _____ _____    ______ ____
ROOT
ATOM      1  S   UNL     1       4.796   3.708  16.894  0.00  0.00    +0.000 S 
ENDROOT
BRANCH   1   7
ATOM      2  C   UNL     1       0.786   3.163  20.423  0.00  0.00    +0.000 C 
ATOM      3  C   UNL     1       2.229   2.994  20.020  0.00  0.00    +0.000 A 
ATOM      4  C   UNL     1       3.128   2.413  20.919  0.00  0.00    +0.000 A 
ATOM      5  C   UNL     1       4.446   2.266  20.529  0.00  0.00    +0.000 A 
ATOM      6  N   UNL     1       4.929   2.645  19.336  0.00  0.00    +0.000 NA
ATOM      7  C   UNL     1       4.064   3.197  18.452  0.00  0.00    +0.000 A 
ATOM      8  C   UNL     1       2.712   3.403  18.755  0.00  0.00    +0.000 A 
BRANCH   5   9
ATOM      9  O   UNL     1       5.368   1.711  21.365  0.00  0.00    +0.000 OA
ATOM     10  H   UNL     1       4.910   1.379  22.150  0.00  0.00    +0.000 HD
ENDBRANCH   5   9
BRANCH   8  11
ATOM     11  C   UNL     1       1.807   4.021  17.828  0.00  0.00    +0.000 C 
ATOM     12  N   UNL     1       1.038   4.443  17.067  0.00  0.00    +0.000 NA
ENDBRANCH   8  11
ENDBRANCH   1   7
BRANCH   1  13
ATOM     13  C   UNL     1       6.315   4.560  17.477  0.00  0.00    +0.000 C 
BRANCH  13  14
ATOM     14  C   UNL     1       6.239   6.067  17.293  0.00  0.00    +0.000 C 
ATOM     15  O   UNL     1       6.985   6.745  16.592  0.00  0.00    +0.000 OA
BRANCH  14  16
ATOM     16  O   UNL     1       5.195   6.570  18.018  0.00  0.00    +0.000 OA
BRANCH  16  17
ATOM     17  C   UNL     1       4.095   7.103  17.257  0.00  0.00    +0.000 C 
BRANCH  17  18
ATOM     18  C   UNL     1       3.041   7.666  18.180  0.00  0.00    +0.000 A 
ATOM     19  C   UNL     1       2.336   8.829  17.839  0.00  0.00    +0.000 A 
ATOM     20  C   UNL     1       1.384   9.363  18.712  0.00  0.00    +0.000 A 
ATOM     21  C   UNL     1       1.112   8.730  19.924  0.00  0.00    +0.000 A 
ATOM     22  C   UNL     1       1.781   7.556  20.259  0.00  0.00    +0.000 A 
ATOM     23  C   UNL     1       2.743   7.028  19.393  0.00  0.00    +0.000 A 
ENDBRANCH  17  18
ENDBRANCH  16  17
ENDBRANCH  14  16
ENDBRANCH  13  14
ENDBRANCH   1  13
TORSDOF 8
ENDMDL
MODEL 8
REMARK VINA RESULT:      -6.5      3.050      6.428
REMARK  Name = 
REMARK  9 active torsions:
REMARK  status: ('A' for Active; 'I' for Inactive)
REMARK    1  A    between atoms: C_1  and  C_2
REMARK    2  A    between atoms: C_4  and  O_5
REMARK    3  A    between atoms: C_7  and  S_8
REMARK    4  A    between atoms: S_8  and  C_9
REMARK    5  A    between atoms: C_9  and  C_10
REMARK    6  A    between atoms: C_10  and  O_12
REMARK    7  A    between atoms: O_12  and  C_13
REMARK    8  A    between atoms: C_13  and  C_14
REMARK    9  A    between atoms: C_20  and  C_21
REMARK                            x       y       z     vdW  Elec       q    Type
REMARK                         _______ _______ _______ _____ _____    ______ ____
ROOT
ATOM      1  S   UNL     1       7.253   4.587  17.853  0.00  0.00    +0.000 S 
ENDROOT
BRANCH   1   7
ATOM      2  C   UNL     1       1.959   5.482  17.851  0.00  0.00    +0.000 C 
ATOM      3  C   UNL     1       3.181   4.759  18.359  0.00  0.00    +0.000 A 
ATOM      4  C   UNL     1       3.038   3.785  19.351  0.00  0.00    +0.000 A 
ATOM      5  C   UNL     1       4.171   3.133  19.801  0.00  0.00    +0.000 A 
ATOM      6  N   UNL     1       5.412   3.371  19.349  0.00  0.00    +0.000 NA
ATOM      7  C   UNL     1       5.560   4.305  18.378  0.00  0.00    +0.000 A 
ATOM      8  C   UNL     1       4.478   5.030  17.864  0.00  0.00    +0.000 A 
BRANCH   5   9
ATOM      9  O   UNL     1       4.094   2.178  20.771  0.00  0.00    +0.000 OA
ATOM     10  H   UNL     1       3.497   1.480  20.466  0.00  0.00    +0.000 HD
ENDBRANCH   5   9
BRANCH   8  11
ATOM     11  C   UNL     1       4.645   6.043  16.860  0.00  0.00    +0.000 C 
ATOM     12  N   UNL     1       4.721   6.819  16.001  0.00  0.00    +0.000 NA
ENDBRANCH   8  11
ENDBRANCH   1   7
BRANCH   1  13
ATOM     13  C   UNL     1       7.654   6.135  18.758  0.00  0.00    +0.000 C 
BRANCH  13  14
ATOM     14  C   UNL     1       7.980   7.285  17.821  0.00  0.00    +0.000 C 
ATOM     15  O   UNL     1       7.854   7.277  16.600  0.00  0.00    +0.000 OA
BRANCH  14  16
ATOM     16  O   UNL     1       8.427   8.358  18.542  0.00  0.00    +0.000 OA
BRANCH  16  17
ATOM     17  C   UNL     1       8.425   9.625  17.859  0.00  0.00    +0.000 C 
BRANCH  17  18
ATOM     18  C   UNL     1       9.235  10.640  18.630  0.00  0.00    +0.000 A 
ATOM     19  C   UNL     1       9.886  11.690  17.968  0.00  0.00    +0.000 A 
ATOM     20  C   UNL     1      10.661  12.607  18.684  0.00  0.00    +0.000 A 
ATOM     21  C   UNL     1      10.775  12.498  20.069  0.00  0.00    +0.000 A 
ATOM     22  C   UNL     1      10.105  11.479  20.741  0.00  0.00    +0.000 A 
ATOM     23  C   UNL     1       9.341  10.553  20.026  0.00  0.00    +0.000 A 
ENDBRANCH  17  18
ENDBRANCH  16  17
ENDBRANCH  14  16
ENDBRANCH  13  14
ENDBRANCH   1  13
TORSDOF 8
ENDMDL
MODEL 9
REMARK VINA RESULT:      -6.5      4.103      7.195
REMARK  Name = 
REMARK  9 active torsions:
REMARK  status: ('A' for Active; 'I' for Inactive)
REMARK    1  A    between atoms: C_1  and  C_2
REMARK    2  A    between atoms: C_4  and  O_5
REMARK    3  A    between atoms: C_7  and  S_8
REMARK    4  A    between atoms: S_8  and  C_9
REMARK    5  A    between atoms: C_9  and  C_10
REMARK    6  A    between atoms: C_10  and  O_12
REMARK    7  A    between atoms: O_12  and  C_13
REMARK    8  A    between atoms: C_13  and  C_14
REMARK    9  A    between atoms: C_20  and  C_21
REMARK                            x       y       z     vdW  Elec       q    Type
REMARK                         _______ _______ _______ _____ _____    ______ ____
ROOT
ATOM      1  S   UNL     1       4.599   5.558  17.410  0.00  0.00    +0.000 S 
ENDROOT
BRANCH   1   7
ATOM      2  C   UNL     1       1.140   3.568  21.003  0.00  0.00    +0.000 C 
ATOM      3  C   UNL     1       2.180   3.392  19.924  0.00  0.00    +0.000 A 
ATOM      4  C   UNL     1       2.559   2.101  19.544  0.00  0.00    +0.000 A 
ATOM      5  C   UNL     1       3.513   1.963  18.553  0.00  0.00    +0.000 A 
ATOM      6  N   UNL     1       4.106   2.988  17.923  0.00  0.00    +0.000 NA
ATOM      7  C   UNL     1       3.736   4.243  18.275  0.00  0.00    +0.000 A 
ATOM      8  C   UNL     1       2.789   4.492  19.277  0.00  0.00    +0.000 A 
BRANCH   5   9
ATOM      9  O   UNL     1       3.926   0.730  18.144  0.00  0.00    +0.000 OA
ATOM     10  H   UNL     1       3.182   0.283  17.716  0.00  0.00    +0.000 HD
ENDBRANCH   5   9
BRANCH   8  11
ATOM     11  C   UNL     1       2.426   5.823  19.671  0.00  0.00    +0.000 C 
ATOM     12  N   UNL     1       2.099   6.912  19.911  0.00  0.00    +0.000 NA
ENDBRANCH   8  11
ENDBRANCH   1   7
BRANCH   1  13
ATOM     13  C   UNL     1       6.276   4.827  17.235  0.00  0.00    +0.000 C 
BRANCH  13  14
ATOM     14  C   UNL     1       6.914   5.159  15.897  0.00  0.00    +0.000 C 
ATOM     15  O   UNL     1       7.708   6.070  15.684  0.00  0.00    +0.000 OA
BRANCH  14  16
ATOM     16  O   UNL     1       6.485   4.274  14.946  0.00  0.00    +0.000 OA
BRANCH  16  17
ATOM     17  C   UNL     1       6.961   4.502  13.608  0.00  0.00    +0.000 C 
BRANCH  17  18
ATOM     18  C   UNL     1       6.228   3.617  12.629  0.00  0.00    +0.000 A 
ATOM     19  C   UNL     1       4.888   3.865  12.302  0.00  0.00    +0.000 A 
ATOM     20  C   UNL     1       4.204   3.023  11.421  0.00  0.00    +0.000 A 
ATOM     21  C   UNL     1       4.859   1.936  10.842  0.00  0.00    +0.000 A 
ATOM     22  C   UNL     1       6.199   1.698  11.133  0.00  0.00    +0.000 A 
ATOM     23  C   UNL     1       6.880   2.532  12.024  0.00  0.00    +0.000 A 
ENDBRANCH  17  18
ENDBRANCH  16  17
ENDBRANCH  14  16
ENDBRANCH  13  14
ENDBRANCH   1  13
TORSDOF 8
ENDMDL
