MODEL 1
REMARK VINA RESULT:      -7.4      0.000      0.000
REMARK  Name = 
REMARK  1 active torsions:
REMARK  status: ('A' for Active; 'I' for Inactive)
REMARK    1  A    between atoms: C_4  and  C_5
REMARK                            x       y       z     vdW  Elec       q    Type
REMARK                         _______ _______ _______ _____ _____    ______ ____
ROOT
ATOM      1  O   UNL     1       7.878   5.290  18.307  0.00  0.00    +0.000 OA
ATOM      2  C   UNL     1       6.785   4.870  17.946  0.00  0.00    +0.000 A 
ATOM      3  O   UNL     1       5.830   4.509  18.836  0.00  0.00    +0.000 OA
ATOM      4  C   UNL     1       4.611   4.123  18.394  0.00  0.00    +0.000 A 
ATOM      5  N   UNL     1       4.253   4.018  17.159  0.00  0.00    +0.000 NA
ATOM      6  C   UNL     1       5.205   4.283  16.185  0.00  0.00    +0.000 A 
ATOM      7  C   UNL     1       4.883   4.093  14.840  0.00  0.00    +0.000 A 
ATOM      8  C   UNL     1       5.822   4.366  13.843  0.00  0.00    +0.000 A 
ATOM      9  C   UNL     1       7.087   4.833  14.195  0.00  0.00    +0.000 A 
ATOM     10 CL   UNL     1       8.237   5.185  12.966  0.00  0.00    +0.000 Cl
ATOM     11  C   UNL     1       7.426   5.013  15.533  0.00  0.00    +0.000 A 
ATOM     12  C   UNL     1       6.475   4.726  16.520  0.00  0.00    +0.000 A 
ENDROOT
BRANCH   4  13
ATOM     13  C   UNL     1       3.717   3.838  19.547  0.00  0.00    +0.000 A 
ATOM     14  C   UNL     1       3.805   2.563  20.143  0.00  0.00    +0.000 A 
ATOM     15  C   UNL     1       3.015   2.228  21.245  0.00  0.00    +0.000 A 
ATOM     16  C   UNL     1       2.134   3.163  21.776  0.00  0.00    +0.000 A 
ATOM     17  C   UNL     1       2.036   4.429  21.201  0.00  0.00    +0.000 A 
ATOM     18  C   UNL     1       2.816   4.773  20.084  0.00  0.00    +0.000 A 
ATOM     19  I   UNL     1       2.444   6.690  19.299  0.00  0.00    +0.000 I 
ENDBRANCH   4  13
TORSDOF 1
ENDMDL
MODEL 2
REMARK VINA RESULT:      -7.2      5.051      7.300
REMARK  Name = 
REMARK  1 active torsions:
REMARK  status: ('A' for Active; 'I' for Inactive)
REMARK    1  A    between atoms: C_4  and  C_5
REMARK                            x       y       z     vdW  Elec       q    Type
REMARK                         _______ _______ _______ _____ _____    ______ ____
ROOT
ATOM      1  O   UNL     1       1.952  10.327  17.415  0.00  0.00    +0.000 OA
ATOM      2  C   UNL     1       2.082   9.283  18.044  0.00  0.00    +0.000 A 
ATOM      3  O   UNL     1       2.763   8.226  17.539  0.00  0.00    +0.000 OA
ATOM      4  C   UNL     1       2.947   7.121  18.298  0.00  0.00    +0.000 A 
ATOM      5  N   UNL     1       2.492   6.939  19.491  0.00  0.00    +0.000 NA
ATOM      6  C   UNL     1       1.707   7.941  20.044  0.00  0.00    +0.000 A 
ATOM      7  C   UNL     1       1.122   7.743  21.296  0.00  0.00    +0.000 A 
ATOM      8  C   UNL     1       0.340   8.743  21.876  0.00  0.00    +0.000 A 
ATOM      9  C   UNL     1       0.144   9.947  21.201  0.00  0.00    +0.000 A 
ATOM     10 CL   UNL     1      -0.806  11.184  21.923  0.00  0.00    +0.000 Cl
ATOM     11  C   UNL     1       0.710  10.151  19.945  0.00  0.00    +0.000 A 
ATOM     12  C   UNL     1       1.485   9.135  19.375  0.00  0.00    +0.000 A 
ENDROOT
BRANCH   4  13
ATOM     13  C   UNL     1       3.770   6.127  17.560  0.00  0.00    +0.000 A 
ATOM     14  C   UNL     1       4.929   6.594  16.906  0.00  0.00    +0.000 A 
ATOM     15  C   UNL     1       5.766   5.718  16.213  0.00  0.00    +0.000 A 
ATOM     16  C   UNL     1       5.468   4.361  16.171  0.00  0.00    +0.000 A 
ATOM     17  C   UNL     1       4.328   3.881  16.815  0.00  0.00    +0.000 A 
ATOM     18  C   UNL     1       3.471   4.755  17.504  0.00  0.00    +0.000 A 
ATOM     19  I   UNL     1       1.750   3.854  18.317  0.00  0.00    +0.000 I 
ENDBRANCH   4  13
TORSDOF 1
ENDMDL
MODEL 3
REMARK VINA RESULT:      -7.0      3.972      6.585
REMARK  Name = 
REMARK  1 active torsions:
REMARK  status: ('A' for Active; 'I' for Inactive)
REMARK    1  A    between atoms: C_4  and  C_5
REMARK                            x       y       z     vdW  Elec       q    Type
REMARK                         _______ _______ _______ _____ _____    ______ ____
ROOT
ATOM      1  O   UNL     1       2.874   4.591  20.664  0.00  0.00    +0.000 OA
ATOM      2  C   UNL     1       3.109   5.360  19.740  0.00  0.00    +0.000 A 
ATOM      3  O   UNL     1       4.000   5.054  18.766  0.00  0.00    +0.000 OA
ATOM      4  C   UNL     1       4.173   5.900  17.724  0.00  0.00    +0.000 A 
ATOM      5  N   UNL     1       3.584   7.036  17.566  0.00  0.00    +0.000 NA
ATOM      6  C   UNL     1       2.723   7.463  18.568  0.00  0.00    +0.000 A 
ATOM      7  C   UNL     1       2.136   8.726  18.478  0.00  0.00    +0.000 A 
ATOM      8  C   UNL     1       1.257   9.169  19.468  0.00  0.00    +0.000 A 
ATOM      9  C   UNL     1       0.963   8.343  20.551  0.00  0.00    +0.000 A 
ATOM     10 CL   UNL     1      -0.133   8.883  21.761  0.00  0.00    +0.000 Cl
ATOM     11  C   UNL     1       1.552   7.086  20.660  0.00  0.00    +0.000 A 
ATOM     12  C   UNL     1       2.437   6.662  19.663  0.00  0.00    +0.000 A 
ENDROOT
BRANCH   4  13
ATOM     13  C   UNL     1       5.147   5.327  16.758  0.00  0.00    +0.000 A 
ATOM     14  C   UNL     1       4.644   4.842  15.533  0.00  0.00    +0.000 A 
ATOM     15  C   UNL     1       5.499   4.311  14.565  0.00  0.00    +0.000 A 
ATOM     16  C   UNL     1       6.869   4.267  14.798  0.00  0.00    +0.000 A 
ATOM     17  C   UNL     1       7.383   4.744  16.002  0.00  0.00    +0.000 A 
ATOM     18  C   UNL     1       6.532   5.268  16.989  0.00  0.00    +0.000 A 
ATOM     19  I   UNL     1       7.489   5.838  18.775  0.00  0.00    +0.000 I 
ENDBRANCH   4  13
TORSDOF 1
ENDMDL
MODEL 4
REMARK VINA RESULT:      -6.8      4.997      6.908
REMARK  Name = 
REMARK  1 active torsions:
REMARK  status: ('A' for Active; 'I' for Inactive)
REMARK    1  A    between atoms: C_4  and  C_5
REMARK                            x       y       z     vdW  Elec       q    Type
REMARK                         _______ _______ _______ _____ _____    ______ ____
ROOT
ATOM      1  O   UNL     1       1.974   9.358  17.182  0.00  0.00    +0.000 OA
ATOM      2  C   UNL     1       1.921   8.548  18.100  0.00  0.00    +0.000 A 
ATOM      3  O   UNL     1       2.205   7.237  17.912  0.00  0.00    +0.000 OA
ATOM      4  C   UNL     1       2.209   6.392  18.969  0.00  0.00    +0.000 A 
ATOM      5  N   UNL     1       1.922   6.703  20.187  0.00  0.00    +0.000 NA
ATOM      6  C   UNL     1       1.532   8.010  20.446  0.00  0.00    +0.000 A 
ATOM      7  C   UNL     1       1.127   8.363  21.734  0.00  0.00    +0.000 A 
ATOM      8  C   UNL     1       0.743   9.676  22.019  0.00  0.00    +0.000 A 
ATOM      9  C   UNL     1       0.768  10.637  21.010  0.00  0.00    +0.000 A 
ATOM     10 CL   UNL     1       0.312  12.256  21.366  0.00  0.00    +0.000 Cl
ATOM     11  C   UNL     1       1.157  10.294  19.718  0.00  0.00    +0.000 A 
ATOM     12  C   UNL     1       1.530   8.973  19.448  0.00  0.00    +0.000 A 
ENDROOT
BRANCH   4  13
ATOM     13  C   UNL     1       2.607   5.028  18.531  0.00  0.00    +0.000 A 
ATOM     14  C   UNL     1       1.697   3.975  18.762  0.00  0.00    +0.000 A 
ATOM     15  C   UNL     1       1.989   2.671  18.358  0.00  0.00    +0.000 A 
ATOM     16  C   UNL     1       3.186   2.398  17.706  0.00  0.00    +0.000 A 
ATOM     17  C   UNL     1       4.096   3.427  17.466  0.00  0.00    +0.000 A 
ATOM     18  C   UNL     1       3.819   4.740  17.881  0.00  0.00    +0.000 A 
ATOM     19  I   UNL     1       5.363   6.127  17.523  0.00  0.00    +0.000 I 
ENDBRANCH   4  13
TORSDOF 1
ENDMDL
MODEL 5
REMARK VINA RESULT:      -6.7      5.877      8.181
REMARK  Name = 
REMARK  1 active torsions:
REMARK  status: ('A' for Active; 'I' for Inactive)
REMARK    1  A    between atoms: C_4  and  C_5
REMARK                            x       y       z     vdW  Elec       q    Type
REMARK                         _______ _______ _______ _____ _____    ______ ____
ROOT
ATOM      1  O   UNL     1       0.132  10.437  18.019  0.00  0.00    +0.000 OA
ATOM      2  C   UNL     1       0.645   9.635  18.791  0.00  0.00    +0.000 A 
ATOM      3  O   UNL     1       1.436   8.627  18.351  0.00  0.00    +0.000 OA
ATOM      4  C   UNL     1       2.044   7.812  19.244  0.00  0.00    +0.000 A 
ATOM      5  N   UNL     1       1.918   7.866  20.526  0.00  0.00    +0.000 NA
ATOM      6  C   UNL     1       1.052   8.815  21.051  0.00  0.00    +0.000 A 
ATOM      7  C   UNL     1       0.819   8.846  22.427  0.00  0.00    +0.000 A 
ATOM      8  C   UNL     1      -0.038   9.801  22.977  0.00  0.00    +0.000 A 
ATOM      9  C   UNL     1      -0.663  10.729  22.145  0.00  0.00    +0.000 A 
ATOM     10 CL   UNL     1      -1.705  11.916  22.826  0.00  0.00    +0.000 Cl
ATOM     11  C   UNL     1      -0.450  10.701  20.770  0.00  0.00    +0.000 A 
ATOM     12  C   UNL     1       0.406   9.731  20.235  0.00  0.00    +0.000 A 
ENDROOT
BRANCH   4  13
ATOM     13  C   UNL     1       2.904   6.829  18.533  0.00  0.00    +0.000 A 
ATOM     14  C   UNL     1       3.758   7.317  17.522  0.00  0.00    +0.000 A 
ATOM     15  C   UNL     1       4.612   6.460  16.826  0.00  0.00    +0.000 A 
ATOM     16  C   UNL     1       4.639   5.105  17.136  0.00  0.00    +0.000 A 
ATOM     17  C   UNL     1       3.805   4.605  18.135  0.00  0.00    +0.000 A 
ATOM     18  C   UNL     1       2.931   5.456  18.832  0.00  0.00    +0.000 A 
ATOM     19  I   UNL     1       1.679   4.494  20.225  0.00  0.00    +0.000 I 
ENDBRANCH   4  13
TORSDOF 1
ENDMDL
MODEL 6
REMARK VINA RESULT:      -6.7      4.643      6.796
REMARK  Name = 
REMARK  1 active torsions:
REMARK  status: ('A' for Active; 'I' for Inactive)
REMARK    1  A    between atoms: C_4  and  C_5
REMARK                            x       y       z     vdW  Elec       q    Type
REMARK                         _______ _______ _______ _____ _____    ______ ____
ROOT
ATOM      1  O   UNL     1       1.881   6.158  20.947  0.00  0.00    +0.000 OA
ATOM      2  C   UNL     1       2.285   6.689  19.919  0.00  0.00    +0.000 A 
ATOM      3  O   UNL     1       3.187   6.083  19.109  0.00  0.00    +0.000 OA
ATOM      4  C   UNL     1       3.547   6.672  17.945  0.00  0.00    +0.000 A 
ATOM      5  N   UNL     1       3.136   7.818  17.519  0.00  0.00    +0.000 NA
ATOM      6  C   UNL     1       2.279   8.543  18.335  0.00  0.00    +0.000 A 
ATOM      7  C   UNL     1       1.885   9.825  17.950  0.00  0.00    +0.000 A 
ATOM      8  C   UNL     1       1.012  10.566  18.751  0.00  0.00    +0.000 A 
ATOM      9  C   UNL     1       0.533  10.019  19.940  0.00  0.00    +0.000 A 
ATOM     10 CL   UNL     1      -0.554  10.926  20.916  0.00  0.00    +0.000 Cl
ATOM     11  C   UNL     1       0.929   8.747  20.342  0.00  0.00    +0.000 A 
ATOM     12  C   UNL     1       1.810   8.022  19.532  0.00  0.00    +0.000 A 
ENDROOT
BRANCH   4  13
ATOM     13  C   UNL     1       4.493   5.798  17.202  0.00  0.00    +0.000 A 
ATOM     14  C   UNL     1       5.669   6.389  16.697  0.00  0.00    +0.000 A 
ATOM     15  C   UNL     1       6.617   5.629  16.009  0.00  0.00    +0.000 A 
ATOM     16  C   UNL     1       6.413   4.267  15.825  0.00  0.00    +0.000 A 
ATOM     17  C   UNL     1       5.257   3.665  16.320  0.00  0.00    +0.000 A 
ATOM     18  C   UNL     1       4.290   4.423  17.002  0.00  0.00    +0.000 A 
ATOM     19  I   UNL     1       2.569   3.353  17.577  0.00  0.00    +0.000 I 
ENDBRANCH   4  13
TORSDOF 1
ENDMDL
MODEL 7
REMARK VINA RESULT:      -6.6      3.384      6.450
REMARK  Name = 
REMARK  1 active torsions:
REMARK  status: ('A' for Active; 'I' for Inactive)
REMARK    1  A    between atoms: C_4  and  C_5
REMARK                            x       y       z     vdW  Elec       q    Type
REMARK                         _______ _______ _______ _____ _____    ______ ____
ROOT
ATOM      1  O   UNL     1       5.349   1.699  20.590  0.00  0.00    +0.000 OA
ATOM      2  C   UNL     1       4.763   2.483  19.852  0.00  0.00    +0.000 A 
ATOM      3  O   UNL     1       5.364   3.023  18.765  0.00  0.00    +0.000 OA
ATOM      4  C   UNL     1       4.656   3.825  17.935  0.00  0.00    +0.000 A 
ATOM      5  N   UNL     1       3.426   4.180  18.094  0.00  0.00    +0.000 NA
ATOM      6  C   UNL     1       2.768   3.740  19.234  0.00  0.00    +0.000 A 
ATOM      7  C   UNL     1       1.466   4.176  19.487  0.00  0.00    +0.000 A 
ATOM      8  C   UNL     1       0.781   3.735  20.622  0.00  0.00    +0.000 A 
ATOM      9  C   UNL     1       1.403   2.854  21.505  0.00  0.00    +0.000 A 
ATOM     10 CL   UNL     1       0.553   2.300  22.893  0.00  0.00    +0.000 Cl
ATOM     11  C   UNL     1       2.706   2.423  21.272  0.00  0.00    +0.000 A 
ATOM     12  C   UNL     1       3.380   2.881  20.134  0.00  0.00    +0.000 A 
ENDROOT
BRANCH   4  13
ATOM     13  C   UNL     1       5.501   4.244  16.786  0.00  0.00    +0.000 A 
ATOM     14  C   UNL     1       5.123   3.803  15.501  0.00  0.00    +0.000 A 
ATOM     15  C   UNL     1       5.852   4.174  14.370  0.00  0.00    +0.000 A 
ATOM     16  C   UNL     1       6.962   5.001  14.501  0.00  0.00    +0.000 A 
ATOM     17  C   UNL     1       7.349   5.449  15.763  0.00  0.00    +0.000 A 
ATOM     18  C   UNL     1       6.631   5.071  16.910  0.00  0.00    +0.000 A 
ATOM     19  I   UNL     1       7.435   5.762  18.728  0.00  0.00    +0.000 I 
ENDBRANCH   4  13
TORSDOF 1
ENDMDL
MODEL 8
REMARK VINA RESULT:      -6.6      4.668      6.007
REMARK  Name = 
REMARK  1 active torsions:
REMARK  status: ('A' for Active; 'I' for Inactive)
REMARK    1  A    between atoms: C_4  and  C_5
REMARK                            x       y       z     vdW  Elec       q    Type
REMARK                         _______ _______ _______ _____ _____    ______ ____
ROOT
ATOM      1  O   UNL     1       1.714   4.659  21.019  0.00  0.00    +0.000 OA
ATOM      2  C   UNL     1       1.797   5.766  20.501  0.00  0.00    +0.000 A 
ATOM      3  O   UNL     1       1.113   6.832  20.981  0.00  0.00    +0.000 OA
ATOM      4  C   UNL     1       1.292   8.052  20.425  0.00  0.00    +0.000 A 
ATOM      5  N   UNL     1       2.049   8.319  19.415  0.00  0.00    +0.000 NA
ATOM      6  C   UNL     1       2.714   7.263  18.809  0.00  0.00    +0.000 A 
ATOM      7  C   UNL     1       3.471   7.497  17.659  0.00  0.00    +0.000 A 
ATOM      8  C   UNL     1       4.159   6.450  17.041  0.00  0.00    +0.000 A 
ATOM      9  C   UNL     1       4.089   5.165  17.577  0.00  0.00    +0.000 A 
ATOM     10 CL   UNL     1       4.950   3.881  16.825  0.00  0.00    +0.000 Cl
ATOM     11  C   UNL     1       3.327   4.916  18.715  0.00  0.00    +0.000 A 
ATOM     12  C   UNL     1       2.638   5.975  19.317  0.00  0.00    +0.000 A 
ENDROOT
BRANCH   4  13
ATOM     13  C   UNL     1       0.490   9.069  21.155  0.00  0.00    +0.000 A 
ATOM     14  C   UNL     1       0.461   8.992  22.562  0.00  0.00    +0.000 A 
ATOM     15  C   UNL     1      -0.250   9.925  23.320  0.00  0.00    +0.000 A 
ATOM     16  C   UNL     1      -0.933  10.956  22.686  0.00  0.00    +0.000 A 
ATOM     17  C   UNL     1      -0.914  11.050  21.295  0.00  0.00    +0.000 A 
ATOM     18  C   UNL     1      -0.212  10.109  20.523  0.00  0.00    +0.000 A 
ATOM     19  I   UNL     1      -0.392  10.361  18.440  0.00  0.00    +0.000 I 
ENDBRANCH   4  13
TORSDOF 1
ENDMDL
MODEL 9
REMARK VINA RESULT:      -6.5      1.734      2.070
REMARK  Name = 
REMARK  1 active torsions:
REMARK  status: ('A' for Active; 'I' for Inactive)
REMARK    1  A    between atoms: C_4  and  C_5
REMARK                            x       y       z     vdW  Elec       q    Type
REMARK                         _______ _______ _______ _____ _____    ______ ____
ROOT
ATOM      1  O   UNL     1       6.691   7.289  17.446  0.00  0.00    +0.000 OA
ATOM      2  C   UNL     1       5.962   6.330  17.220  0.00  0.00    +0.000 A 
ATOM      3  O   UNL     1       5.017   5.929  18.103  0.00  0.00    +0.000 OA
ATOM      4  C   UNL     1       4.183   4.912  17.779  0.00  0.00    +0.000 A 
ATOM      5  N   UNL     1       4.216   4.226  16.688  0.00  0.00    +0.000 NA
ATOM      6  C   UNL     1       5.216   4.517  15.770  0.00  0.00    +0.000 A 
ATOM      7  C   UNL     1       5.340   3.737  14.620  0.00  0.00    +0.000 A 
ATOM      8  C   UNL     1       6.331   4.022  13.677  0.00  0.00    +0.000 A 
ATOM      9  C   UNL     1       7.198   5.092  13.888  0.00  0.00    +0.000 A 
ATOM     10 CL   UNL     1       8.407   5.451  12.719  0.00  0.00    +0.000 Cl
ATOM     11  C   UNL     1       7.094   5.868  15.039  0.00  0.00    +0.000 A 
ATOM     12  C   UNL     1       6.101   5.564  15.976  0.00  0.00    +0.000 A 
ENDROOT
BRANCH   4  13
ATOM     13  C   UNL     1       3.197   4.694  18.870  0.00  0.00    +0.000 A 
ATOM     14  C   UNL     1       2.656   5.834  19.500  0.00  0.00    +0.000 A 
ATOM     15  C   UNL     1       1.707   5.712  20.517  0.00  0.00    +0.000 A 
ATOM     16  C   UNL     1       1.273   4.452  20.912  0.00  0.00    +0.000 A 
ATOM     17  C   UNL     1       1.795   3.314  20.299  0.00  0.00    +0.000 A 
ATOM     18  C   UNL     1       2.760   3.425  19.285  0.00  0.00    +0.000 A 
ATOM     19  I   UNL     1       3.500   1.591  18.560  0.00  0.00    +0.000 I 
ENDBRANCH   4  13
TORSDOF 1
ENDMDL
