MODEL 1
REMARK VINA RESULT:      -9.0      0.000      0.000
REMARK  Name = 
REMARK  6 active torsions:
REMARK  status: ('A' for Active; 'I' for Inactive)
REMARK    1  A    between atoms: C_1  and  C_2
REMARK    2  A    between atoms: C_2  and  C_3
REMARK    3  A    between atoms: C_2  and  N_4
REMARK    4  A    between atoms: C_6  and  C_7
REMARK    5  A    between atoms: C_12  and  C_13
REMARK    6  A    between atoms: C_18  and  C_20
REMARK                            x       y       z     vdW  Elec       q    Type
REMARK                         _______ _______ _______ _____ _____    ______ ____
ROOT
ATOM      1  C   UNL     1       4.153   5.132  18.283  0.00  0.00    +0.000 A 
ATOM      2  C   UNL     1       4.011   4.455  19.479  0.00  0.00    +0.000 A 
ATOM      3  N   UNL     1       3.080   4.982  20.364  0.00  0.00    +0.000 NA
ATOM      4  C   UNL     1       2.551   6.051  19.815  0.00  0.00    +0.000 A 
ATOM      5  N   UNL     1       1.778   6.950  20.503  0.00  0.00    +0.000 N 
ATOM      6  C   UNL     1       1.573   8.247  20.088  0.00  0.00    +0.000 C 
ATOM      7  O   UNL     1       2.012   8.779  19.066  0.00  0.00    +0.000 OA
ATOM      8  S   UNL     1       2.851   6.243  18.158  0.00  0.00    +0.000 S 
ATOM      9  H   UNL     1       1.596   6.688  21.458  0.00  0.00    +0.000 HD
ENDROOT
BRANCH   6  10
ATOM     10  C   UNL     1       0.723   9.100  20.951  0.00  0.00    +0.000 A 
ATOM     11  C   UNL     1       0.795   8.830  22.331  0.00  0.00    +0.000 A 
ATOM     12  C   UNL     1       0.043   9.561  23.241  0.00  0.00    +0.000 A 
ATOM     13  C   UNL     1      -0.795  10.574  22.785  0.00  0.00    +0.000 A 
ATOM     14  C   UNL     1      -0.885  10.842  21.416  0.00  0.00    +0.000 A 
ATOM     15  C   UNL     1      -0.136  10.105  20.492  0.00  0.00    +0.000 A 
ATOM     16 CL   UNL     1      -0.382  10.477  18.821  0.00  0.00    +0.000 Cl
ENDBRANCH   6  10
BRANCH   1  21
ATOM     17  N   UNL     1       6.301   5.764  17.112  0.00  0.00    +0.000 N 
ATOM     18  N   UNL     1       6.913   5.551  15.923  0.00  0.00    +0.000 NA
ATOM     19  C   UNL     1       6.076   4.755  15.231  0.00  0.00    +0.000 A 
ATOM     20  C   UNL     1       4.968   4.397  16.025  0.00  0.00    +0.000 A 
ATOM     21  C   UNL     1       5.115   5.066  17.224  0.00  0.00    +0.000 A 
BRANCH  19  22
ATOM     22  C   UNL     1       6.295   4.339  13.804  0.00  0.00    +0.000 C 
ATOM     23  F   UNL     1       7.224   5.084  13.153  0.00  0.00    +0.000 F 
ATOM     24  F   UNL     1       6.700   3.041  13.717  0.00  0.00    +0.000 F 
ATOM     25  F   UNL     1       5.146   4.424  13.077  0.00  0.00    +0.000 F 
ENDBRANCH  19  22
BRANCH  17  27
ATOM     26  C   UNL     1       7.860   5.887  19.014  0.00  0.00    +0.000 C 
ATOM     27  C   UNL     1       6.938   6.667  18.075  0.00  0.00    +0.000 C 
ATOM     28  C   UNL     1       7.750   7.810  17.443  0.00  0.00    +0.000 C 
ENDBRANCH  17  27
ENDBRANCH   1  21
TORSDOF 4
ENDMDL
MODEL 2
REMARK VINA RESULT:      -8.7      0.756      1.242
REMARK  Name = 
REMARK  6 active torsions:
REMARK  status: ('A' for Active; 'I' for Inactive)
REMARK    1  A    between atoms: C_1  and  C_2
REMARK    2  A    between atoms: C_2  and  C_3
REMARK    3  A    between atoms: C_2  and  N_4
REMARK    4  A    between atoms: C_6  and  C_7
REMARK    5  A    between atoms: C_12  and  C_13
REMARK    6  A    between atoms: C_18  and  C_20
REMARK                            x       y       z     vdW  Elec       q    Type
REMARK                         _______ _______ _______ _____ _____    ______ ____
ROOT
ATOM      1  C   UNL     1       4.652   4.860  17.828  0.00  0.00    +0.000 A 
ATOM      2  C   UNL     1       4.697   4.320  19.099  0.00  0.00    +0.000 A 
ATOM      3  N   UNL     1       3.817   4.871  20.020  0.00  0.00    +0.000 NA
ATOM      4  C   UNL     1       3.138   5.822  19.421  0.00  0.00    +0.000 A 
ATOM      5  N   UNL     1       2.360   6.731  20.090  0.00  0.00    +0.000 N 
ATOM      6  C   UNL     1       1.995   7.949  19.562  0.00  0.00    +0.000 C 
ATOM      7  O   UNL     1       2.276   8.391  18.446  0.00  0.00    +0.000 OA
ATOM      8  S   UNL     1       3.247   5.840  17.731  0.00  0.00    +0.000 S 
ATOM      9  H   UNL     1       2.302   6.570  21.082  0.00  0.00    +0.000 HD
ENDROOT
BRANCH   6  10
ATOM     10  C   UNL     1       1.163   8.827  20.418  0.00  0.00    +0.000 A 
ATOM     11  C   UNL     1       1.311   8.641  21.806  0.00  0.00    +0.000 A 
ATOM     12  C   UNL     1       0.583   9.403  22.710  0.00  0.00    +0.000 A 
ATOM     13  C   UNL     1      -0.307  10.363  22.241  0.00  0.00    +0.000 A 
ATOM     14  C   UNL     1      -0.473  10.548  20.865  0.00  0.00    +0.000 A 
ATOM     15  C   UNL     1       0.251   9.780  19.948  0.00  0.00    +0.000 A 
ATOM     16 CL   UNL     1      -0.089  10.046  18.272  0.00  0.00    +0.000 Cl
ENDBRANCH   6  10
BRANCH   1  21
ATOM     17  N   UNL     1       6.700   5.394  16.446  0.00  0.00    +0.000 N 
ATOM     18  N   UNL     1       7.184   5.148  15.206  0.00  0.00    +0.000 NA
ATOM     19  C   UNL     1       6.251   4.383  14.608  0.00  0.00    +0.000 A 
ATOM     20  C   UNL     1       5.212   4.077  15.509  0.00  0.00    +0.000 A 
ATOM     21  C   UNL     1       5.503   4.747  16.682  0.00  0.00    +0.000 A 
BRANCH  19  22
ATOM     22  C   UNL     1       6.313   3.948  13.171  0.00  0.00    +0.000 C 
ATOM     23  F   UNL     1       6.691   2.655  13.006  0.00  0.00    +0.000 F 
ATOM     24  F   UNL     1       5.107   4.088  12.553  0.00  0.00    +0.000 F 
ATOM     25  F   UNL     1       7.192   4.707  12.457  0.00  0.00    +0.000 F 
ENDBRANCH  19  22
BRANCH  17  27
ATOM     26  C   UNL     1       6.749   7.618  17.504  0.00  0.00    +0.000 C 
ATOM     27  C   UNL     1       7.464   6.276  17.334  0.00  0.00    +0.000 C 
ATOM     28  C   UNL     1       7.740   5.697  18.732  0.00  0.00    +0.000 C 
ENDBRANCH  17  27
ENDBRANCH   1  21
TORSDOF 4
ENDMDL
MODEL 3
REMARK VINA RESULT:      -8.2      1.026      1.134
REMARK  Name = 
REMARK  6 active torsions:
REMARK  status: ('A' for Active; 'I' for Inactive)
REMARK    1  A    between atoms: C_1  and  C_2
REMARK    2  A    between atoms: C_2  and  C_3
REMARK    3  A    between atoms: C_2  and  N_4
REMARK    4  A    between atoms: C_6  and  C_7
REMARK    5  A    between atoms: C_12  and  C_13
REMARK    6  A    between atoms: C_18  and  C_20
REMARK                            x       y       z     vdW  Elec       q    Type
REMARK                         _______ _______ _______ _____ _____    ______ ____
ROOT
ATOM      1  C   UNL     1       4.087   5.759  18.215  0.00  0.00    +0.000 A 
ATOM      2  C   UNL     1       3.918   5.373  19.531  0.00  0.00    +0.000 A 
ATOM      3  N   UNL     1       2.935   6.053  20.238  0.00  0.00    +0.000 NA
ATOM      4  C   UNL     1       2.395   6.942  19.438  0.00  0.00    +0.000 A 
ATOM      5  N   UNL     1       1.567   7.944  19.871  0.00  0.00    +0.000 N 
ATOM      6  C   UNL     1       1.338   9.100  19.159  0.00  0.00    +0.000 C 
ATOM      7  O   UNL     1       1.802   9.399  18.056  0.00  0.00    +0.000 OA
ATOM      8  S   UNL     1       2.757   6.757  17.793  0.00  0.00    +0.000 S 
ATOM      9  H   UNL     1       1.355   7.905  20.855  0.00  0.00    +0.000 HD
ENDROOT
BRANCH   6  10
ATOM     10  C   UNL     1       0.427  10.095  19.771  0.00  0.00    +0.000 A 
ATOM     11  C   UNL     1       0.775  10.522  21.067  0.00  0.00    +0.000 A 
ATOM     12  C   UNL     1      -0.002  11.451  21.746  0.00  0.00    +0.000 A 
ATOM     13  C   UNL     1      -1.143  11.967  21.140  0.00  0.00    +0.000 A 
ATOM     14  C   UNL     1      -1.507  11.540  19.859  0.00  0.00    +0.000 A 
ATOM     15  C   UNL     1      -0.733  10.600  19.171  0.00  0.00    +0.000 A 
ATOM     16 CL   UNL     1      -1.319  10.094  17.624  0.00  0.00    +0.000 Cl
ENDBRANCH   6  10
BRANCH   1  21
ATOM     17  N   UNL     1       6.381   5.985  17.179  0.00  0.00    +0.000 N 
ATOM     18  N   UNL     1       7.028   5.617  16.048  0.00  0.00    +0.000 NA
ATOM     19  C   UNL     1       6.121   4.927  15.330  0.00  0.00    +0.000 A 
ATOM     20  C   UNL     1       4.921   4.789  16.054  0.00  0.00    +0.000 A 
ATOM     21  C   UNL     1       5.093   5.488  17.233  0.00  0.00    +0.000 A 
BRANCH  19  22
ATOM     22  C   UNL     1       6.364   4.408  13.941  0.00  0.00    +0.000 C 
ATOM     23  F   UNL     1       7.346   5.067  13.275  0.00  0.00    +0.000 F 
ATOM     24  F   UNL     1       6.709   3.091  13.951  0.00  0.00    +0.000 F 
ATOM     25  F   UNL     1       5.242   4.498  13.172  0.00  0.00    +0.000 F 
ENDBRANCH  19  22
BRANCH  17  27
ATOM     26  C   UNL     1       8.020   5.976  19.017  0.00  0.00    +0.000 C 
ATOM     27  C   UNL     1       7.089   6.825  18.149  0.00  0.00    +0.000 C 
ATOM     28  C   UNL     1       7.917   7.964  17.528  0.00  0.00    +0.000 C 
ENDBRANCH  17  27
ENDBRANCH   1  21
TORSDOF 4
ENDMDL
MODEL 4
REMARK VINA RESULT:      -8.1      1.110      1.509
REMARK  Name = 
REMARK  6 active torsions:
REMARK  status: ('A' for Active; 'I' for Inactive)
REMARK    1  A    between atoms: C_1  and  C_2
REMARK    2  A    between atoms: C_2  and  C_3
REMARK    3  A    between atoms: C_2  and  N_4
REMARK    4  A    between atoms: C_6  and  C_7
REMARK    5  A    between atoms: C_12  and  C_13
REMARK    6  A    between atoms: C_18  and  C_20
REMARK                            x       y       z     vdW  Elec       q    Type
REMARK                         _______ _______ _______ _____ _____    ______ ____
ROOT
ATOM      1  C   UNL     1       4.084   5.573  18.251  0.00  0.00    +0.000 A 
ATOM      2  C   UNL     1       3.913   5.076  19.529  0.00  0.00    +0.000 A 
ATOM      3  N   UNL     1       2.949   5.714  20.299  0.00  0.00    +0.000 NA
ATOM      4  C   UNL     1       2.426   6.682  19.584  0.00  0.00    +0.000 A 
ATOM      5  N   UNL     1       1.623   7.660  20.109  0.00  0.00    +0.000 N 
ATOM      6  C   UNL     1       1.417   8.879  19.502  0.00  0.00    +0.000 C 
ATOM      7  O   UNL     1       1.882   9.262  18.427  0.00  0.00    +0.000 OA
ATOM      8  S   UNL     1       2.775   6.633  17.927  0.00  0.00    +0.000 S 
ATOM      9  H   UNL     1       1.414   7.539  21.087  0.00  0.00    +0.000 HD
ENDROOT
BRANCH   6  10
ATOM     10  C   UNL     1       0.531   9.836  20.205  0.00  0.00    +0.000 A 
ATOM     11  C   UNL     1      -0.318  10.597  19.379  0.00  0.00    +0.000 A 
ATOM     12  C   UNL     1      -1.193  11.530  19.920  0.00  0.00    +0.000 A 
ATOM     13  C   UNL     1      -1.232  11.717  21.299  0.00  0.00    +0.000 A 
ATOM     14  C   UNL     1      -0.384  10.977  22.128  0.00  0.00    +0.000 A 
ATOM     15  C   UNL     1       0.505  10.041  21.590  0.00  0.00    +0.000 A 
ATOM     16 CL   UNL     1       1.555   9.237  22.705  0.00  0.00    +0.000 Cl
ENDBRANCH   6  10
BRANCH   1  21
ATOM     17  N   UNL     1       6.338   5.930  17.165  0.00  0.00    +0.000 N 
ATOM     18  N   UNL     1       6.976   5.611  16.015  0.00  0.00    +0.000 NA
ATOM     19  C   UNL     1       6.089   4.884  15.308  0.00  0.00    +0.000 A 
ATOM     20  C   UNL     1       4.915   4.675  16.058  0.00  0.00    +0.000 A 
ATOM     21  C   UNL     1       5.080   5.367  17.242  0.00  0.00    +0.000 A 
BRANCH  19  22
ATOM     22  C   UNL     1       6.325   4.396  13.906  0.00  0.00    +0.000 C 
ATOM     23  F   UNL     1       7.257   5.112  13.227  0.00  0.00    +0.000 F 
ATOM     24  F   UNL     1       6.737   3.098  13.891  0.00  0.00    +0.000 F 
ATOM     25  F   UNL     1       5.182   4.438  13.165  0.00  0.00    +0.000 F 
ENDBRANCH  19  22
BRANCH  17  27
ATOM     26  C   UNL     1       7.974   5.973  19.005  0.00  0.00    +0.000 C 
ATOM     27  C   UNL     1       7.025   6.794  18.130  0.00  0.00    +0.000 C 
ATOM     28  C   UNL     1       7.827   7.947  17.501  0.00  0.00    +0.000 C 
ENDBRANCH  17  27
ENDBRANCH   1  21
TORSDOF 4
ENDMDL
MODEL 5
REMARK VINA RESULT:      -8.0      3.367      4.533
REMARK  Name = 
REMARK  6 active torsions:
REMARK  status: ('A' for Active; 'I' for Inactive)
REMARK    1  A    between atoms: C_1  and  C_2
REMARK    2  A    between atoms: C_2  and  C_3
REMARK    3  A    between atoms: C_2  and  N_4
REMARK    4  A    between atoms: C_6  and  C_7
REMARK    5  A    between atoms: C_12  and  C_13
REMARK    6  A    between atoms: C_18  and  C_20
REMARK                            x       y       z     vdW  Elec       q    Type
REMARK                         _______ _______ _______ _____ _____    ______ ____
ROOT
ATOM      1  C   UNL     1       2.390   7.256  18.591  0.00  0.00    +0.000 A 
ATOM      2  C   UNL     1       2.528   8.229  17.619  0.00  0.00    +0.000 A 
ATOM      3  N   UNL     1       2.009   9.477  17.937  0.00  0.00    +0.000 NA
ATOM      4  C   UNL     1       1.483   9.409  19.137  0.00  0.00    +0.000 A 
ATOM      5  N   UNL     1       0.675  10.383  19.664  0.00  0.00    +0.000 N 
ATOM      6  C   UNL     1      -0.203  10.160  20.701  0.00  0.00    +0.000 C 
ATOM      7  O   UNL     1      -0.382   9.103  21.311  0.00  0.00    +0.000 OA
ATOM      8  S   UNL     1       1.899   8.036  20.038  0.00  0.00    +0.000 S 
ATOM      9  H   UNL     1       0.568  11.191  19.073  0.00  0.00    +0.000 HD
ENDROOT
BRANCH   6  10
ATOM     10  C   UNL     1      -1.018  11.314  21.148  0.00  0.00    +0.000 A 
ATOM     11  C   UNL     1      -0.870  11.674  22.501  0.00  0.00    +0.000 A 
ATOM     12  C   UNL     1      -1.583  12.738  23.039  0.00  0.00    +0.000 A 
ATOM     13  C   UNL     1      -2.457  13.458  22.231  0.00  0.00    +0.000 A 
ATOM     14  C   UNL     1      -2.623  13.101  20.890  0.00  0.00    +0.000 A 
ATOM     15  C   UNL     1      -1.915  12.026  20.343  0.00  0.00    +0.000 A 
ATOM     16 CL   UNL     1      -2.254  11.632  18.693  0.00  0.00    +0.000 Cl
ENDBRANCH   6  10
BRANCH   1  21
ATOM     17  N   UNL     1       3.480   5.098  17.854  0.00  0.00    +0.000 N 
ATOM     18  N   UNL     1       3.305   3.765  18.010  0.00  0.00    +0.000 NA
ATOM     19  C   UNL     1       2.228   3.639  18.808  0.00  0.00    +0.000 A 
ATOM     20  C   UNL     1       1.775   4.906  19.227  0.00  0.00    +0.000 A 
ATOM     21  C   UNL     1       2.576   5.837  18.593  0.00  0.00    +0.000 A 
BRANCH  19  22
ATOM     22  C   UNL     1       1.596   2.326  19.171  0.00  0.00    +0.000 C 
ATOM     23  F   UNL     1       0.386   2.122  18.590  0.00  0.00    +0.000 F 
ATOM     24  F   UNL     1       2.386   1.274  18.817  0.00  0.00    +0.000 F 
ATOM     25  F   UNL     1       1.406   2.218  20.517  0.00  0.00    +0.000 F 
ENDBRANCH  19  22
BRANCH  17  27
ATOM     26  C   UNL     1       5.735   6.086  17.775  0.00  0.00    +0.000 C 
ATOM     27  C   UNL     1       4.547   5.565  16.964  0.00  0.00    +0.000 C 
ATOM     28  C   UNL     1       5.066   4.508  15.975  0.00  0.00    +0.000 C 
ENDBRANCH  17  27
ENDBRANCH   1  21
TORSDOF 4
ENDMDL
MODEL 6
REMARK VINA RESULT:      -7.9      2.887      4.125
REMARK  Name = 
REMARK  6 active torsions:
REMARK  status: ('A' for Active; 'I' for Inactive)
REMARK    1  A    between atoms: C_1  and  C_2
REMARK    2  A    between atoms: C_2  and  C_3
REMARK    3  A    between atoms: C_2  and  N_4
REMARK    4  A    between atoms: C_6  and  C_7
REMARK    5  A    between atoms: C_12  and  C_13
REMARK    6  A    between atoms: C_18  and  C_20
REMARK                            x       y       z     vdW  Elec       q    Type
REMARK                         _______ _______ _______ _____ _____    ______ ____
ROOT
ATOM      1  C   UNL     1       2.805   6.806  18.839  0.00  0.00    +0.000 A 
ATOM      2  C   UNL     1       2.202   6.839  20.082  0.00  0.00    +0.000 A 
ATOM      3  N   UNL     1       1.505   8.001  20.384  0.00  0.00    +0.000 NA
ATOM      4  C   UNL     1       1.611   8.820  19.364  0.00  0.00    +0.000 A 
ATOM      5  N   UNL     1       1.251  10.142  19.416  0.00  0.00    +0.000 N 
ATOM      6  C   UNL     1       1.728  11.091  18.540  0.00  0.00    +0.000 C 
ATOM      7  O   UNL     1       2.500  10.912  17.596  0.00  0.00    +0.000 OA
ATOM      8  S   UNL     1       2.193   8.127  17.932  0.00  0.00    +0.000 S 
ATOM      9  H   UNL     1       0.839  10.421  20.291  0.00  0.00    +0.000 HD
ENDROOT
BRANCH   6  10
ATOM     10  C   UNL     1       1.255  12.482  18.737  0.00  0.00    +0.000 A 
ATOM     11  C   UNL     1       2.224  13.392  19.202  0.00  0.00    +0.000 A 
ATOM     12  C   UNL     1       1.902  14.724  19.428  0.00  0.00    +0.000 A 
ATOM     13  C   UNL     1       0.604  15.167  19.193  0.00  0.00    +0.000 A 
ATOM     14  C   UNL     1      -0.370  14.269  18.745  0.00  0.00    +0.000 A 
ATOM     15  C   UNL     1      -0.055  12.925  18.523  0.00  0.00    +0.000 A 
ATOM     16 CL   UNL     1      -1.356  11.892  18.038  0.00  0.00    +0.000 Cl
ENDBRANCH   6  10
BRANCH   1  21
ATOM     17  N   UNL     1       3.765   4.551  18.225  0.00  0.00    +0.000 N 
ATOM     18  N   UNL     1       4.888   4.041  17.667  0.00  0.00    +0.000 NA
ATOM     19  C   UNL     1       5.655   5.108  17.374  0.00  0.00    +0.000 A 
ATOM     20  C   UNL     1       4.971   6.303  17.674  0.00  0.00    +0.000 A 
ATOM     21  C   UNL     1       3.765   5.932  18.236  0.00  0.00    +0.000 A 
BRANCH  19  22
ATOM     22  C   UNL     1       7.053   5.018  16.830  0.00  0.00    +0.000 C 
ATOM     23  F   UNL     1       7.133   4.388  15.631  0.00  0.00    +0.000 F 
ATOM     24  F   UNL     1       7.607   6.251  16.666  0.00  0.00    +0.000 F 
ATOM     25  F   UNL     1       7.877   4.345  17.681  0.00  0.00    +0.000 F 
ENDBRANCH  19  22
BRANCH  17  27
ATOM     26  C   UNL     1       1.480   3.703  17.872  0.00  0.00    +0.000 C 
ATOM     27  C   UNL     1       2.747   3.622  18.725  0.00  0.00    +0.000 C 
ATOM     28  C   UNL     1       3.195   2.151  18.785  0.00  0.00    +0.000 C 
ENDBRANCH  17  27
ENDBRANCH   1  21
TORSDOF 4
ENDMDL
MODEL 7
REMARK VINA RESULT:      -7.8      5.186      8.580
REMARK  Name = 
REMARK  6 active torsions:
REMARK  status: ('A' for Active; 'I' for Inactive)
REMARK    1  A    between atoms: C_1  and  C_2
REMARK    2  A    between atoms: C_2  and  C_3
REMARK    3  A    between atoms: C_2  and  N_4
REMARK    4  A    between atoms: C_6  and  C_7
REMARK    5  A    between atoms: C_12  and  C_13
REMARK    6  A    between atoms: C_18  and  C_20
REMARK                            x       y       z     vdW  Elec       q    Type
REMARK                         _______ _______ _______ _____ _____    ______ ____
ROOT
ATOM      1  C   UNL     1       0.291   9.854  19.555  0.00  0.00    +0.000 A 
ATOM      2  C   UNL     1       0.344   9.702  20.928  0.00  0.00    +0.000 A 
ATOM      3  N   UNL     1       1.142   8.663  21.389  0.00  0.00    +0.000 NA
ATOM      4  C   UNL     1       1.661   8.052  20.350  0.00  0.00    +0.000 A 
ATOM      5  N   UNL     1       2.300   6.842  20.427  0.00  0.00    +0.000 N 
ATOM      6  C   UNL     1       2.469   6.004  19.348  0.00  0.00    +0.000 C 
ATOM      7  O   UNL     1       2.111   6.206  18.185  0.00  0.00    +0.000 OA
ATOM      8  S   UNL     1       1.529   8.879  18.878  0.00  0.00    +0.000 S 
ATOM      9  H   UNL     1       2.394   6.486  21.365  0.00  0.00    +0.000 HD
ENDROOT
BRANCH   6  10
ATOM     10  C   UNL     1       3.170   4.723  19.598  0.00  0.00    +0.000 A 
ATOM     11  C   UNL     1       4.490   4.647  19.113  0.00  0.00    +0.000 A 
ATOM     12  C   UNL     1       5.248   3.497  19.284  0.00  0.00    +0.000 A 
ATOM     13  C   UNL     1       4.698   2.401  19.942  0.00  0.00    +0.000 A 
ATOM     14  C   UNL     1       3.384   2.460  20.416  0.00  0.00    +0.000 A 
ATOM     15  C   UNL     1       2.611   3.612  20.241  0.00  0.00    +0.000 A 
ATOM     16 CL   UNL     1       0.977   3.544  20.805  0.00  0.00    +0.000 Cl
ENDBRANCH   6  10
BRANCH   1  21
ATOM     17  N   UNL     1      -0.597  11.995  18.549  0.00  0.00    +0.000 N 
ATOM     18  N   UNL     1      -1.590  12.395  17.720  0.00  0.00    +0.000 NA
ATOM     19  C   UNL     1      -2.233  11.266  17.366  0.00  0.00    +0.000 A 
ATOM     20  C   UNL     1      -1.586  10.140  17.912  0.00  0.00    +0.000 A 
ATOM     21  C   UNL     1      -0.547  10.621  18.684  0.00  0.00    +0.000 A 
BRANCH  19  22
ATOM     22  C   UNL     1      -3.480  11.233  16.529  0.00  0.00    +0.000 C 
ATOM     23  F   UNL     1      -4.420  12.134  16.912  0.00  0.00    +0.000 F 
ATOM     24  F   UNL     1      -3.210  11.479  15.217  0.00  0.00    +0.000 F 
ATOM     25  F   UNL     1      -4.074  10.007  16.568  0.00  0.00    +0.000 F 
ENDBRANCH  19  22
BRANCH  17  27
ATOM     26  C   UNL     1       1.586  13.128  18.436  0.00  0.00    +0.000 C 
ATOM     27  C   UNL     1       0.250  13.017  19.172  0.00  0.00    +0.000 C 
ATOM     28  C   UNL     1      -0.380  14.419  19.239  0.00  0.00    +0.000 C 
ENDBRANCH  17  27
ENDBRANCH   1  21
TORSDOF 4
ENDMDL
MODEL 8
REMARK VINA RESULT:      -7.8      3.756      5.118
REMARK  Name = 
REMARK  6 active torsions:
REMARK  status: ('A' for Active; 'I' for Inactive)
REMARK    1  A    between atoms: C_1  and  C_2
REMARK    2  A    between atoms: C_2  and  C_3
REMARK    3  A    between atoms: C_2  and  N_4
REMARK    4  A    between atoms: C_6  and  C_7
REMARK    5  A    between atoms: C_12  and  C_13
REMARK    6  A    between atoms: C_18  and  C_20
REMARK                            x       y       z     vdW  Elec       q    Type
REMARK                         _______ _______ _______ _____ _____    ______ ____
ROOT
ATOM      1  C   UNL     1       2.197   7.476  19.342  0.00  0.00    +0.000 A 
ATOM      2  C   UNL     1       2.123   8.156  18.141  0.00  0.00    +0.000 A 
ATOM      3  N   UNL     1       1.491   9.391  18.186  0.00  0.00    +0.000 NA
ATOM      4  C   UNL     1       1.095   9.606  19.418  0.00  0.00    +0.000 A 
ATOM      5  N   UNL     1       0.231  10.610  19.771  0.00  0.00    +0.000 N 
ATOM      6  C   UNL     1      -0.510  10.600  20.931  0.00  0.00    +0.000 C 
ATOM      7  O   UNL     1      -0.501   9.738  21.813  0.00  0.00    +0.000 OA
ATOM      8  S   UNL     1       1.758   8.573  20.586  0.00  0.00    +0.000 S 
ATOM      9  H   UNL     1      -0.029  11.214  19.008  0.00  0.00    +0.000 HD
ENDROOT
BRANCH   6  10
ATOM     10  C   UNL     1      -1.410  11.754  21.161  0.00  0.00    +0.000 A 
ATOM     11  C   UNL     1      -1.305  12.364  22.426  0.00  0.00    +0.000 A 
ATOM     12  C   UNL     1      -2.098  13.453  22.762  0.00  0.00    +0.000 A 
ATOM     13  C   UNL     1      -3.011  13.950  21.837  0.00  0.00    +0.000 A 
ATOM     14  C   UNL     1      -3.134  13.344  20.583  0.00  0.00    +0.000 A 
ATOM     15  C   UNL     1      -2.345  12.242  20.240  0.00  0.00    +0.000 A 
ATOM     16 CL   UNL     1      -2.634  11.531  18.690  0.00  0.00    +0.000 Cl
ENDBRANCH   6  10
BRANCH   1  21
ATOM     17  N   UNL     1       3.634   5.400  19.247  0.00  0.00    +0.000 N 
ATOM     18  N   UNL     1       3.601   4.118  19.683  0.00  0.00    +0.000 NA
ATOM     19  C   UNL     1       2.444   4.005  20.362  0.00  0.00    +0.000 A 
ATOM     20  C   UNL     1       1.786   5.249  20.425  0.00  0.00    +0.000 A 
ATOM     21  C   UNL     1       2.551   6.133  19.690  0.00  0.00    +0.000 A 
BRANCH  19  22
ATOM     22  C   UNL     1       1.930   2.718  20.943  0.00  0.00    +0.000 C 
ATOM     23  F   UNL     1       2.739   2.184  21.893  0.00  0.00    +0.000 F 
ATOM     24  F   UNL     1       0.704   2.880  21.514  0.00  0.00    +0.000 F 
ATOM     25  F   UNL     1       1.774   1.764  19.981  0.00  0.00    +0.000 F 
ENDBRANCH  19  22
BRANCH  17  27
ATOM     26  C   UNL     1       6.061   5.196  18.884  0.00  0.00    +0.000 C 
ATOM     27  C   UNL     1       4.752   5.822  18.399  0.00  0.00    +0.000 C 
ATOM     28  C   UNL     1       4.586   5.493  16.905  0.00  0.00    +0.000 C 
ENDBRANCH  17  27
ENDBRANCH   1  21
TORSDOF 4
ENDMDL
MODEL 9
REMARK VINA RESULT:      -7.7      2.860      4.086
REMARK  Name = 
REMARK  6 active torsions:
REMARK  status: ('A' for Active; 'I' for Inactive)
REMARK    1  A    between atoms: C_1  and  C_2
REMARK    2  A    between atoms: C_2  and  C_3
REMARK    3  A    between atoms: C_2  and  N_4
REMARK    4  A    between atoms: C_6  and  C_7
REMARK    5  A    between atoms: C_12  and  C_13
REMARK    6  A    between atoms: C_18  and  C_20
REMARK                            x       y       z     vdW  Elec       q    Type
REMARK                         _______ _______ _______ _____ _____    ______ ____
ROOT
ATOM      1  C   UNL     1       2.855   6.664  18.928  0.00  0.00    +0.000 A 
ATOM      2  C   UNL     1       2.302   6.683  20.194  0.00  0.00    +0.000 A 
ATOM      3  N   UNL     1       1.554   7.809  20.509  0.00  0.00    +0.000 NA
ATOM      4  C   UNL     1       1.571   8.616  19.474  0.00  0.00    +0.000 A 
ATOM      5  N   UNL     1       1.140   9.916  19.522  0.00  0.00    +0.000 N 
ATOM      6  C   UNL     1       1.526  10.876  18.613  0.00  0.00    +0.000 C 
ATOM      7  O   UNL     1       2.268  10.725  17.640  0.00  0.00    +0.000 OA
ATOM      8  S   UNL     1       2.132   7.933  18.028  0.00  0.00    +0.000 S 
ATOM      9  H   UNL     1       0.749  10.186  20.410  0.00  0.00    +0.000 HD
ENDROOT
BRANCH   6  10
ATOM     10  C   UNL     1       0.984  12.241  18.811  0.00  0.00    +0.000 A 
ATOM     11  C   UNL     1      -0.387  12.311  19.124  0.00  0.00    +0.000 A 
ATOM     12  C   UNL     1      -1.011  13.534  19.330  0.00  0.00    +0.000 A 
ATOM     13  C   UNL     1      -0.274  14.709  19.224  0.00  0.00    +0.000 A 
ATOM     14  C   UNL     1       1.085  14.653  18.901  0.00  0.00    +0.000 A 
ATOM     15  C   UNL     1       1.719  13.425  18.684  0.00  0.00    +0.000 A 
ATOM     16 CL   UNL     1       3.385  13.482  18.220  0.00  0.00    +0.000 Cl
ENDBRANCH   6  10
BRANCH   1  21
ATOM     17  N   UNL     1       3.844   4.458  18.193  0.00  0.00    +0.000 N 
ATOM     18  N   UNL     1       4.986   3.989  17.637  0.00  0.00    +0.000 NA
ATOM     19  C   UNL     1       5.757   5.076  17.441  0.00  0.00    +0.000 A 
ATOM     20  C   UNL     1       5.058   6.246  17.798  0.00  0.00    +0.000 A 
ATOM     21  C   UNL     1       3.837   5.835  18.297  0.00  0.00    +0.000 A 
BRANCH  19  22
ATOM     22  C   UNL     1       7.171   5.027  16.935  0.00  0.00    +0.000 C 
ATOM     23  F   UNL     1       8.024   4.368  17.759  0.00  0.00    +0.000 F 
ATOM     24  F   UNL     1       7.247   4.417  15.719  0.00  0.00    +0.000 F 
ATOM     25  F   UNL     1       7.682   6.278  16.762  0.00  0.00    +0.000 F 
ENDBRANCH  19  22
BRANCH  17  27
ATOM     26  C   UNL     1       1.532   3.709  17.796  0.00  0.00    +0.000 C 
ATOM     27  C   UNL     1       2.816   3.494  18.599  0.00  0.00    +0.000 C 
ATOM     28  C   UNL     1       3.229   2.019  18.460  0.00  0.00    +0.000 C 
ENDBRANCH  17  27
ENDBRANCH   1  21
TORSDOF 4
ENDMDL
