MODEL 1
REMARK VINA RESULT:      -7.8      0.000      0.000
REMARK  Name = 
REMARK  4 active torsions:
REMARK  status: ('A' for Active; 'I' for Inactive)
REMARK    1  A    between atoms: C_1  and  C_2
REMARK    2  A    between atoms: C_6  and  C_7
REMARK    3  A    between atoms: C_7  and  O_9
REMARK    4  A    between atoms: C_16  and  N_17
REMARK                            x       y       z     vdW  Elec       q    Type
REMARK                         _______ _______ _______ _____ _____    ______ ____
ROOT
ATOM      1  C   UNL     1       1.876   4.411  21.209  0.00  0.00    +0.000 C 
ATOM      2  C   UNL     1       2.899   4.111  20.164  0.00  0.00    +0.000 A 
ATOM      3  C   UNL     1       3.455   2.882  20.134  0.00  0.00    +0.000 A 
ATOM      4  S   UNL     1       4.625   2.650  18.881  0.00  0.00    +0.000 S 
ATOM      5  C   UNL     1       4.340   4.333  18.353  0.00  0.00    +0.000 A 
ATOM      6  C   UNL     1       4.989   4.868  17.294  0.00  0.00    +0.000 A 
ATOM      7  C   UNL     1       4.637   6.273  16.987  0.00  0.00    +0.000 A 
ATOM      8  O   UNL     1       5.172   6.853  16.044  0.00  0.00    +0.000 OA
ATOM      9  C   UNL     1       3.635   6.985  17.796  0.00  0.00    +0.000 A 
ATOM     10  C   UNL     1       3.334   8.305  17.438  0.00  0.00    +0.000 A 
ATOM     11  C   UNL     1       2.367   9.008  18.134  0.00  0.00    +0.000 A 
ATOM     12  F   UNL     1       2.084  10.248  17.707  0.00  0.00    +0.000 F 
ATOM     13  C   UNL     1       1.671   8.432  19.202  0.00  0.00    +0.000 A 
ATOM     14  C   UNL     1       2.037   7.102  19.557  0.00  0.00    +0.000 A 
ATOM     15  C   UNL     1       3.003   6.338  18.869  0.00  0.00    +0.000 A 
ATOM     16  N   UNL     1       3.373   4.991  19.163  0.00  0.00    +0.000 N 
ENDROOT
BRANCH  13  17
ATOM     17  N   UNL     1       0.681   9.093  19.924  0.00  0.00    +0.000 N 
ATOM     18  C   UNL     1       0.222   8.620  21.249  0.00  0.00    +0.000 C 
ATOM     19  C   UNL     1       0.677   9.548  22.397  0.00  0.00    +0.000 C 
ATOM     20  N   UNL     1       0.324  10.963  22.169  0.00  0.00    +0.000 NA
ATOM     21  C   UNL     1       0.913  11.394  20.891  0.00  0.00    +0.000 C 
ATOM     22  C   UNL     1       0.468  10.536  19.682  0.00  0.00    +0.000 C 
ATOM     23  H   UNL     1       0.704  11.530  22.926  0.00  0.00    +0.000 HD
ENDBRANCH  13  17
BRANCH   6  24
ATOM     24  C   UNL     1       5.994   4.155  16.440  0.00  0.00    +0.000 C 
ATOM     25  O   UNL     1       5.756   3.588  15.387  0.00  0.00    +0.000 OA
BRANCH  24  26
ATOM     26  O   UNL     1       7.260   4.174  16.917  0.00  0.00    +0.000 OA
ATOM     27  H   UNL     1       7.964   3.969  16.256  0.00  0.00    +0.000 HD
ENDBRANCH  24  26
ENDBRANCH   6  24
TORSDOF 3
ENDMDL
MODEL 2
REMARK VINA RESULT:      -7.7      0.804      1.039
REMARK  Name = 
REMARK  4 active torsions:
REMARK  status: ('A' for Active; 'I' for Inactive)
REMARK    1  A    between atoms: C_1  and  C_2
REMARK    2  A    between atoms: C_6  and  C_7
REMARK    3  A    between atoms: C_7  and  O_9
REMARK    4  A    between atoms: C_16  and  N_17
REMARK                            x       y       z     vdW  Elec       q    Type
REMARK                         _______ _______ _______ _____ _____    ______ ____
ROOT
ATOM      1  C   UNL     1       1.354   4.541  20.794  0.00  0.00    +0.000 C 
ATOM      2  C   UNL     1       2.429   4.219  19.808  0.00  0.00    +0.000 A 
ATOM      3  C   UNL     1       2.884   2.952  19.736  0.00  0.00    +0.000 A 
ATOM      4  S   UNL     1       4.126   2.698  18.560  0.00  0.00    +0.000 S 
ATOM      5  C   UNL     1       4.020   4.428  18.126  0.00  0.00    +0.000 A 
ATOM      6  C   UNL     1       4.790   4.969  17.155  0.00  0.00    +0.000 A 
ATOM      7  C   UNL     1       4.577   6.415  16.919  0.00  0.00    +0.000 A 
ATOM      8  O   UNL     1       5.228   7.004  16.057  0.00  0.00    +0.000 OA
ATOM      9  C   UNL     1       3.575   7.159  17.698  0.00  0.00    +0.000 A 
ATOM     10  C   UNL     1       3.410   8.520  17.408  0.00  0.00    +0.000 A 
ATOM     11  C   UNL     1       2.450   9.259  18.078  0.00  0.00    +0.000 A 
ATOM     12  F   UNL     1       2.302  10.541  17.715  0.00  0.00    +0.000 F 
ATOM     13  C   UNL     1       1.630   8.679  19.051  0.00  0.00    +0.000 A 
ATOM     14  C   UNL     1       1.859   7.304  19.342  0.00  0.00    +0.000 A 
ATOM     15  C   UNL     1       2.811   6.505  18.676  0.00  0.00    +0.000 A 
ATOM     16  N   UNL     1       3.048   5.116  18.905  0.00  0.00    +0.000 N 
ENDROOT
BRANCH  13  17
ATOM     17  N   UNL     1       0.643   9.377  19.741  0.00  0.00    +0.000 N 
ATOM     18  C   UNL     1       0.928  10.123  20.987  0.00  0.00    +0.000 C 
ATOM     19  C   UNL     1       0.866  11.654  20.786  0.00  0.00    +0.000 C 
ATOM     20  N   UNL     1      -0.393  12.101  20.158  0.00  0.00    +0.000 NA
ATOM     21  C   UNL     1      -0.550  11.404  18.871  0.00  0.00    +0.000 C 
ATOM     22  C   UNL     1      -0.540   9.861  18.997  0.00  0.00    +0.000 C 
ATOM     23  H   UNL     1      -0.348  13.106  19.996  0.00  0.00    +0.000 HD
ENDBRANCH  13  17
BRANCH   6  24
ATOM     24  C   UNL     1       5.798   4.226  16.331  0.00  0.00    +0.000 C 
ATOM     25  O   UNL     1       5.605   3.767  15.218  0.00  0.00    +0.000 OA
BRANCH  24  26
ATOM     26  O   UNL     1       7.012   4.085  16.910  0.00  0.00    +0.000 OA
ATOM     27  H   UNL     1       7.614   4.862  16.827  0.00  0.00    +0.000 HD
ENDBRANCH  24  26
ENDBRANCH   6  24
TORSDOF 3
ENDMDL
MODEL 3
REMARK VINA RESULT:      -7.3      2.482      3.619
REMARK  Name = 
REMARK  4 active torsions:
REMARK  status: ('A' for Active; 'I' for Inactive)
REMARK    1  A    between atoms: C_1  and  C_2
REMARK    2  A    between atoms: C_6  and  C_7
REMARK    3  A    between atoms: C_7  and  O_9
REMARK    4  A    between atoms: C_16  and  N_17
REMARK                            x       y       z     vdW  Elec       q    Type
REMARK                         _______ _______ _______ _____ _____    ______ ____
ROOT
ATOM      1  C   UNL     1       4.499   7.389  16.169  0.00  0.00    +0.000 C 
ATOM      2  C   UNL     1       4.598   6.004  16.720  0.00  0.00    +0.000 A 
ATOM      3  C   UNL     1       5.408   5.118  16.105  0.00  0.00    +0.000 A 
ATOM      4  S   UNL     1       5.443   3.549  16.831  0.00  0.00    +0.000 S 
ATOM      5  C   UNL     1       4.285   4.131  18.061  0.00  0.00    +0.000 A 
ATOM      6  C   UNL     1       3.843   3.333  19.059  0.00  0.00    +0.000 A 
ATOM      7  C   UNL     1       2.888   3.970  19.994  0.00  0.00    +0.000 A 
ATOM      8  O   UNL     1       2.425   3.329  20.937  0.00  0.00    +0.000 OA
ATOM      9  C   UNL     1       2.495   5.377  19.818  0.00  0.00    +0.000 A 
ATOM     10  C   UNL     1       1.605   5.922  20.751  0.00  0.00    +0.000 A 
ATOM     11  C   UNL     1       1.236   7.253  20.661  0.00  0.00    +0.000 A 
ATOM     12  F   UNL     1       0.426   7.731  21.617  0.00  0.00    +0.000 F 
ATOM     13  C   UNL     1       1.732   8.081  19.649  0.00  0.00    +0.000 A 
ATOM     14  C   UNL     1       2.603   7.475  18.698  0.00  0.00    +0.000 A 
ATOM     15  C   UNL     1       3.021   6.130  18.757  0.00  0.00    +0.000 A 
ATOM     16  N   UNL     1       3.922   5.491  17.852  0.00  0.00    +0.000 N 
ENDROOT
BRANCH  13  17
ATOM     17  N   UNL     1       1.402   9.428  19.524  0.00  0.00    +0.000 N 
ATOM     18  C   UNL     1       0.874   9.998  18.264  0.00  0.00    +0.000 C 
ATOM     19  C   UNL     1      -0.620  10.377  18.368  0.00  0.00    +0.000 C 
ATOM     20  N   UNL     1      -0.915  11.244  19.525  0.00  0.00    +0.000 NA
ATOM     21  C   UNL     1      -0.469  10.560  20.750  0.00  0.00    +0.000 C 
ATOM     22  C   UNL     1       1.033  10.186  20.739  0.00  0.00    +0.000 C 
ATOM     23  H   UNL     1      -1.920  11.407  19.575  0.00  0.00    +0.000 HD
ENDBRANCH  13  17
BRANCH   6  24
ATOM     24  C   UNL     1       4.248   1.906  19.275  0.00  0.00    +0.000 C 
ATOM     25  O   UNL     1       3.840   0.949  18.639  0.00  0.00    +0.000 OA
BRANCH  24  26
ATOM     26  O   UNL     1       5.149   1.715  20.265  0.00  0.00    +0.000 OA
ATOM     27  H   UNL     1       5.623   2.526  20.569  0.00  0.00    +0.000 HD
ENDBRANCH  24  26
ENDBRANCH   6  24
TORSDOF 3
ENDMDL
MODEL 4
REMARK VINA RESULT:      -6.9      3.805      7.011
REMARK  Name = 
REMARK  4 active torsions:
REMARK  status: ('A' for Active; 'I' for Inactive)
REMARK    1  A    between atoms: C_1  and  C_2
REMARK    2  A    between atoms: C_6  and  C_7
REMARK    3  A    between atoms: C_7  and  O_9
REMARK    4  A    between atoms: C_16  and  N_17
REMARK                            x       y       z     vdW  Elec       q    Type
REMARK                         _______ _______ _______ _____ _____    ______ ____
ROOT
ATOM      1  C   UNL     1      -0.246   8.739  22.966  0.00  0.00    +0.000 C 
ATOM      2  C   UNL     1      -0.095   9.926  22.072  0.00  0.00    +0.000 A 
ATOM      3  C   UNL     1      -0.613  11.107  22.469  0.00  0.00    +0.000 A 
ATOM      4  S   UNL     1      -0.377  12.408  21.355  0.00  0.00    +0.000 S 
ATOM      5  C   UNL     1       0.492  11.280  20.275  0.00  0.00    +0.000 A 
ATOM      6  C   UNL     1       1.021  11.682  19.098  0.00  0.00    +0.000 A 
ATOM      7  C   UNL     1       1.709  10.624  18.325  0.00  0.00    +0.000 A 
ATOM      8  O   UNL     1       2.224  10.886  17.239  0.00  0.00    +0.000 OA
ATOM      9  C   UNL     1       1.800   9.253  18.853  0.00  0.00    +0.000 A 
ATOM     10  C   UNL     1       2.484   8.307  18.079  0.00  0.00    +0.000 A 
ATOM     11  C   UNL     1       2.640   7.014  18.547  0.00  0.00    +0.000 A 
ATOM     12  F   UNL     1       3.354   6.169  17.788  0.00  0.00    +0.000 F 
ATOM     13  C   UNL     1       2.126   6.618  19.786  0.00  0.00    +0.000 A 
ATOM     14  C   UNL     1       1.403   7.601  20.520  0.00  0.00    +0.000 A 
ATOM     15  C   UNL     1       1.232   8.935  20.096  0.00  0.00    +0.000 A 
ATOM     16  N   UNL     1       0.552   9.964  20.814  0.00  0.00    +0.000 N 
ENDROOT
BRANCH  13  17
ATOM     17  N   UNL     1       2.269   5.334  20.305  0.00  0.00    +0.000 N 
ATOM     18  C   UNL     1       1.112   4.437  20.523  0.00  0.00    +0.000 C 
ATOM     19  C   UNL     1       1.082   3.259  19.524  0.00  0.00    +0.000 C 
ATOM     20  N   UNL     1       2.353   2.509  19.480  0.00  0.00    +0.000 NA
ATOM     21  C   UNL     1       3.439   3.445  19.144  0.00  0.00    +0.000 C 
ATOM     22  C   UNL     1       3.559   4.634  20.128  0.00  0.00    +0.000 C 
ATOM     23  H   UNL     1       2.293   1.788  18.763  0.00  0.00    +0.000 HD
ENDBRANCH  13  17
BRANCH   6  24
ATOM     24  C   UNL     1       0.963  13.077  18.552  0.00  0.00    +0.000 C 
ATOM     25  O   UNL     1       1.834  13.923  18.672  0.00  0.00    +0.000 OA
BRANCH  24  26
ATOM     26  O   UNL     1      -0.167  13.374  17.870  0.00  0.00    +0.000 OA
ATOM     27  H   UNL     1      -0.674  14.150  18.209  0.00  0.00    +0.000 HD
ENDBRANCH  24  26
ENDBRANCH   6  24
TORSDOF 3
ENDMDL
MODEL 5
REMARK VINA RESULT:      -6.8      4.327      7.404
REMARK  Name = 
REMARK  4 active torsions:
REMARK  status: ('A' for Active; 'I' for Inactive)
REMARK    1  A    between atoms: C_1  and  C_2
REMARK    2  A    between atoms: C_6  and  C_7
REMARK    3  A    between atoms: C_7  and  O_9
REMARK    4  A    between atoms: C_16  and  N_17
REMARK                            x       y       z     vdW  Elec       q    Type
REMARK                         _______ _______ _______ _____ _____    ______ ____
ROOT
ATOM      1  C   UNL     1      -0.355   8.659  22.841  0.00  0.00    +0.000 C 
ATOM      2  C   UNL     1      -0.398  10.039  22.272  0.00  0.00    +0.000 A 
ATOM      3  C   UNL     1      -1.041  11.005  22.960  0.00  0.00    +0.000 A 
ATOM      4  S   UNL     1      -1.024  12.561  22.204  0.00  0.00    +0.000 S 
ATOM      5  C   UNL     1      -0.074  11.860  20.863  0.00  0.00    +0.000 A 
ATOM      6  C   UNL     1       0.343  12.608  19.816  0.00  0.00    +0.000 A 
ATOM      7  C   UNL     1       1.121  11.875  18.792  0.00  0.00    +0.000 A 
ATOM      8  O   UNL     1       1.545  12.464  17.799  0.00  0.00    +0.000 OA
ATOM      9  C   UNL     1       1.409  10.441  18.958  0.00  0.00    +0.000 A 
ATOM     10  C   UNL     1       2.168   9.815  17.961  0.00  0.00    +0.000 A 
ATOM     11  C   UNL     1       2.508   8.480  18.087  0.00  0.00    +0.000 A 
ATOM     12  F   UNL     1       3.284   7.952  17.129  0.00  0.00    +0.000 F 
ATOM     13  C   UNL     1       2.108   7.725  19.195  0.00  0.00    +0.000 A 
ATOM     14  C   UNL     1       1.304   8.391  20.163  0.00  0.00    +0.000 A 
ATOM     15  C   UNL     1       0.946   9.753  20.090  0.00  0.00    +0.000 A 
ATOM     16  N   UNL     1       0.177  10.472  21.054  0.00  0.00    +0.000 N 
ENDROOT
BRANCH  13  17
ATOM     17  N   UNL     1       2.436   6.384  19.373  0.00  0.00    +0.000 N 
ATOM     18  C   UNL     1       2.037   5.627  20.580  0.00  0.00    +0.000 C 
ATOM     19  C   UNL     1       0.940   4.581  20.286  0.00  0.00    +0.000 C 
ATOM     20  N   UNL     1       1.286   3.682  19.168  0.00  0.00    +0.000 NA
ATOM     21  C   UNL     1       1.555   4.499  17.973  0.00  0.00    +0.000 C 
ATOM     22  C   UNL     1       2.677   5.545  18.178  0.00  0.00    +0.000 C 
ATOM     23  H   UNL     1       0.501   3.058  18.983  0.00  0.00    +0.000 HD
ENDBRANCH  13  17
BRANCH   6  24
ATOM     24  C   UNL     1       0.084  14.074  19.639  0.00  0.00    +0.000 C 
ATOM     25  O   UNL     1       0.625  14.971  20.264  0.00  0.00    +0.000 OA
BRANCH  24  26
ATOM     26  O   UNL     1      -0.830  14.378  18.690  0.00  0.00    +0.000 OA
ATOM     27  H   UNL     1      -1.417  13.634  18.413  0.00  0.00    +0.000 HD
ENDBRANCH  24  26
ENDBRANCH   6  24
TORSDOF 3
ENDMDL
MODEL 6
REMARK VINA RESULT:      -6.8      7.814     11.156
REMARK  Name = 
REMARK  4 active torsions:
REMARK  status: ('A' for Active; 'I' for Inactive)
REMARK    1  A    between atoms: C_1  and  C_2
REMARK    2  A    between atoms: C_6  and  C_7
REMARK    3  A    between atoms: C_7  and  O_9
REMARK    4  A    between atoms: C_16  and  N_17
REMARK                            x       y       z     vdW  Elec       q    Type
REMARK                         _______ _______ _______ _____ _____    ______ ____
ROOT
ATOM      1  C   UNL     1      -5.570  12.314  17.735  0.00  0.00    +0.000 C 
ATOM      2  C   UNL     1      -6.094  12.524  19.117  0.00  0.00    +0.000 A 
ATOM      3  C   UNL     1      -7.427  12.624  19.297  0.00  0.00    +0.000 A 
ATOM      4  S   UNL     1      -7.916  12.865  20.939  0.00  0.00    +0.000 S 
ATOM      5  C   UNL     1      -6.196  12.822  21.421  0.00  0.00    +0.000 A 
ATOM      6  C   UNL     1      -5.813  12.949  22.712  0.00  0.00    +0.000 A 
ATOM      7  C   UNL     1      -4.352  12.890  22.941  0.00  0.00    +0.000 A 
ATOM      8  O   UNL     1      -3.899  12.996  24.080  0.00  0.00    +0.000 OA
ATOM      9  C   UNL     1      -3.427  12.687  21.814  0.00  0.00    +0.000 A 
ATOM     10  C   UNL     1      -2.059  12.620  22.105  0.00  0.00    +0.000 A 
ATOM     11  C   UNL     1      -1.146  12.385  21.091  0.00  0.00    +0.000 A 
ATOM     12  F   UNL     1       0.143  12.274  21.441  0.00  0.00    +0.000 F 
ATOM     13  C   UNL     1      -1.556  12.213  19.765  0.00  0.00    +0.000 A 
ATOM     14  C   UNL     1      -2.952  12.330  19.509  0.00  0.00    +0.000 A 
ATOM     15  C   UNL     1      -3.922  12.550  20.508  0.00  0.00    +0.000 A 
ATOM     16  N   UNL     1      -5.333  12.634  20.305  0.00  0.00    +0.000 N 
ENDROOT
BRANCH  13  17
ATOM     17  N   UNL     1      -0.679  11.962  18.714  0.00  0.00    +0.000 N 
ATOM     18  C   UNL     1       0.293  12.972  18.238  0.00  0.00    +0.000 C 
ATOM     19  C   UNL     1       1.750  12.605  18.599  0.00  0.00    +0.000 C 
ATOM     20  N   UNL     1       2.123  11.243  18.170  0.00  0.00    +0.000 NA
ATOM     21  C   UNL     1       1.184  10.285  18.776  0.00  0.00    +0.000 C 
ATOM     22  C   UNL     1      -0.297  10.563  18.424  0.00  0.00    +0.000 C 
ATOM     23  H   UNL     1       3.070  11.038  18.490  0.00  0.00    +0.000 HD
ENDBRANCH  13  17
BRANCH   6  24
ATOM     24  C   UNL     1      -6.738  13.130  23.878  0.00  0.00    +0.000 C 
ATOM     25  O   UNL     1      -7.468  12.272  24.345  0.00  0.00    +0.000 OA
BRANCH  24  26
ATOM     26  O   UNL     1      -6.721  14.365  24.430  0.00  0.00    +0.000 OA
ATOM     27  H   UNL     1      -6.392  14.409  25.359  0.00  0.00    +0.000 HD
ENDBRANCH  24  26
ENDBRANCH   6  24
TORSDOF 3
ENDMDL
MODEL 7
REMARK VINA RESULT:      -6.6      4.872      8.155
REMARK  Name = 
REMARK  4 active torsions:
REMARK  status: ('A' for Active; 'I' for Inactive)
REMARK    1  A    between atoms: C_1  and  C_2
REMARK    2  A    between atoms: C_6  and  C_7
REMARK    3  A    between atoms: C_7  and  O_9
REMARK    4  A    between atoms: C_16  and  N_17
REMARK                            x       y       z     vdW  Elec       q    Type
REMARK                         _______ _______ _______ _____ _____    ______ ____
ROOT
ATOM      1  C   UNL     1       2.345  11.392  17.670  0.00  0.00    +0.000 C 
ATOM      2  C   UNL     1       1.502  11.831  18.822  0.00  0.00    +0.000 A 
ATOM      3  C   UNL     1       1.110  13.120  18.885  0.00  0.00    +0.000 A 
ATOM      4  S   UNL     1       0.138  13.512  20.261  0.00  0.00    +0.000 S 
ATOM      5  C   UNL     1       0.262  11.809  20.788  0.00  0.00    +0.000 A 
ATOM      6  C   UNL     1      -0.346  11.363  21.911  0.00  0.00    +0.000 A 
ATOM      7  C   UNL     1      -0.145   9.926  22.205  0.00  0.00    +0.000 A 
ATOM      8  O   UNL     1      -0.655   9.422  23.204  0.00  0.00    +0.000 OA
ATOM      9  C   UNL     1       0.651   9.083  21.298  0.00  0.00    +0.000 A 
ATOM     10  C   UNL     1       0.782   7.727  21.625  0.00  0.00    +0.000 A 
ATOM     11  C   UNL     1       1.481   6.878  20.786  0.00  0.00    +0.000 A 
ATOM     12  F   UNL     1       1.523   5.581  21.124  0.00  0.00    +0.000 F 
ATOM     13  C   UNL     1       2.071   7.340  19.604  0.00  0.00    +0.000 A 
ATOM     14  C   UNL     1       1.946   8.732  19.332  0.00  0.00    +0.000 A 
ATOM     15  C   UNL     1       1.231   9.635  20.146  0.00  0.00    +0.000 A 
ATOM     16  N   UNL     1       1.045  11.027  19.893  0.00  0.00    +0.000 N 
ENDROOT
BRANCH  13  17
ATOM     17  N   UNL     1       2.771   6.523  18.722  0.00  0.00    +0.000 N 
ATOM     18  C   UNL     1       4.171   6.110  18.970  0.00  0.00    +0.000 C 
ATOM     19  C   UNL     1       4.290   4.612  19.329  0.00  0.00    +0.000 C 
ATOM     20  N   UNL     1       3.626   3.731  18.349  0.00  0.00    +0.000 NA
ATOM     21  C   UNL     1       2.212   4.126  18.243  0.00  0.00    +0.000 C 
ATOM     22  C   UNL     1       2.011   5.607  17.843  0.00  0.00    +0.000 C 
ATOM     23  H   UNL     1       3.685   2.765  18.671  0.00  0.00    +0.000 HD
ENDBRANCH  13  17
BRANCH   6  24
ATOM     24  C   UNL     1      -1.182  12.197  22.835  0.00  0.00    +0.000 C 
ATOM     25  O   UNL     1      -0.786  13.148  23.487  0.00  0.00    +0.000 OA
BRANCH  24  26
ATOM     26  O   UNL     1      -2.481  11.827  22.914  0.00  0.00    +0.000 OA
ATOM     27  H   UNL     1      -2.867  11.828  23.822  0.00  0.00    +0.000 HD
ENDBRANCH  24  26
ENDBRANCH   6  24
TORSDOF 3
ENDMDL
MODEL 8
REMARK VINA RESULT:      -6.6      7.028      9.422
REMARK  Name = 
REMARK  4 active torsions:
REMARK  status: ('A' for Active; 'I' for Inactive)
REMARK    1  A    between atoms: C_1  and  C_2
REMARK    2  A    between atoms: C_6  and  C_7
REMARK    3  A    between atoms: C_7  and  O_9
REMARK    4  A    between atoms: C_16  and  N_17
REMARK                            x       y       z     vdW  Elec       q    Type
REMARK                         _______ _______ _______ _____ _____    ______ ____
ROOT
ATOM      1  C   UNL     1      -0.664  12.069  21.867  0.00  0.00    +0.000 C 
ATOM      2  C   UNL     1      -0.983  11.637  20.474  0.00  0.00    +0.000 A 
ATOM      3  C   UNL     1      -0.020  11.037  19.744  0.00  0.00    +0.000 A 
ATOM      4  S   UNL     1      -0.504  10.580  18.148  0.00  0.00    +0.000 S 
ATOM      5  C   UNL     1      -2.129  11.239  18.490  0.00  0.00    +0.000 A 
ATOM      6  C   UNL     1      -3.125  11.193  17.576  0.00  0.00    +0.000 A 
ATOM      7  C   UNL     1      -4.409  11.781  18.019  0.00  0.00    +0.000 A 
ATOM      8  O   UNL     1      -5.379  11.791  17.262  0.00  0.00    +0.000 OA
ATOM      9  C   UNL     1      -4.546  12.345  19.371  0.00  0.00    +0.000 A 
ATOM     10  C   UNL     1      -5.795  12.866  19.732  0.00  0.00    +0.000 A 
ATOM     11  C   UNL     1      -5.994  13.368  21.006  0.00  0.00    +0.000 A 
ATOM     12  F   UNL     1      -7.227  13.799  21.309  0.00  0.00    +0.000 F 
ATOM     13  C   UNL     1      -4.969  13.372  21.958  0.00  0.00    +0.000 A 
ATOM     14  C   UNL     1      -3.705  12.871  21.536  0.00  0.00    +0.000 A 
ATOM     15  C   UNL     1      -3.457  12.333  20.256  0.00  0.00    +0.000 A 
ATOM     16  N   UNL     1      -2.220  11.783  19.802  0.00  0.00    +0.000 N 
ENDROOT
BRANCH  13  17
ATOM     17  N   UNL     1      -5.124  13.853  23.255  0.00  0.00    +0.000 N 
ATOM     18  C   UNL     1      -4.320  13.343  24.387  0.00  0.00    +0.000 C 
ATOM     19  C   UNL     1      -3.288  14.376  24.892  0.00  0.00    +0.000 C 
ATOM     20  N   UNL     1      -3.890  15.689  25.197  0.00  0.00    +0.000 NA
ATOM     21  C   UNL     1      -4.572  16.186  23.991  0.00  0.00    +0.000 C 
ATOM     22  C   UNL     1      -5.654  15.221  23.449  0.00  0.00    +0.000 C 
ATOM     23  H   UNL     1      -3.154  16.342  25.464  0.00  0.00    +0.000 HD
ENDBRANCH  13  17
BRANCH   6  24
ATOM     24  C   UNL     1      -3.017  10.601  16.203  0.00  0.00    +0.000 C 
ATOM     25  O   UNL     1      -2.831   9.423  15.951  0.00  0.00    +0.000 OA
BRANCH  24  26
ATOM     26  O   UNL     1      -3.150  11.488  15.191  0.00  0.00    +0.000 OA
ATOM     27  H   UNL     1      -3.518  12.368  15.444  0.00  0.00    +0.000 HD
ENDBRANCH  24  26
ENDBRANCH   6  24
TORSDOF 3
ENDMDL
MODEL 9
REMARK VINA RESULT:      -6.6      7.016      9.650
REMARK  Name = 
REMARK  4 active torsions:
REMARK  status: ('A' for Active; 'I' for Inactive)
REMARK    1  A    between atoms: C_1  and  C_2
REMARK    2  A    between atoms: C_6  and  C_7
REMARK    3  A    between atoms: C_7  and  O_9
REMARK    4  A    between atoms: C_16  and  N_17
REMARK                            x       y       z     vdW  Elec       q    Type
REMARK                         _______ _______ _______ _____ _____    ______ ____
ROOT
ATOM      1  C   UNL     1      -0.964  12.021  21.838  0.00  0.00    +0.000 C 
ATOM      2  C   UNL     1      -1.154  11.582  20.424  0.00  0.00    +0.000 A 
ATOM      3  C   UNL     1      -0.120  11.003  19.780  0.00  0.00    +0.000 A 
ATOM      4  S   UNL     1      -0.457  10.536  18.149  0.00  0.00    +0.000 S 
ATOM      5  C   UNL     1      -2.119  11.162  18.350  0.00  0.00    +0.000 A 
ATOM      6  C   UNL     1      -3.032  11.096  17.355  0.00  0.00    +0.000 A 
ATOM      7  C   UNL     1      -4.361  11.658  17.686  0.00  0.00    +0.000 A 
ATOM      8  O   UNL     1      -5.263  11.648  16.850  0.00  0.00    +0.000 OA
ATOM      9  C   UNL     1      -4.624  12.218  19.022  0.00  0.00    +0.000 A 
ATOM     10  C   UNL     1      -5.910  12.713  19.274  0.00  0.00    +0.000 A 
ATOM     11  C   UNL     1      -6.227  13.210  20.526  0.00  0.00    +0.000 A 
ATOM     12  F   UNL     1      -7.489  13.616  20.722  0.00  0.00    +0.000 F 
ATOM     13  C   UNL     1      -5.286  13.236  21.561  0.00  0.00    +0.000 A 
ATOM     14  C   UNL     1      -3.981  12.760  21.249  0.00  0.00    +0.000 A 
ATOM     15  C   UNL     1      -3.614  12.228  19.996  0.00  0.00    +0.000 A 
ATOM     16  N   UNL     1      -2.332  11.704  19.649  0.00  0.00    +0.000 N 
ENDROOT
BRANCH  13  17
ATOM     17  N   UNL     1      -5.561  13.713  22.840  0.00  0.00    +0.000 N 
ATOM     18  C   UNL     1      -5.767  15.152  23.118  0.00  0.00    +0.000 C 
ATOM     19  C   UNL     1      -7.238  15.484  23.454  0.00  0.00    +0.000 C 
ATOM     20  N   UNL     1      -7.789  14.635  24.528  0.00  0.00    +0.000 NA
ATOM     21  C   UNL     1      -7.656  13.225  24.129  0.00  0.00    +0.000 C 
ATOM     22  C   UNL     1      -6.199  12.804  23.817  0.00  0.00    +0.000 C 
ATOM     23  H   UNL     1      -8.775  14.859  24.660  0.00  0.00    +0.000 HD
ENDBRANCH  13  17
BRANCH   6  24
ATOM     24  C   UNL     1      -2.796  10.507  15.997  0.00  0.00    +0.000 C 
ATOM     25  O   UNL     1      -2.598   9.328  15.760  0.00  0.00    +0.000 OA
BRANCH  24  26
ATOM     26  O   UNL     1      -2.820  11.398  14.980  0.00  0.00    +0.000 OA
ATOM     27  H   UNL     1      -2.097  11.301  14.315  0.00  0.00    +0.000 HD
ENDBRANCH  24  26
ENDBRANCH   6  24
TORSDOF 3
ENDMDL
