MODEL 1
REMARK VINA RESULT:      -8.1      0.000      0.000
REMARK  Name = 
REMARK  7 active torsions:
REMARK  status: ('A' for Active; 'I' for Inactive)
REMARK    1  A    between atoms: C_1  and  O_2
REMARK    2  A    between atoms: O_2  and  C_3
REMARK    3  A    between atoms: C_3  and  C_5
REMARK    4  A    between atoms: C_10  and  O_11
REMARK    5  A    between atoms: N_14  and  C_15
REMARK    6  A    between atoms: C_15  and  C_16
REMARK    7  A    between atoms: C_19  and  C_20
REMARK                            x       y       z     vdW  Elec       q    Type
REMARK                         _______ _______ _______ _____ _____    ______ ____
ROOT
ATOM      1  C   UNL     1       2.535   6.305  18.736  0.00  0.00    +0.000 C 
ATOM      2  C   UNL     1       1.479   5.363  18.147  0.00  0.00    +0.000 C 
ATOM      3  C   UNL     1       1.697   4.033  18.851  0.00  0.00    +0.000 C 
ATOM      4  C   UNL     1       0.779   3.900  20.081  0.00  0.00    +0.000 C 
ATOM      5  C   UNL     1       1.199   2.759  20.996  0.00  0.00    +0.000 C 
ATOM      6  C   UNL     1       2.647   2.949  21.414  0.00  0.00    +0.000 C 
ATOM      7  C   UNL     1       3.534   2.948  20.177  0.00  0.00    +0.000 C 
ATOM      8  C   UNL     1       3.203   4.054  19.160  0.00  0.00    +0.000 C 
ATOM      9  N   UNL     1       3.460   5.449  19.560  0.00  0.00    +0.000 NA
ENDROOT
BRANCH   1  10
ATOM     10  C   UNL     1       1.999   7.478  19.589  0.00  0.00    +0.000 C 
ATOM     11  O   UNL     1       1.692   7.391  20.763  0.00  0.00    +0.000 OA
BRANCH  10  13
ATOM     12  C   UNL     1       1.045   9.607  19.315  0.00  0.00    +0.000 C 
ATOM     13  O   UNL     1       2.024   8.653  18.890  0.00  0.00    +0.000 OA
ENDBRANCH  10  13
ENDBRANCH   1  10
BRANCH   6  14
ATOM     14  O   UNL     1       3.021   1.892  22.297  0.00  0.00    +0.000 OA
ATOM     15  H   UNL     1       3.000   1.055  21.804  0.00  0.00    +0.000 HD
ENDBRANCH   6  14
BRANCH   9  16
ATOM     16  C   UNL     1       4.841   5.934  19.352  0.00  0.00    +0.000 C 
BRANCH  16  17
ATOM     17  C   UNL     1       5.444   5.697  17.979  0.00  0.00    +0.000 A 
ATOM     18  C   UNL     1       6.378   4.676  17.754  0.00  0.00    +0.000 A 
ATOM     19  C   UNL     1       6.781   4.352  16.453  0.00  0.00    +0.000 A 
ATOM     20  C   UNL     1       6.213   4.988  15.337  0.00  0.00    +0.000 A 
ATOM     21  C   UNL     1       5.324   6.048  15.588  0.00  0.00    +0.000 A 
ATOM     22  C   UNL     1       4.990   6.437  16.885  0.00  0.00    +0.000 A 
BRANCH  20  23
ATOM     23  C   UNL     1       6.520   4.577  13.950  0.00  0.00    +0.000 A 
ATOM     24  C   UNL     1       7.541   5.183  13.197  0.00  0.00    +0.000 A 
ATOM     25  C   UNL     1       7.792   4.793  11.878  0.00  0.00    +0.000 A 
ATOM     26  C   UNL     1       7.040   3.779  11.292  0.00  0.00    +0.000 A 
ATOM     27  C   UNL     1       6.048   3.141  12.028  0.00  0.00    +0.000 A 
ATOM     28  C   UNL     1       5.793   3.540  13.338  0.00  0.00    +0.000 A 
ENDBRANCH  20  23
ENDBRANCH  16  17
ENDBRANCH   9  16
TORSDOF 6
ENDMDL
MODEL 2
REMARK VINA RESULT:      -8.1      0.475      1.222
REMARK  Name = 
REMARK  7 active torsions:
REMARK  status: ('A' for Active; 'I' for Inactive)
REMARK    1  A    between atoms: C_1  and  O_2
REMARK    2  A    between atoms: O_2  and  C_3
REMARK    3  A    between atoms: C_3  and  C_5
REMARK    4  A    between atoms: C_10  and  O_11
REMARK    5  A    between atoms: N_14  and  C_15
REMARK    6  A    between atoms: C_15  and  C_16
REMARK    7  A    between atoms: C_19  and  C_20
REMARK                            x       y       z     vdW  Elec       q    Type
REMARK                         _______ _______ _______ _____ _____    ______ ____
ROOT
ATOM      1  C   UNL     1       2.611   6.282  18.640  0.00  0.00    +0.000 C 
ATOM      2  C   UNL     1       1.546   5.352  18.048  0.00  0.00    +0.000 C 
ATOM      3  C   UNL     1       1.691   4.046  18.813  0.00  0.00    +0.000 C 
ATOM      4  C   UNL     1       0.722   3.995  20.010  0.00  0.00    +0.000 C 
ATOM      5  C   UNL     1       1.068   2.880  20.987  0.00  0.00    +0.000 C 
ATOM      6  C   UNL     1       2.504   3.040  21.454  0.00  0.00    +0.000 C 
ATOM      7  C   UNL     1       3.438   2.958  20.254  0.00  0.00    +0.000 C 
ATOM      8  C   UNL     1       3.184   4.030  19.180  0.00  0.00    +0.000 C 
ATOM      9  N   UNL     1       3.473   5.432  19.533  0.00  0.00    +0.000 NA
ENDROOT
BRANCH   1  10
ATOM     10  C   UNL     1       2.084   7.507  19.422  0.00  0.00    +0.000 C 
ATOM     11  O   UNL     1       1.890   8.605  18.933  0.00  0.00    +0.000 OA
BRANCH  10  13
ATOM     12  C   UNL     1       1.077   8.212  21.424  0.00  0.00    +0.000 C 
ATOM     13  O   UNL     1       1.750   7.173  20.706  0.00  0.00    +0.000 OA
ENDBRANCH  10  13
ENDBRANCH   1  10
BRANCH   6  14
ATOM     14  O   UNL     1       2.808   2.009  22.393  0.00  0.00    +0.000 OA
ATOM     15  H   UNL     1       3.631   2.242  22.854  0.00  0.00    +0.000 HD
ENDBRANCH   6  14
BRANCH   9  16
ATOM     16  C   UNL     1       4.878   5.862  19.360  0.00  0.00    +0.000 C 
BRANCH  16  17
ATOM     17  C   UNL     1       5.493   5.639  17.991  0.00  0.00    +0.000 A 
ATOM     18  C   UNL     1       6.362   4.568  17.742  0.00  0.00    +0.000 A 
ATOM     19  C   UNL     1       6.771   4.269  16.436  0.00  0.00    +0.000 A 
ATOM     20  C   UNL     1       6.268   4.984  15.337  0.00  0.00    +0.000 A 
ATOM     21  C   UNL     1       5.445   6.088  15.614  0.00  0.00    +0.000 A 
ATOM     22  C   UNL     1       5.110   6.448  16.919  0.00  0.00    +0.000 A 
BRANCH  20  23
ATOM     23  C   UNL     1       6.576   4.607  13.941  0.00  0.00    +0.000 A 
ATOM     24  C   UNL     1       5.952   3.520  13.302  0.00  0.00    +0.000 A 
ATOM     25  C   UNL     1       6.281   3.169  11.990  0.00  0.00    +0.000 A 
ATOM     26  C   UNL     1       7.227   3.907  11.284  0.00  0.00    +0.000 A 
ATOM     27  C   UNL     1       7.833   5.006  11.881  0.00  0.00    +0.000 A 
ATOM     28  C   UNL     1       7.510   5.347  13.193  0.00  0.00    +0.000 A 
ENDBRANCH  20  23
ENDBRANCH  16  17
ENDBRANCH   9  16
TORSDOF 6
ENDMDL
MODEL 3
REMARK VINA RESULT:      -8.1      2.779      8.211
REMARK  Name = 
REMARK  7 active torsions:
REMARK  status: ('A' for Active; 'I' for Inactive)
REMARK    1  A    between atoms: C_1  and  O_2
REMARK    2  A    between atoms: O_2  and  C_3
REMARK    3  A    between atoms: C_3  and  C_5
REMARK    4  A    between atoms: C_10  and  O_11
REMARK    5  A    between atoms: N_14  and  C_15
REMARK    6  A    between atoms: C_15  and  C_16
REMARK    7  A    between atoms: C_19  and  C_20
REMARK                            x       y       z     vdW  Elec       q    Type
REMARK                         _______ _______ _______ _____ _____    ______ ____
ROOT
ATOM      1  C   UNL     1       4.150   3.440  17.567  0.00  0.00    +0.000 C 
ATOM      2  C   UNL     1       5.251   3.076  16.564  0.00  0.00    +0.000 C 
ATOM      3  C   UNL     1       5.925   4.395  16.220  0.00  0.00    +0.000 C 
ATOM      4  C   UNL     1       7.157   4.636  17.114  0.00  0.00    +0.000 C 
ATOM      5  C   UNL     1       7.650   6.074  17.042  0.00  0.00    +0.000 C 
ATOM      6  C   UNL     1       6.518   7.019  17.406  0.00  0.00    +0.000 C 
ATOM      7  C   UNL     1       5.371   6.836  16.421  0.00  0.00    +0.000 C 
ATOM      8  C   UNL     1       4.786   5.413  16.388  0.00  0.00    +0.000 C 
ATOM      9  N   UNL     1       4.067   4.942  17.585  0.00  0.00    +0.000 NA
ENDROOT
BRANCH   1  10
ATOM     10  C   UNL     1       4.337   2.902  19.005  0.00  0.00    +0.000 C 
ATOM     11  O   UNL     1       5.032   3.431  19.852  0.00  0.00    +0.000 OA
BRANCH  10  13
ATOM     12  C   UNL     1       2.132   2.102  19.134  0.00  0.00    +0.000 C 
ATOM     13  O   UNL     1       3.532   1.822  19.241  0.00  0.00    +0.000 OA
ENDBRANCH  10  13
ENDBRANCH   1  10
BRANCH   6  14
ATOM     14  O   UNL     1       6.999   8.362  17.367  0.00  0.00    +0.000 OA
ATOM     15  H   UNL     1       6.650   8.839  18.138  0.00  0.00    +0.000 HD
ENDBRANCH   6  14
BRANCH   9  16
ATOM     16  C   UNL     1       2.640   5.323  17.670  0.00  0.00    +0.000 C 
BRANCH  16  17
ATOM     17  C   UNL     1       2.302   6.488  18.581  0.00  0.00    +0.000 A 
ATOM     18  C   UNL     1       2.083   7.777  18.074  0.00  0.00    +0.000 A 
ATOM     19  C   UNL     1       1.591   8.795  18.899  0.00  0.00    +0.000 A 
ATOM     20  C   UNL     1       1.237   8.540  20.233  0.00  0.00    +0.000 A 
ATOM     21  C   UNL     1       1.518   7.258  20.737  0.00  0.00    +0.000 A 
ATOM     22  C   UNL     1       2.096   6.266  19.944  0.00  0.00    +0.000 A 
BRANCH  20  23
ATOM     23  C   UNL     1       0.592   9.558  21.090  0.00  0.00    +0.000 A 
ATOM     24  C   UNL     1      -0.112   9.218  22.259  0.00  0.00    +0.000 A 
ATOM     25  C   UNL     1      -0.736  10.198  23.036  0.00  0.00    +0.000 A 
ATOM     26  C   UNL     1      -0.654  11.539  22.670  0.00  0.00    +0.000 A 
ATOM     27  C   UNL     1       0.065  11.904  21.538  0.00  0.00    +0.000 A 
ATOM     28  C   UNL     1       0.676  10.923  20.760  0.00  0.00    +0.000 A 
ENDBRANCH  20  23
ENDBRANCH  16  17
ENDBRANCH   9  16
TORSDOF 6
ENDMDL
MODEL 4
REMARK VINA RESULT:      -8.0      2.729      8.122
REMARK  Name = 
REMARK  7 active torsions:
REMARK  status: ('A' for Active; 'I' for Inactive)
REMARK    1  A    between atoms: C_1  and  O_2
REMARK    2  A    between atoms: O_2  and  C_3
REMARK    3  A    between atoms: C_3  and  C_5
REMARK    4  A    between atoms: C_10  and  O_11
REMARK    5  A    between atoms: N_14  and  C_15
REMARK    6  A    between atoms: C_15  and  C_16
REMARK    7  A    between atoms: C_19  and  C_20
REMARK                            x       y       z     vdW  Elec       q    Type
REMARK                         _______ _______ _______ _____ _____    ______ ____
ROOT
ATOM      1  C   UNL     1       4.008   3.479  17.828  0.00  0.00    +0.000 C 
ATOM      2  C   UNL     1       5.091   3.046  16.832  0.00  0.00    +0.000 C 
ATOM      3  C   UNL     1       5.784   4.334  16.415  0.00  0.00    +0.000 C 
ATOM      4  C   UNL     1       7.030   4.598  17.283  0.00  0.00    +0.000 C 
ATOM      5  C   UNL     1       7.547   6.021  17.134  0.00  0.00    +0.000 C 
ATOM      6  C   UNL     1       6.436   7.004  17.463  0.00  0.00    +0.000 C 
ATOM      7  C   UNL     1       5.274   6.792  16.501  0.00  0.00    +0.000 C 
ATOM      8  C   UNL     1       4.665   5.380  16.544  0.00  0.00    +0.000 C 
ATOM      9  N   UNL     1       3.952   4.982  17.772  0.00  0.00    +0.000 NA
ENDROOT
BRANCH   1  10
ATOM     10  C   UNL     1       4.203   3.010  19.288  0.00  0.00    +0.000 C 
ATOM     11  O   UNL     1       5.225   3.164  19.930  0.00  0.00    +0.000 OA
BRANCH  10  13
ATOM     12  C   UNL     1       2.663   3.084  21.061  0.00  0.00    +0.000 C 
ATOM     13  O   UNL     1       3.043   2.505  19.808  0.00  0.00    +0.000 OA
ENDBRANCH  10  13
ENDBRANCH   1  10
BRANCH   6  14
ATOM     14  O   UNL     1       6.940   8.334  17.352  0.00  0.00    +0.000 OA
ATOM     15  H   UNL     1       6.190   8.941  17.236  0.00  0.00    +0.000 HD
ENDBRANCH   6  14
BRANCH   9  16
ATOM     16  C   UNL     1       2.533   5.392  17.853  0.00  0.00    +0.000 C 
BRANCH  16  17
ATOM     17  C   UNL     1       2.232   6.642  18.659  0.00  0.00    +0.000 A 
ATOM     18  C   UNL     1       2.050   7.887  18.042  0.00  0.00    +0.000 A 
ATOM     19  C   UNL     1       1.592   8.988  18.776  0.00  0.00    +0.000 A 
ATOM     20  C   UNL     1       1.235   8.860  20.128  0.00  0.00    +0.000 A 
ATOM     21  C   UNL     1       1.480   7.619  20.741  0.00  0.00    +0.000 A 
ATOM     22  C   UNL     1       2.025   6.546  20.036  0.00  0.00    +0.000 A 
BRANCH  20  23
ATOM     23  C   UNL     1       0.623   9.968  20.893  0.00  0.00    +0.000 A 
ATOM     24  C   UNL     1       0.796  11.316  20.528  0.00  0.00    +0.000 A 
ATOM     25  C   UNL     1       0.229  12.345  21.285  0.00  0.00    +0.000 A 
ATOM     26  C   UNL     1      -0.537  12.048  22.410  0.00  0.00    +0.000 A 
ATOM     27  C   UNL     1      -0.751  10.723  22.770  0.00  0.00    +0.000 A 
ATOM     28  C   UNL     1      -0.174   9.700  22.020  0.00  0.00    +0.000 A 
ENDBRANCH  20  23
ENDBRANCH  16  17
ENDBRANCH   9  16
TORSDOF 6
ENDMDL
MODEL 5
REMARK VINA RESULT:      -7.8      2.841      8.062
REMARK  Name = 
REMARK  7 active torsions:
REMARK  status: ('A' for Active; 'I' for Inactive)
REMARK    1  A    between atoms: C_1  and  O_2
REMARK    2  A    between atoms: O_2  and  C_3
REMARK    3  A    between atoms: C_3  and  C_5
REMARK    4  A    between atoms: C_10  and  O_11
REMARK    5  A    between atoms: N_14  and  C_15
REMARK    6  A    between atoms: C_15  and  C_16
REMARK    7  A    between atoms: C_19  and  C_20
REMARK                            x       y       z     vdW  Elec       q    Type
REMARK                         _______ _______ _______ _____ _____    ______ ____
ROOT
ATOM      1  C   UNL     1       4.069   4.857  16.859  0.00  0.00    +0.000 C 
ATOM      2  C   UNL     1       5.195   3.967  16.320  0.00  0.00    +0.000 C 
ATOM      3  C   UNL     1       6.479   4.717  16.638  0.00  0.00    +0.000 C 
ATOM      4  C   UNL     1       7.078   4.246  17.978  0.00  0.00    +0.000 C 
ATOM      5  C   UNL     1       8.153   5.191  18.494  0.00  0.00    +0.000 C 
ATOM      6  C   UNL     1       7.583   6.594  18.614  0.00  0.00    +0.000 C 
ATOM      7  C   UNL     1       7.118   7.069  17.244  0.00  0.00    +0.000 C 
ATOM      8  C   UNL     1       6.033   6.187  16.603  0.00  0.00    +0.000 C 
ATOM      9  N   UNL     1       4.704   6.166  17.242  0.00  0.00    +0.000 NA
ENDROOT
BRANCH   1  10
ATOM     10  C   UNL     1       3.266   4.288  18.052  0.00  0.00    +0.000 C 
ATOM     11  O   UNL     1       2.087   3.991  18.008  0.00  0.00    +0.000 OA
BRANCH  10  13
ATOM     12  C   UNL     1       3.977   2.722  19.652  0.00  0.00    +0.000 C 
ATOM     13  O   UNL     1       4.075   4.051  19.129  0.00  0.00    +0.000 OA
ENDBRANCH  10  13
ENDBRANCH   1  10
BRANCH   6  14
ATOM     14  O   UNL     1       8.589   7.465  19.129  0.00  0.00    +0.000 OA
ATOM     15  H   UNL     1       8.415   7.615  20.073  0.00  0.00    +0.000 HD
ENDBRANCH   6  14
BRANCH   9  16
ATOM     16  C   UNL     1       3.785   7.256  16.849  0.00  0.00    +0.000 C 
BRANCH  16  17
ATOM     17  C   UNL     1       2.786   7.713  17.897  0.00  0.00    +0.000 A 
ATOM     18  C   UNL     1       2.783   7.174  19.191  0.00  0.00    +0.000 A 
ATOM     19  C   UNL     1       1.984   7.735  20.195  0.00  0.00    +0.000 A 
ATOM     20  C   UNL     1       1.221   8.889  19.956  0.00  0.00    +0.000 A 
ATOM     21  C   UNL     1       1.194   9.377  18.638  0.00  0.00    +0.000 A 
ATOM     22  C   UNL     1       1.915   8.766  17.612  0.00  0.00    +0.000 A 
BRANCH  20  23
ATOM     23  C   UNL     1       0.474   9.580  21.028  0.00  0.00    +0.000 A 
ATOM     24  C   UNL     1       0.310   9.021  22.308  0.00  0.00    +0.000 A 
ATOM     25  C   UNL     1      -0.425   9.683  23.296  0.00  0.00    +0.000 A 
ATOM     26  C   UNL     1      -0.995  10.926  23.030  0.00  0.00    +0.000 A 
ATOM     27  C   UNL     1      -0.818  11.514  21.783  0.00  0.00    +0.000 A 
ATOM     28  C   UNL     1      -0.095  10.846  20.798  0.00  0.00    +0.000 A 
ENDBRANCH  20  23
ENDBRANCH  16  17
ENDBRANCH   9  16
TORSDOF 6
ENDMDL
MODEL 6
REMARK VINA RESULT:      -7.8      4.039      7.606
REMARK  Name = 
REMARK  7 active torsions:
REMARK  status: ('A' for Active; 'I' for Inactive)
REMARK    1  A    between atoms: C_1  and  O_2
REMARK    2  A    between atoms: O_2  and  C_3
REMARK    3  A    between atoms: C_3  and  C_5
REMARK    4  A    between atoms: C_10  and  O_11
REMARK    5  A    between atoms: N_14  and  C_15
REMARK    6  A    between atoms: C_15  and  C_16
REMARK    7  A    between atoms: C_19  and  C_20
REMARK                            x       y       z     vdW  Elec       q    Type
REMARK                         _______ _______ _______ _____ _____    ______ ____
ROOT
ATOM      1  C   UNL     1      -1.736  11.929  19.989  0.00  0.00    +0.000 C 
ATOM      2  C   UNL     1      -1.748  13.424  20.329  0.00  0.00    +0.000 C 
ATOM      3  C   UNL     1      -0.312  13.885  20.135  0.00  0.00    +0.000 C 
ATOM      4  C   UNL     1      -0.100  14.457  18.721  0.00  0.00    +0.000 C 
ATOM      5  C   UNL     1       1.374  14.609  18.373  0.00  0.00    +0.000 C 
ATOM      6  C   UNL     1       2.075  13.270  18.531  0.00  0.00    +0.000 C 
ATOM      7  C   UNL     1       1.948  12.802  19.974  0.00  0.00    +0.000 C 
ATOM      8  C   UNL     1       0.499  12.619  20.457  0.00  0.00    +0.000 C 
ATOM      9  N   UNL     1      -0.291  11.533  19.849  0.00  0.00    +0.000 NA
ENDROOT
BRANCH   1  10
ATOM     10  C   UNL     1      -2.524  11.514  18.724  0.00  0.00    +0.000 C 
ATOM     11  O   UNL     1      -3.736  11.561  18.623  0.00  0.00    +0.000 OA
BRANCH  10  13
ATOM     12  C   UNL     1      -2.271  10.365  16.691  0.00  0.00    +0.000 C 
ATOM     13  O   UNL     1      -1.682  11.200  17.693  0.00  0.00    +0.000 OA
ENDBRANCH  10  13
ENDBRANCH   1  10
BRANCH   6  14
ATOM     14  O   UNL     1       3.448  13.416  18.172  0.00  0.00    +0.000 OA
ATOM     15  H   UNL     1       3.994  13.009  18.865  0.00  0.00    +0.000 HD
ENDBRANCH   6  14
BRANCH   9  16
ATOM     16  C   UNL     1      -0.120  10.196  20.458  0.00  0.00    +0.000 C 
BRANCH  16  17
ATOM     17  C   UNL     1       0.937   9.299  19.840  0.00  0.00    +0.000 A 
ATOM     18  C   UNL     1       1.463   8.200  20.534  0.00  0.00    +0.000 A 
ATOM     19  C   UNL     1       2.294   7.278  19.885  0.00  0.00    +0.000 A 
ATOM     20  C   UNL     1       2.566   7.387  18.512  0.00  0.00    +0.000 A 
ATOM     21  C   UNL     1       2.076   8.526  17.850  0.00  0.00    +0.000 A 
ATOM     22  C   UNL     1       1.326   9.497  18.514  0.00  0.00    +0.000 A 
BRANCH  20  23
ATOM     23  C   UNL     1       3.329   6.358  17.773  0.00  0.00    +0.000 A 
ATOM     24  C   UNL     1       2.987   4.995  17.817  0.00  0.00    +0.000 A 
ATOM     25  C   UNL     1       3.741   4.040  17.130  0.00  0.00    +0.000 A 
ATOM     26  C   UNL     1       4.842   4.430  16.370  0.00  0.00    +0.000 A 
ATOM     27  C   UNL     1       5.179   5.775  16.283  0.00  0.00    +0.000 A 
ATOM     28  C   UNL     1       4.432   6.723  16.978  0.00  0.00    +0.000 A 
ENDBRANCH  20  23
ENDBRANCH  16  17
ENDBRANCH   9  16
TORSDOF 6
ENDMDL
MODEL 7
REMARK VINA RESULT:      -7.8      2.792      8.003
REMARK  Name = 
REMARK  7 active torsions:
REMARK  status: ('A' for Active; 'I' for Inactive)
REMARK    1  A    between atoms: C_1  and  O_2
REMARK    2  A    between atoms: O_2  and  C_3
REMARK    3  A    between atoms: C_3  and  C_5
REMARK    4  A    between atoms: C_10  and  O_11
REMARK    5  A    between atoms: N_14  and  C_15
REMARK    6  A    between atoms: C_15  and  C_16
REMARK    7  A    between atoms: C_19  and  C_20
REMARK                            x       y       z     vdW  Elec       q    Type
REMARK                         _______ _______ _______ _____ _____    ______ ____
ROOT
ATOM      1  C   UNL     1       4.069   4.891  16.953  0.00  0.00    +0.000 C 
ATOM      2  C   UNL     1       5.194   3.992  16.426  0.00  0.00    +0.000 C 
ATOM      3  C   UNL     1       6.478   4.754  16.717  0.00  0.00    +0.000 C 
ATOM      4  C   UNL     1       7.088   4.318  18.063  0.00  0.00    +0.000 C 
ATOM      5  C   UNL     1       8.163   5.279  18.549  0.00  0.00    +0.000 C 
ATOM      6  C   UNL     1       7.589   6.682  18.640  0.00  0.00    +0.000 C 
ATOM      7  C   UNL     1       7.112   7.122  17.263  0.00  0.00    +0.000 C 
ATOM      8  C   UNL     1       6.025   6.222  16.651  0.00  0.00    +0.000 C 
ATOM      9  N   UNL     1       4.702   6.211  17.300  0.00  0.00    +0.000 NA
ENDROOT
BRANCH   1  10
ATOM     10  C   UNL     1       3.277   4.347  18.165  0.00  0.00    +0.000 C 
ATOM     11  O   UNL     1       3.753   4.162  19.270  0.00  0.00    +0.000 OA
BRANCH  10  13
ATOM     12  C   UNL     1       1.183   3.583  18.905  0.00  0.00    +0.000 C 
ATOM     13  O   UNL     1       1.948   4.211  17.872  0.00  0.00    +0.000 OA
ENDBRANCH  10  13
ENDBRANCH   1  10
BRANCH   6  14
ATOM     14  O   UNL     1       8.595   7.568  19.127  0.00  0.00    +0.000 OA
ATOM     15  H   UNL     1       9.416   7.064  19.256  0.00  0.00    +0.000 HD
ENDBRANCH   6  14
BRANCH   9  16
ATOM     16  C   UNL     1       3.775   7.287  16.889  0.00  0.00    +0.000 C 
BRANCH  16  17
ATOM     17  C   UNL     1       2.761   7.742  17.922  0.00  0.00    +0.000 A 
ATOM     18  C   UNL     1       2.745   7.209  19.219  0.00  0.00    +0.000 A 
ATOM     19  C   UNL     1       1.931   7.769  20.211  0.00  0.00    +0.000 A 
ATOM     20  C   UNL     1       1.164   8.917  19.958  0.00  0.00    +0.000 A 
ATOM     21  C   UNL     1       1.150   9.400  18.638  0.00  0.00    +0.000 A 
ATOM     22  C   UNL     1       1.887   8.789  17.623  0.00  0.00    +0.000 A 
BRANCH  20  23
ATOM     23  C   UNL     1       0.400   9.608  21.018  0.00  0.00    +0.000 A 
ATOM     24  C   UNL     1      -0.260  10.830  20.793  0.00  0.00    +0.000 A 
ATOM     25  C   UNL     1      -0.953  11.475  21.821  0.00  0.00    +0.000 A 
ATOM     26  C   UNL     1      -1.016  10.905  23.089  0.00  0.00    +0.000 A 
ATOM     27  C   UNL     1      -0.401   9.681  23.328  0.00  0.00    +0.000 A 
ATOM     28  C   UNL     1       0.298   9.046  22.304  0.00  0.00    +0.000 A 
ENDBRANCH  20  23
ENDBRANCH  16  17
ENDBRANCH   9  16
TORSDOF 6
ENDMDL
MODEL 8
REMARK VINA RESULT:      -7.8      2.805      8.170
REMARK  Name = 
REMARK  7 active torsions:
REMARK  status: ('A' for Active; 'I' for Inactive)
REMARK    1  A    between atoms: C_1  and  O_2
REMARK    2  A    between atoms: O_2  and  C_3
REMARK    3  A    between atoms: C_3  and  C_5
REMARK    4  A    between atoms: C_10  and  O_11
REMARK    5  A    between atoms: N_14  and  C_15
REMARK    6  A    between atoms: C_15  and  C_16
REMARK    7  A    between atoms: C_19  and  C_20
REMARK                            x       y       z     vdW  Elec       q    Type
REMARK                         _______ _______ _______ _____ _____    ______ ____
ROOT
ATOM      1  C   UNL     1       3.468   4.670  17.456  0.00  0.00    +0.000 C 
ATOM      2  C   UNL     1       4.523   3.698  16.912  0.00  0.00    +0.000 C 
ATOM      3  C   UNL     1       5.819   4.494  16.890  0.00  0.00    +0.000 C 
ATOM      4  C   UNL     1       6.629   4.270  18.181  0.00  0.00    +0.000 C 
ATOM      5  C   UNL     1       7.743   5.292  18.349  0.00  0.00    +0.000 C 
ATOM      6  C   UNL     1       7.159   6.694  18.308  0.00  0.00    +0.000 C 
ATOM      7  C   UNL     1       6.476   6.917  16.965  0.00  0.00    +0.000 C 
ATOM      8  C   UNL     1       5.331   5.934  16.666  0.00  0.00    +0.000 C 
ATOM      9  N   UNL     1       4.117   6.026  17.499  0.00  0.00    +0.000 NA
ENDROOT
BRANCH   1  10
ATOM     10  C   UNL     1       2.874   4.322  18.841  0.00  0.00    +0.000 C 
ATOM     11  O   UNL     1       3.518   4.270  19.872  0.00  0.00    +0.000 OA
BRANCH  10  13
ATOM     12  C   UNL     1       0.947   3.459  19.870  0.00  0.00    +0.000 C 
ATOM     13  O   UNL     1       1.513   4.195  18.781  0.00  0.00    +0.000 OA
ENDBRANCH  10  13
ENDBRANCH   1  10
BRANCH   6  14
ATOM     14  O   UNL     1       8.207   7.643  18.498  0.00  0.00    +0.000 OA
ATOM     15  H   UNL     1       8.564   7.534  19.396  0.00  0.00    +0.000 HD
ENDBRANCH   6  14
BRANCH   9  16
ATOM     16  C   UNL     1       3.117   7.028  17.069  0.00  0.00    +0.000 C 
BRANCH  16  17
ATOM     17  C   UNL     1       2.533   7.913  18.154  0.00  0.00    +0.000 A 
ATOM     18  C   UNL     1       1.919   9.137  17.852  0.00  0.00    +0.000 A 
ATOM     19  C   UNL     1       1.224   9.849  18.836  0.00  0.00    +0.000 A 
ATOM     20  C   UNL     1       1.060   9.328  20.129  0.00  0.00    +0.000 A 
ATOM     21  C   UNL     1       1.732   8.130  20.427  0.00  0.00    +0.000 A 
ATOM     22  C   UNL     1       2.504   7.463  19.475  0.00  0.00    +0.000 A 
BRANCH  20  23
ATOM     23  C   UNL     1       0.221   9.992  21.150  0.00  0.00    +0.000 A 
ATOM     24  C   UNL     1      -0.052   9.401  22.397  0.00  0.00    +0.000 A 
ATOM     25  C   UNL     1      -0.871  10.038  23.333  0.00  0.00    +0.000 A 
ATOM     26  C   UNL     1      -1.420  11.286  23.049  0.00  0.00    +0.000 A 
ATOM     27  C   UNL     1      -1.138  11.906  21.837  0.00  0.00    +0.000 A 
ATOM     28  C   UNL     1      -0.330  11.263  20.902  0.00  0.00    +0.000 A 
ENDBRANCH  20  23
ENDBRANCH  16  17
ENDBRANCH   9  16
TORSDOF 6
ENDMDL
MODEL 9
REMARK VINA RESULT:      -7.7      4.147      7.686
REMARK  Name = 
REMARK  7 active torsions:
REMARK  status: ('A' for Active; 'I' for Inactive)
REMARK    1  A    between atoms: C_1  and  O_2
REMARK    2  A    between atoms: O_2  and  C_3
REMARK    3  A    between atoms: C_3  and  C_5
REMARK    4  A    between atoms: C_10  and  O_11
REMARK    5  A    between atoms: N_14  and  C_15
REMARK    6  A    between atoms: C_15  and  C_16
REMARK    7  A    between atoms: C_19  and  C_20
REMARK                            x       y       z     vdW  Elec       q    Type
REMARK                         _______ _______ _______ _____ _____    ______ ____
ROOT
ATOM      1  C   UNL     1      -1.924  11.877  19.684  0.00  0.00    +0.000 C 
ATOM      2  C   UNL     1      -2.083  13.341  20.111  0.00  0.00    +0.000 C 
ATOM      3  C   UNL     1      -0.664  13.879  20.216  0.00  0.00    +0.000 C 
ATOM      4  C   UNL     1      -0.232  14.561  18.904  0.00  0.00    +0.000 C 
ATOM      5  C   UNL     1       1.269  14.804  18.845  0.00  0.00    +0.000 C 
ATOM      6  C   UNL     1       2.005  13.490  19.045  0.00  0.00    +0.000 C 
ATOM      7  C   UNL     1       1.646  12.912  20.407  0.00  0.00    +0.000 C 
ATOM      8  C   UNL     1       0.146  12.630  20.600  0.00  0.00    +0.000 C 
ATOM      9  N   UNL     1      -0.457  11.557  19.789  0.00  0.00    +0.000 NA
ENDROOT
BRANCH   1  10
ATOM     10  C   UNL     1      -2.444  11.521  18.272  0.00  0.00    +0.000 C 
ATOM     11  O   UNL     1      -1.750  11.480  17.273  0.00  0.00    +0.000 OA
BRANCH  10  13
ATOM     12  C   UNL     1      -4.530  11.613  17.196  0.00  0.00    +0.000 C 
ATOM     13  O   UNL     1      -3.758  11.144  18.306  0.00  0.00    +0.000 OA
ENDBRANCH  10  13
ENDBRANCH   1  10
BRANCH   6  14
ATOM     14  O   UNL     1       3.410  13.723  18.956  0.00  0.00    +0.000 OA
ATOM     15  H   UNL     1       3.555  14.659  18.739  0.00  0.00    +0.000 HD
ENDBRANCH   6  14
BRANCH   9  16
ATOM     16  C   UNL     1      -0.323  10.188  20.332  0.00  0.00    +0.000 C 
BRANCH  16  17
ATOM     17  C   UNL     1       0.789   9.333  19.753  0.00  0.00    +0.000 A 
ATOM     18  C   UNL     1       1.335   8.257  20.466  0.00  0.00    +0.000 A 
ATOM     19  C   UNL     1       2.224   7.369  19.848  0.00  0.00    +0.000 A 
ATOM     20  C   UNL     1       2.538   7.488  18.485  0.00  0.00    +0.000 A 
ATOM     21  C   UNL     1       2.026   8.606  17.804  0.00  0.00    +0.000 A 
ATOM     22  C   UNL     1       1.215   9.546  18.440  0.00  0.00    +0.000 A 
BRANCH  20  23
ATOM     23  C   UNL     1       3.366   6.490  17.774  0.00  0.00    +0.000 A 
ATOM     24  C   UNL     1       4.492   6.855  17.014  0.00  0.00    +0.000 A 
ATOM     25  C   UNL     1       5.241   5.894  16.329  0.00  0.00    +0.000 A 
ATOM     26  C   UNL     1       4.892   4.548  16.405  0.00  0.00    +0.000 A 
ATOM     27  C   UNL     1       3.804   4.159  17.178  0.00  0.00    +0.000 A 
ATOM     28  C   UNL     1       3.053   5.120  17.849  0.00  0.00    +0.000 A 
ENDBRANCH  20  23
ENDBRANCH  16  17
ENDBRANCH   9  16
TORSDOF 6
ENDMDL
