MODEL 1
REMARK VINA RESULT:      -6.7      0.000      0.000
REMARK  Name = 
REMARK  12 active torsions:
REMARK  status: ('A' for Active; 'I' for Inactive)
REMARK    1  A    between atoms: C_1  and  C_2
REMARK    2  A    between atoms: C_2  and  C_3
REMARK    3  A    between atoms: C_3  and  C_4
REMARK    4  A    between atoms: C_3  and  O_6
REMARK    5  A    between atoms: O_6  and  C_7
REMARK    6  A    between atoms: C_10  and  C_11
REMARK    7  A    between atoms: C_11  and  O_12
REMARK    8  A    between atoms: O_12  and  C_13
REMARK    9  A    between atoms: N_16  and  C_17
REMARK   10  A    between atoms: C_17  and  C_18
REMARK   11  A    between atoms: C_17  and  C_19
REMARK   12  A    between atoms: C_17  and  C_20
REMARK                            x       y       z     vdW  Elec       q    Type
REMARK                         _______ _______ _______ _____ _____    ______ ____
ROOT
ATOM      1  C   UNL     1       0.233  11.105  19.118  0.00  0.00    +0.000 C 
ENDROOT
BRANCH   1   5
ATOM      2  C   UNL     1       2.332   7.344  19.196  0.00  0.00    +0.000 A 
ATOM      3  C   UNL     1       1.717   7.834  20.346  0.00  0.00    +0.000 A 
ATOM      4  C   UNL     1       1.046   9.054  20.320  0.00  0.00    +0.000 A 
ATOM      5  C   UNL     1       0.984   9.802  19.136  0.00  0.00    +0.000 A 
ATOM      6  C   UNL     1       1.642   9.331  17.997  0.00  0.00    +0.000 A 
ATOM      7  C   UNL     1       2.320   8.109  18.029  0.00  0.00    +0.000 A 
BRANCH   2   8
ATOM      8  O   UNL     1       2.898   6.109  19.336  0.00  0.00    +0.000 OA
BRANCH   8   9
ATOM      9  C   UNL     1       2.031   4.965  19.353  0.00  0.00    +0.000 C 
BRANCH   9  11
ATOM     10  C   UNL     1       3.524   4.237  17.416  0.00  0.00    +0.000 C 
ATOM     11  C   UNL     1       2.104   4.313  17.961  0.00  0.00    +0.000 C 
ENDBRANCH   9  11
BRANCH   9  12
ATOM     12  C   UNL     1       2.482   3.947  20.408  0.00  0.00    +0.000 C 
ATOM     13  F   UNL     1       2.360   4.488  21.649  0.00  0.00    +0.000 F 
ENDBRANCH   9  12
ENDBRANCH   8   9
ENDBRANCH   2   8
ENDBRANCH   1   5
BRANCH   1  14
ATOM     14  O   UNL     1      -0.705  11.055  18.049  0.00  0.00    +0.000 OA
BRANCH  14  15
ATOM     15  C   UNL     1      -2.020  11.349  18.309  0.00  0.00    +0.000 A 
ATOM     16  C   UNL     1      -2.248  12.122  19.545  0.00  0.00    +0.000 A 
ATOM     17  N   UNL     1      -3.381  12.516  20.021  0.00  0.00    +0.000 NA
ATOM     18  N   UNL     1      -4.522  12.184  19.324  0.00  0.00    +0.000 N 
ATOM     19  C   UNL     1      -4.488  11.448  18.138  0.00  0.00    +0.000 A 
ATOM     20  O   UNL     1      -5.493  11.150  17.491  0.00  0.00    +0.000 OA
ATOM     21  C   UNL     1      -3.142  11.012  17.650  0.00  0.00    +0.000 A 
ATOM     22 CL   UNL     1      -3.198   9.999  16.245  0.00  0.00    +0.000 Cl
BRANCH  18  23
ATOM     23  C   UNL     1      -5.824  12.651  19.897  0.00  0.00    +0.000 C 
ATOM     24  C   UNL     1      -6.849  11.498  20.019  0.00  0.00    +0.000 C 
ATOM     25  C   UNL     1      -5.610  13.220  21.316  0.00  0.00    +0.000 C 
ATOM     26  C   UNL     1      -6.460  13.727  18.991  0.00  0.00    +0.000 C 
ENDBRANCH  18  23
ENDBRANCH  14  15
ENDBRANCH   1  14
TORSDOF 8
ENDMDL
MODEL 2
REMARK VINA RESULT:      -6.6      3.043      3.857
REMARK  Name = 
REMARK  12 active torsions:
REMARK  status: ('A' for Active; 'I' for Inactive)
REMARK    1  A    between atoms: C_1  and  C_2
REMARK    2  A    between atoms: C_2  and  C_3
REMARK    3  A    between atoms: C_3  and  C_4
REMARK    4  A    between atoms: C_3  and  O_6
REMARK    5  A    between atoms: O_6  and  C_7
REMARK    6  A    between atoms: C_10  and  C_11
REMARK    7  A    between atoms: C_11  and  O_12
REMARK    8  A    between atoms: O_12  and  C_13
REMARK    9  A    between atoms: N_16  and  C_17
REMARK   10  A    between atoms: C_17  and  C_18
REMARK   11  A    between atoms: C_17  and  C_19
REMARK   12  A    between atoms: C_17  and  C_20
REMARK                            x       y       z     vdW  Elec       q    Type
REMARK                         _______ _______ _______ _____ _____    ______ ____
ROOT
ATOM      1  C   UNL     1       1.604   9.467  18.530  0.00  0.00    +0.000 C 
ENDROOT
BRANCH   1   5
ATOM      2  C   UNL     1       3.696   5.702  18.558  0.00  0.00    +0.000 A 
ATOM      3  C   UNL     1       2.867   6.057  19.620  0.00  0.00    +0.000 A 
ATOM      4  C   UNL     1       2.198   7.279  19.612  0.00  0.00    +0.000 A 
ATOM      5  C   UNL     1       2.353   8.163  18.536  0.00  0.00    +0.000 A 
ATOM      6  C   UNL     1       3.223   7.825  17.495  0.00  0.00    +0.000 A 
ATOM      7  C   UNL     1       3.897   6.601  17.510  0.00  0.00    +0.000 A 
BRANCH   2   8
ATOM      8  O   UNL     1       4.239   4.453  18.654  0.00  0.00    +0.000 OA
BRANCH   8   9
ATOM      9  C   UNL     1       3.410   3.389  19.145  0.00  0.00    +0.000 C 
BRANCH   9  11
ATOM     10  C   UNL     1       0.978   2.945  18.515  0.00  0.00    +0.000 C 
ATOM     11  C   UNL     1       2.418   3.027  18.026  0.00  0.00    +0.000 C 
ENDBRANCH   9  11
BRANCH   9  12
ATOM     12  C   UNL     1       4.248   2.152  19.492  0.00  0.00    +0.000 C 
ATOM     13  F   UNL     1       3.871   1.108  18.706  0.00  0.00    +0.000 F 
ENDBRANCH   9  12
ENDBRANCH   8   9
ENDBRANCH   2   8
ENDBRANCH   1   5
BRANCH   1  14
ATOM     14  O   UNL     1       0.286   9.217  19.004  0.00  0.00    +0.000 OA
BRANCH  14  15
ATOM     15  C   UNL     1      -0.224  10.017  19.995  0.00  0.00    +0.000 A 
ATOM     16  C   UNL     1      -1.119  11.091  19.524  0.00  0.00    +0.000 A 
ATOM     17  N   UNL     1      -1.717  11.980  20.244  0.00  0.00    +0.000 NA
ATOM     18  N   UNL     1      -1.508  11.954  21.605  0.00  0.00    +0.000 N 
ATOM     19  C   UNL     1      -0.681  11.009  22.217  0.00  0.00    +0.000 A 
ATOM     20  O   UNL     1      -0.488  10.958  23.432  0.00  0.00    +0.000 OA
ATOM     21  C   UNL     1      -0.009  10.016  21.322  0.00  0.00    +0.000 A 
ATOM     22 CL   UNL     1       1.094   8.962  22.145  0.00  0.00    +0.000 Cl
BRANCH  18  23
ATOM     23  C   UNL     1      -2.211  12.996  22.417  0.00  0.00    +0.000 C 
ATOM     24  C   UNL     1      -3.053  13.947  21.532  0.00  0.00    +0.000 C 
ATOM     25  C   UNL     1      -3.179  12.332  23.418  0.00  0.00    +0.000 C 
ATOM     26  C   UNL     1      -1.190  13.872  23.175  0.00  0.00    +0.000 C 
ENDBRANCH  18  23
ENDBRANCH  14  15
ENDBRANCH   1  14
TORSDOF 8
ENDMDL
MODEL 3
REMARK VINA RESULT:      -6.6      3.400      5.013
REMARK  Name = 
REMARK  12 active torsions:
REMARK  status: ('A' for Active; 'I' for Inactive)
REMARK    1  A    between atoms: C_1  and  C_2
REMARK    2  A    between atoms: C_2  and  C_3
REMARK    3  A    between atoms: C_3  and  C_4
REMARK    4  A    between atoms: C_3  and  O_6
REMARK    5  A    between atoms: O_6  and  C_7
REMARK    6  A    between atoms: C_10  and  C_11
REMARK    7  A    between atoms: C_11  and  O_12
REMARK    8  A    between atoms: O_12  and  C_13
REMARK    9  A    between atoms: N_16  and  C_17
REMARK   10  A    between atoms: C_17  and  C_18
REMARK   11  A    between atoms: C_17  and  C_19
REMARK   12  A    between atoms: C_17  and  C_20
REMARK                            x       y       z     vdW  Elec       q    Type
REMARK                         _______ _______ _______ _____ _____    ______ ____
ROOT
ATOM      1  C   UNL     1       1.274   6.707  20.812  0.00  0.00    +0.000 C 
ENDROOT
BRANCH   1   5
ATOM      2  C   UNL     1       4.108   4.493  18.441  0.00  0.00    +0.000 A 
ATOM      3  C   UNL     1       3.645   5.735  18.012  0.00  0.00    +0.000 A 
ATOM      4  C   UNL     1       2.723   6.445  18.776  0.00  0.00    +0.000 A 
ATOM      5  C   UNL     1       2.250   5.916  19.985  0.00  0.00    +0.000 A 
ATOM      6  C   UNL     1       2.679   4.649  20.390  0.00  0.00    +0.000 A 
ATOM      7  C   UNL     1       3.600   3.937  19.616  0.00  0.00    +0.000 A 
BRANCH   2   8
ATOM      8  O   UNL     1       5.058   3.930  17.637  0.00  0.00    +0.000 OA
BRANCH   8   9
ATOM      9  C   UNL     1       5.995   4.800  16.986  0.00  0.00    +0.000 C 
BRANCH   9  11
ATOM     10  C   UNL     1       7.619   6.054  18.503  0.00  0.00    +0.000 C 
ATOM     11  C   UNL     1       7.307   4.745  17.788  0.00  0.00    +0.000 C 
ENDBRANCH   9  11
BRANCH   9  12
ATOM     12  C   UNL     1       6.267   4.341  15.548  0.00  0.00    +0.000 C 
ATOM     13  F   UNL     1       5.240   4.722  14.743  0.00  0.00    +0.000 F 
ENDBRANCH   9  12
ENDBRANCH   8   9
ENDBRANCH   2   8
ENDBRANCH   1   5
BRANCH   1  14
ATOM     14  O   UNL     1       1.815   8.009  21.004  0.00  0.00    +0.000 OA
BRANCH  14  15
ATOM     15  C   UNL     1       0.993   9.096  20.850  0.00  0.00    +0.000 A 
ATOM     16  C   UNL     1       0.987   9.680  19.495  0.00  0.00    +0.000 A 
ATOM     17  N   UNL     1       0.315  10.705  19.090  0.00  0.00    +0.000 NA
ATOM     18  N   UNL     1      -0.486  11.351  20.005  0.00  0.00    +0.000 N 
ATOM     19  C   UNL     1      -0.591  10.937  21.334  0.00  0.00    +0.000 A 
ATOM     20  O   UNL     1      -1.310  11.490  22.166  0.00  0.00    +0.000 OA
ATOM     21  C   UNL     1       0.225   9.750  21.739  0.00  0.00    +0.000 A 
ATOM     22 CL   UNL     1       0.135   9.378  23.429  0.00  0.00    +0.000 Cl
BRANCH  18  23
ATOM     23  C   UNL     1      -1.253  12.538  19.510  0.00  0.00    +0.000 C 
ATOM     24  C   UNL     1      -2.782  12.331  19.634  0.00  0.00    +0.000 C 
ATOM     25  C   UNL     1      -0.896  13.789  20.340  0.00  0.00    +0.000 C 
ATOM     26  C   UNL     1      -0.953  12.794  18.018  0.00  0.00    +0.000 C 
ENDBRANCH  18  23
ENDBRANCH  14  15
ENDBRANCH   1  14
TORSDOF 8
ENDMDL
MODEL 4
REMARK VINA RESULT:      -6.6      4.280      9.025
REMARK  Name = 
REMARK  12 active torsions:
REMARK  status: ('A' for Active; 'I' for Inactive)
REMARK    1  A    between atoms: C_1  and  C_2
REMARK    2  A    between atoms: C_2  and  C_3
REMARK    3  A    between atoms: C_3  and  C_4
REMARK    4  A    between atoms: C_3  and  O_6
REMARK    5  A    between atoms: O_6  and  C_7
REMARK    6  A    between atoms: C_10  and  C_11
REMARK    7  A    between atoms: C_11  and  O_12
REMARK    8  A    between atoms: O_12  and  C_13
REMARK    9  A    between atoms: N_16  and  C_17
REMARK   10  A    between atoms: C_17  and  C_18
REMARK   11  A    between atoms: C_17  and  C_19
REMARK   12  A    between atoms: C_17  and  C_20
REMARK                            x       y       z     vdW  Elec       q    Type
REMARK                         _______ _______ _______ _____ _____    ______ ____
ROOT
ATOM      1  C   UNL     1       1.498   8.887  17.787  0.00  0.00    +0.000 C 
ENDROOT
BRANCH   1   5
ATOM      2  C   UNL     1      -1.099  11.522  19.994  0.00  0.00    +0.000 A 
ATOM      3  C   UNL     1       0.180  11.234  20.465  0.00  0.00    +0.000 A 
ATOM      4  C   UNL     1       1.015  10.375  19.754  0.00  0.00    +0.000 A 
ATOM      5  C   UNL     1       0.575   9.792  18.557  0.00  0.00    +0.000 A 
ATOM      6  C   UNL     1      -0.725  10.046  18.112  0.00  0.00    +0.000 A 
ATOM      7  C   UNL     1      -1.561  10.903  18.833  0.00  0.00    +0.000 A 
BRANCH   2   8
ATOM      8  O   UNL     1      -1.791  12.428  20.747  0.00  0.00    +0.000 OA
BRANCH   8   9
ATOM      9  C   UNL     1      -1.383  12.629  22.108  0.00  0.00    +0.000 C 
BRANCH   9  11
ATOM     10  C   UNL     1      -1.251  14.479  23.860  0.00  0.00    +0.000 C 
ATOM     11  C   UNL     1      -1.452  14.140  22.389  0.00  0.00    +0.000 C 
ENDBRANCH   9  11
BRANCH   9  12
ATOM     12  C   UNL     1      -2.318  11.896  23.078  0.00  0.00    +0.000 C 
ATOM     13  F   UNL     1      -1.722  10.754  23.513  0.00  0.00    +0.000 F 
ENDBRANCH   9  12
ENDBRANCH   8   9
ENDBRANCH   2   8
ENDBRANCH   1   5
BRANCH   1  14
ATOM     14  O   UNL     1       2.504   8.425  18.681  0.00  0.00    +0.000 OA
BRANCH  14  15
ATOM     15  C   UNL     1       2.680   7.073  18.836  0.00  0.00    +0.000 A 
ATOM     16  C   UNL     1       2.004   6.493  20.012  0.00  0.00    +0.000 A 
ATOM     17  N   UNL     1       2.017   5.258  20.390  0.00  0.00    +0.000 NA
ATOM     18  N   UNL     1       2.743   4.363  19.636  0.00  0.00    +0.000 N 
ATOM     19  C   UNL     1       3.451   4.745  18.495  0.00  0.00    +0.000 A 
ATOM     20  O   UNL     1       4.096   3.961  17.798  0.00  0.00    +0.000 OA
ATOM     21  C   UNL     1       3.403   6.193  18.122  0.00  0.00    +0.000 A 
ATOM     22 CL   UNL     1       4.407   6.605  16.770  0.00  0.00    +0.000 Cl
BRANCH  18  23
ATOM     23  C   UNL     1       2.744   2.938  20.096  0.00  0.00    +0.000 C 
ATOM     24  C   UNL     1       1.948   2.020  19.137  0.00  0.00    +0.000 C 
ATOM     25  C   UNL     1       4.187   2.395  20.151  0.00  0.00    +0.000 C 
ATOM     26  C   UNL     1       2.084   2.818  21.486  0.00  0.00    +0.000 C 
ENDBRANCH  18  23
ENDBRANCH  14  15
ENDBRANCH   1  14
TORSDOF 8
ENDMDL
MODEL 5
REMARK VINA RESULT:      -6.6      3.265      5.222
REMARK  Name = 
REMARK  12 active torsions:
REMARK  status: ('A' for Active; 'I' for Inactive)
REMARK    1  A    between atoms: C_1  and  C_2
REMARK    2  A    between atoms: C_2  and  C_3
REMARK    3  A    between atoms: C_3  and  C_4
REMARK    4  A    between atoms: C_3  and  O_6
REMARK    5  A    between atoms: O_6  and  C_7
REMARK    6  A    between atoms: C_10  and  C_11
REMARK    7  A    between atoms: C_11  and  O_12
REMARK    8  A    between atoms: O_12  and  C_13
REMARK    9  A    between atoms: N_16  and  C_17
REMARK   10  A    between atoms: C_17  and  C_18
REMARK   11  A    between atoms: C_17  and  C_19
REMARK   12  A    between atoms: C_17  and  C_20
REMARK                            x       y       z     vdW  Elec       q    Type
REMARK                         _______ _______ _______ _____ _____    ______ ____
ROOT
ATOM      1  C   UNL     1       1.374   5.738  20.467  0.00  0.00    +0.000 C 
ENDROOT
BRANCH   1   5
ATOM      2  C   UNL     1       4.150   4.144  17.584  0.00  0.00    +0.000 A 
ATOM      3  C   UNL     1       2.776   4.042  17.374  0.00  0.00    +0.000 A 
ATOM      4  C   UNL     1       1.881   4.551  18.311  0.00  0.00    +0.000 A 
ATOM      5  C   UNL     1       2.353   5.171  19.477  0.00  0.00    +0.000 A 
ATOM      6  C   UNL     1       3.731   5.229  19.708  0.00  0.00    +0.000 A 
ATOM      7  C   UNL     1       4.625   4.711  18.767  0.00  0.00    +0.000 A 
BRANCH   2   8
ATOM      8  O   UNL     1       4.919   3.667  16.561  0.00  0.00    +0.000 OA
BRANCH   8   9
ATOM      9  C   UNL     1       5.904   4.541  15.990  0.00  0.00    +0.000 C 
BRANCH   9  11
ATOM     10  C   UNL     1       5.608   3.931  13.530  0.00  0.00    +0.000 C 
ATOM     11  C   UNL     1       6.496   3.826  14.763  0.00  0.00    +0.000 C 
ENDBRANCH   9  11
BRANCH   9  12
ATOM     12  C   UNL     1       5.273   5.866  15.542  0.00  0.00    +0.000 C 
ATOM     13  F   UNL     1       5.658   6.863  16.382  0.00  0.00    +0.000 F 
ENDBRANCH   9  12
ENDBRANCH   8   9
ENDBRANCH   2   8
ENDBRANCH   1   5
BRANCH   1  14
ATOM     14  O   UNL     1       1.927   6.940  20.990  0.00  0.00    +0.000 OA
BRANCH  14  15
ATOM     15  C   UNL     1       1.345   8.137  20.655  0.00  0.00    +0.000 A 
ATOM     16  C   UNL     1       0.426   8.684  21.671  0.00  0.00    +0.000 A 
ATOM     17  N   UNL     1      -0.253   9.780  21.601  0.00  0.00    +0.000 NA
ATOM     18  N   UNL     1      -0.132  10.538  20.457  0.00  0.00    +0.000 N 
ATOM     19  C   UNL     1       0.688  10.163  19.392  0.00  0.00    +0.000 A 
ATOM     20  O   UNL     1       0.822  10.830  18.366  0.00  0.00    +0.000 OA
ATOM     21  C   UNL     1       1.436   8.874  19.535  0.00  0.00    +0.000 A 
ATOM     22 CL   UNL     1       2.331   8.420  18.121  0.00  0.00    +0.000 Cl
BRANCH  18  23
ATOM     23  C   UNL     1      -0.931  11.803  20.400  0.00  0.00    +0.000 C 
ATOM     24  C   UNL     1      -1.748  12.030  21.695  0.00  0.00    +0.000 C 
ATOM     25  C   UNL     1       0.004  13.019  20.234  0.00  0.00    +0.000 C 
ATOM     26  C   UNL     1      -1.940  11.753  19.233  0.00  0.00    +0.000 C 
ENDBRANCH  18  23
ENDBRANCH  14  15
ENDBRANCH   1  14
TORSDOF 8
ENDMDL
MODEL 6
REMARK VINA RESULT:      -6.6      0.521      1.041
REMARK  Name = 
REMARK  12 active torsions:
REMARK  status: ('A' for Active; 'I' for Inactive)
REMARK    1  A    between atoms: C_1  and  C_2
REMARK    2  A    between atoms: C_2  and  C_3
REMARK    3  A    between atoms: C_3  and  C_4
REMARK    4  A    between atoms: C_3  and  O_6
REMARK    5  A    between atoms: O_6  and  C_7
REMARK    6  A    between atoms: C_10  and  C_11
REMARK    7  A    between atoms: C_11  and  O_12
REMARK    8  A    between atoms: O_12  and  C_13
REMARK    9  A    between atoms: N_16  and  C_17
REMARK   10  A    between atoms: C_17  and  C_18
REMARK   11  A    between atoms: C_17  and  C_19
REMARK   12  A    between atoms: C_17  and  C_20
REMARK                            x       y       z     vdW  Elec       q    Type
REMARK                         _______ _______ _______ _____ _____    ______ ____
ROOT
ATOM      1  C   UNL     1       0.276  11.145  18.987  0.00  0.00    +0.000 C 
ENDROOT
BRANCH   1   5
ATOM      2  C   UNL     1       2.335   7.368  19.216  0.00  0.00    +0.000 A 
ATOM      3  C   UNL     1       1.704   7.897  20.339  0.00  0.00    +0.000 A 
ATOM      4  C   UNL     1       1.045   9.123  20.265  0.00  0.00    +0.000 A 
ATOM      5  C   UNL     1       1.013   9.836  19.058  0.00  0.00    +0.000 A 
ATOM      6  C   UNL     1       1.689   9.325  17.946  0.00  0.00    +0.000 A 
ATOM      7  C   UNL     1       2.353   8.099  18.027  0.00  0.00    +0.000 A 
BRANCH   2   8
ATOM      8  O   UNL     1       2.886   6.132  19.403  0.00  0.00    +0.000 OA
BRANCH   8   9
ATOM      9  C   UNL     1       2.088   4.982  19.091  0.00  0.00    +0.000 C 
BRANCH   9  11
ATOM     10  C   UNL     1       2.280   2.851  17.699  0.00  0.00    +0.000 C 
ATOM     11  C   UNL     1       2.727   4.297  17.870  0.00  0.00    +0.000 C 
ENDBRANCH   9  11
BRANCH   9  12
ATOM     12  C   UNL     1       2.063   3.993  20.263  0.00  0.00    +0.000 C 
ATOM     13  F   UNL     1       0.790   3.862  20.724  0.00  0.00    +0.000 F 
ENDBRANCH   9  12
ENDBRANCH   8   9
ENDBRANCH   2   8
ENDBRANCH   1   5
BRANCH   1  14
ATOM     14  O   UNL     1      -0.719  11.033  17.976  0.00  0.00    +0.000 OA
BRANCH  14  15
ATOM     15  C   UNL     1      -2.014  11.364  18.284  0.00  0.00    +0.000 A 
ATOM     16  C   UNL     1      -2.179  12.105  19.550  0.00  0.00    +0.000 A 
ATOM     17  N   UNL     1      -3.283  12.523  20.071  0.00  0.00    +0.000 NA
ATOM     18  N   UNL     1      -4.455  12.253  19.399  0.00  0.00    +0.000 N 
ATOM     19  C   UNL     1      -4.481  11.554  18.190  0.00  0.00    +0.000 A 
ATOM     20  O   UNL     1      -5.514  11.313  17.565  0.00  0.00    +0.000 OA
ATOM     21  C   UNL     1      -3.166  11.088  17.649  0.00  0.00    +0.000 A 
ATOM     22 CL   UNL     1      -3.299  10.123  16.215  0.00  0.00    +0.000 Cl
BRANCH  18  23
ATOM     23  C   UNL     1      -5.722  12.747  20.026  0.00  0.00    +0.000 C 
ATOM     24  C   UNL     1      -5.458  13.470  21.369  0.00  0.00    +0.000 C 
ATOM     25  C   UNL     1      -6.420  13.760  19.094  0.00  0.00    +0.000 C 
ATOM     26  C   UNL     1      -6.671  11.568  20.327  0.00  0.00    +0.000 C 
ENDBRANCH  18  23
ENDBRANCH  14  15
ENDBRANCH   1  14
TORSDOF 8
ENDMDL
MODEL 7
REMARK VINA RESULT:      -6.6      1.321      1.735
REMARK  Name = 
REMARK  12 active torsions:
REMARK  status: ('A' for Active; 'I' for Inactive)
REMARK    1  A    between atoms: C_1  and  C_2
REMARK    2  A    between atoms: C_2  and  C_3
REMARK    3  A    between atoms: C_3  and  C_4
REMARK    4  A    between atoms: C_3  and  O_6
REMARK    5  A    between atoms: O_6  and  C_7
REMARK    6  A    between atoms: C_10  and  C_11
REMARK    7  A    between atoms: C_11  and  O_12
REMARK    8  A    between atoms: O_12  and  C_13
REMARK    9  A    between atoms: N_16  and  C_17
REMARK   10  A    between atoms: C_17  and  C_18
REMARK   11  A    between atoms: C_17  and  C_19
REMARK   12  A    between atoms: C_17  and  C_20
REMARK                            x       y       z     vdW  Elec       q    Type
REMARK                         _______ _______ _______ _____ _____    ______ ____
ROOT
ATOM      1  C   UNL     1       0.165  11.490  19.664  0.00  0.00    +0.000 C 
ENDROOT
BRANCH   1   5
ATOM      2  C   UNL     1       2.068   7.625  19.620  0.00  0.00    +0.000 A 
ATOM      3  C   UNL     1       2.004   8.394  18.460  0.00  0.00    +0.000 A 
ATOM      4  C   UNL     1       1.382   9.640  18.475  0.00  0.00    +0.000 A 
ATOM      5  C   UNL     1       0.811  10.131  19.658  0.00  0.00    +0.000 A 
ATOM      6  C   UNL     1       0.834   9.337  20.807  0.00  0.00    +0.000 A 
ATOM      7  C   UNL     1       1.454   8.085  20.786  0.00  0.00    +0.000 A 
BRANCH   2   8
ATOM      8  O   UNL     1       2.761   6.456  19.490  0.00  0.00    +0.000 OA
BRANCH   8   9
ATOM      9  C   UNL     1       2.864   5.872  18.183  0.00  0.00    +0.000 C 
BRANCH   9  11
ATOM     10  C   UNL     1       4.792   6.519  16.641  0.00  0.00    +0.000 C 
ATOM     11  C   UNL     1       4.362   5.720  17.864  0.00  0.00    +0.000 C 
ENDBRANCH   9  11
BRANCH   9  12
ATOM     12  C   UNL     1       2.201   4.489  18.143  0.00  0.00    +0.000 C 
ATOM     13  F   UNL     1       2.496   3.874  16.967  0.00  0.00    +0.000 F 
ENDBRANCH   9  12
ENDBRANCH   8   9
ENDBRANCH   2   8
ENDBRANCH   1   5
BRANCH   1  14
ATOM     14  O   UNL     1      -0.507  11.661  18.422  0.00  0.00    +0.000 OA
BRANCH  14  15
ATOM     15  C   UNL     1      -1.877  11.729  18.415  0.00  0.00    +0.000 A 
ATOM     16  C   UNL     1      -2.475  12.280  19.646  0.00  0.00    +0.000 A 
ATOM     17  N   UNL     1      -3.730  12.440  19.900  0.00  0.00    +0.000 NA
ATOM     18  N   UNL     1      -4.636  12.055  18.936  0.00  0.00    +0.000 N 
ATOM     19  C   UNL     1      -4.242  11.506  17.715  0.00  0.00    +0.000 A 
ATOM     20  O   UNL     1      -5.031  11.165  16.833  0.00  0.00    +0.000 OA
ATOM     21  C   UNL     1      -2.771  11.335  17.492  0.00  0.00    +0.000 A 
ATOM     22 CL   UNL     1      -2.374  10.534  16.007  0.00  0.00    +0.000 Cl
BRANCH  18  23
ATOM     23  C   UNL     1      -6.085  12.250  19.256  0.00  0.00    +0.000 C 
ATOM     24  C   UNL     1      -6.908  10.961  19.016  0.00  0.00    +0.000 C 
ATOM     25  C   UNL     1      -6.260  12.630  20.741  0.00  0.00    +0.000 C 
ATOM     26  C   UNL     1      -6.695  13.347  18.357  0.00  0.00    +0.000 C 
ENDBRANCH  18  23
ENDBRANCH  14  15
ENDBRANCH   1  14
TORSDOF 8
ENDMDL
MODEL 8
REMARK VINA RESULT:      -6.5      3.512      4.994
REMARK  Name = 
REMARK  12 active torsions:
REMARK  status: ('A' for Active; 'I' for Inactive)
REMARK    1  A    between atoms: C_1  and  C_2
REMARK    2  A    between atoms: C_2  and  C_3
REMARK    3  A    between atoms: C_3  and  C_4
REMARK    4  A    between atoms: C_3  and  O_6
REMARK    5  A    between atoms: O_6  and  C_7
REMARK    6  A    between atoms: C_10  and  C_11
REMARK    7  A    between atoms: C_11  and  O_12
REMARK    8  A    between atoms: O_12  and  C_13
REMARK    9  A    between atoms: N_16  and  C_17
REMARK   10  A    between atoms: C_17  and  C_18
REMARK   11  A    between atoms: C_17  and  C_19
REMARK   12  A    between atoms: C_17  and  C_20
REMARK                            x       y       z     vdW  Elec       q    Type
REMARK                         _______ _______ _______ _____ _____    ______ ____
ROOT
ATOM      1  C   UNL     1       1.267   6.810  20.685  0.00  0.00    +0.000 C 
ENDROOT
BRANCH   1   5
ATOM      2  C   UNL     1       4.284   4.876  18.294  0.00  0.00    +0.000 A 
ATOM      3  C   UNL     1       3.884   4.324  19.509  0.00  0.00    +0.000 A 
ATOM      4  C   UNL     1       2.913   4.955  20.284  0.00  0.00    +0.000 A 
ATOM      5  C   UNL     1       2.331   6.154  19.849  0.00  0.00    +0.000 A 
ATOM      6  C   UNL     1       2.769   6.731  18.653  0.00  0.00    +0.000 A 
ATOM      7  C   UNL     1       3.747   6.097  17.882  0.00  0.00    +0.000 A 
BRANCH   2   8
ATOM      8  O   UNL     1       5.191   4.127  17.600  0.00  0.00    +0.000 OA
BRANCH   8   9
ATOM      9  C   UNL     1       6.202   4.814  16.849  0.00  0.00    +0.000 C 
BRANCH   9  11
ATOM     10  C   UNL     1       7.699   5.824  18.652  0.00  0.00    +0.000 C 
ATOM     11  C   UNL     1       7.517   4.701  17.639  0.00  0.00    +0.000 C 
ENDBRANCH   9  11
BRANCH   9  12
ATOM     12  C   UNL     1       6.391   4.176  15.467  0.00  0.00    +0.000 C 
ATOM     13  F   UNL     1       7.365   4.838  14.786  0.00  0.00    +0.000 F 
ENDBRANCH   9  12
ENDBRANCH   8   9
ENDBRANCH   2   8
ENDBRANCH   1   5
BRANCH   1  14
ATOM     14  O   UNL     1       1.754   8.083  21.095  0.00  0.00    +0.000 OA
BRANCH  14  15
ATOM     15  C   UNL     1       0.946   9.181  20.942  0.00  0.00    +0.000 A 
ATOM     16  C   UNL     1       0.979   9.790  19.598  0.00  0.00    +0.000 A 
ATOM     17  N   UNL     1       0.327  10.829  19.196  0.00  0.00    +0.000 NA
ATOM     18  N   UNL     1      -0.490  11.466  20.103  0.00  0.00    +0.000 N 
ATOM     19  C   UNL     1      -0.632  11.028  21.421  0.00  0.00    +0.000 A 
ATOM     20  O   UNL     1      -1.366  11.573  22.246  0.00  0.00    +0.000 OA
ATOM     21  C   UNL     1       0.163   9.825  21.824  0.00  0.00    +0.000 A 
ATOM     22 CL   UNL     1       0.027   9.423  23.504  0.00  0.00    +0.000 Cl
BRANCH  18  23
ATOM     23  C   UNL     1      -1.234  12.669  19.613  0.00  0.00    +0.000 C 
ATOM     24  C   UNL     1      -2.766  12.456  19.649  0.00  0.00    +0.000 C 
ATOM     25  C   UNL     1      -0.923  13.890  20.504  0.00  0.00    +0.000 C 
ATOM     26  C   UNL     1      -0.857  12.979  18.148  0.00  0.00    +0.000 C 
ENDBRANCH  18  23
ENDBRANCH  14  15
ENDBRANCH   1  14
TORSDOF 8
ENDMDL
MODEL 9
REMARK VINA RESULT:      -6.5      3.072      4.034
REMARK  Name = 
REMARK  12 active torsions:
REMARK  status: ('A' for Active; 'I' for Inactive)
REMARK    1  A    between atoms: C_1  and  C_2
REMARK    2  A    between atoms: C_2  and  C_3
REMARK    3  A    between atoms: C_3  and  C_4
REMARK    4  A    between atoms: C_3  and  O_6
REMARK    5  A    between atoms: O_6  and  C_7
REMARK    6  A    between atoms: C_10  and  C_11
REMARK    7  A    between atoms: C_11  and  O_12
REMARK    8  A    between atoms: O_12  and  C_13
REMARK    9  A    between atoms: N_16  and  C_17
REMARK   10  A    between atoms: C_17  and  C_18
REMARK   11  A    between atoms: C_17  and  C_19
REMARK   12  A    between atoms: C_17  and  C_20
REMARK                            x       y       z     vdW  Elec       q    Type
REMARK                         _______ _______ _______ _____ _____    ______ ____
ROOT
ATOM      1  C   UNL     1       1.761   9.476  18.748  0.00  0.00    +0.000 C 
ENDROOT
BRANCH   1   5
ATOM      2  C   UNL     1       3.303   5.453  18.733  0.00  0.00    +0.000 A 
ATOM      3  C   UNL     1       3.549   6.308  17.660  0.00  0.00    +0.000 A 
ATOM      4  C   UNL     1       3.043   7.606  17.664  0.00  0.00    +0.000 A 
ATOM      5  C   UNL     1       2.279   8.064  18.747  0.00  0.00    +0.000 A 
ATOM      6  C   UNL     1       1.994   7.189  19.799  0.00  0.00    +0.000 A 
ATOM      7  C   UNL     1       2.498   5.886  19.788  0.00  0.00    +0.000 A 
BRANCH   2   8
ATOM      8  O   UNL     1       3.909   4.233  18.638  0.00  0.00    +0.000 OA
BRANCH   8   9
ATOM      9  C   UNL     1       3.212   3.089  19.152  0.00  0.00    +0.000 C 
BRANCH   9  11
ATOM     10  C   UNL     1       0.763   2.478  18.772  0.00  0.00    +0.000 C 
ATOM     11  C   UNL     1       2.123   2.717  18.129  0.00  0.00    +0.000 C 
ENDBRANCH   9  11
BRANCH   9  12
ATOM     12  C   UNL     1       4.161   1.897  19.329  0.00  0.00    +0.000 C 
ATOM     13  F   UNL     1       3.872   0.941  18.407  0.00  0.00    +0.000 F 
ENDBRANCH   9  12
ENDBRANCH   8   9
ENDBRANCH   2   8
ENDBRANCH   1   5
BRANCH   1  14
ATOM     14  O   UNL     1       0.356   9.427  18.965  0.00  0.00    +0.000 OA
BRANCH  14  15
ATOM     15  C   UNL     1      -0.183  10.179  19.978  0.00  0.00    +0.000 A 
ATOM     16  C   UNL     1      -1.086  11.259  19.533  0.00  0.00    +0.000 A 
ATOM     17  N   UNL     1      -1.710  12.110  20.276  0.00  0.00    +0.000 NA
ATOM     18  N   UNL     1      -1.525  12.031  21.639  0.00  0.00    +0.000 N 
ATOM     19  C   UNL     1      -0.696  11.074  22.228  0.00  0.00    +0.000 A 
ATOM     20  O   UNL     1      -0.524  10.976  23.444  0.00  0.00    +0.000 OA
ATOM     21  C   UNL     1       0.007  10.127  21.307  0.00  0.00    +0.000 A 
ATOM     22 CL   UNL     1       1.110   9.056  22.107  0.00  0.00    +0.000 Cl
BRANCH  18  23
ATOM     23  C   UNL     1      -2.258  13.030  22.479  0.00  0.00    +0.000 C 
ATOM     24  C   UNL     1      -1.294  13.874  23.347  0.00  0.00    +0.000 C 
ATOM     25  C   UNL     1      -3.038  14.014  21.581  0.00  0.00    +0.000 C 
ATOM     26  C   UNL     1      -3.228  12.318  23.445  0.00  0.00    +0.000 C 
ENDBRANCH  18  23
ENDBRANCH  14  15
ENDBRANCH   1  14
TORSDOF 8
ENDMDL
