MODEL 1
REMARK VINA RESULT:      -8.0      0.000      0.000
REMARK  Name = 
REMARK  5 active torsions:
REMARK  status: ('A' for Active; 'I' for Inactive)
REMARK    1  A    between atoms: C_1  and  C_2
REMARK    2  A    between atoms: C_2  and  S_3
REMARK    3  A    between atoms: S_3  and  C_4
REMARK    4  A    between atoms: C_9  and  C_11
REMARK    5  A    between atoms: C_13  and  C_14
REMARK                            x       y       z     vdW  Elec       q    Type
REMARK                         _______ _______ _______ _____ _____    ______ ____
ROOT
ATOM      1  C   UNL     1       6.949   4.775  13.851  0.00  0.00    +0.000 A 
ATOM      2  N   UNL     1       7.733   5.464  14.652  0.00  0.00    +0.000 NA
ATOM      3  N   UNL     1       7.126   5.717  15.872  0.00  0.00    +0.000 NA
ATOM      4  C   UNL     1       5.941   5.152  15.956  0.00  0.00    +0.000 A 
ATOM      5  N   UNL     1       5.138   5.281  17.067  0.00  0.00    +0.000 N 
ATOM      6  C   UNL     1       4.024   4.516  17.348  0.00  0.00    +0.000 C 
ATOM      7  O   UNL     1       3.638   3.551  16.703  0.00  0.00    +0.000 OA
ATOM      8  S   UNL     1       5.440   4.352  14.537  0.00  0.00    +0.000 S 
ATOM      9  H   UNL     1       5.484   5.964  17.724  0.00  0.00    +0.000 HD
ENDROOT
BRANCH   6  10
ATOM     10  C   UNL     1       3.273   4.908  18.585  0.00  0.00    +0.000 A 
ATOM     11  C   UNL     1       3.048   3.936  19.568  0.00  0.00    +0.000 A 
ATOM     12  C   UNL     1       2.384   4.303  20.723  0.00  0.00    +0.000 A 
ATOM     13  C   UNL     1       2.136   3.322  21.829  0.00  0.00    +0.000 C 
ATOM     14  N   UNL     1       1.928   5.557  20.923  0.00  0.00    +0.000 NA
ATOM     15  C   UNL     1       2.104   6.487  19.973  0.00  0.00    +0.000 A 
ATOM     16  C   UNL     1       1.599   7.756  20.217  0.00  0.00    +0.000 A 
ATOM     17  C   UNL     1       1.725   8.797  19.297  0.00  0.00    +0.000 A 
ATOM     18  C   UNL     1       2.374   8.565  18.097  0.00  0.00    +0.000 A 
ATOM     19  C   UNL     1       2.900   7.301  17.830  0.00  0.00    +0.000 A 
ATOM     20  C   UNL     1       2.775   6.229  18.758  0.00  0.00    +0.000 A 
ENDBRANCH   6  10
BRANCH   1  21
ATOM     21  S   UNL     1       7.387   4.358  12.212  0.00  0.00    +0.000 S 
BRANCH  21  23
ATOM     22  C   UNL     1       7.039   1.855  11.177  0.00  0.00    +0.000 C 
ATOM     23  C   UNL     1       6.284   2.948  11.916  0.00  0.00    +0.000 C 
ENDBRANCH  21  23
ENDBRANCH   1  21
TORSDOF 3
ENDMDL
MODEL 2
REMARK VINA RESULT:      -7.8      4.624      8.626
REMARK  Name = 
REMARK  5 active torsions:
REMARK  status: ('A' for Active; 'I' for Inactive)
REMARK    1  A    between atoms: C_1  and  C_2
REMARK    2  A    between atoms: C_2  and  S_3
REMARK    3  A    between atoms: S_3  and  C_4
REMARK    4  A    between atoms: C_9  and  C_11
REMARK    5  A    between atoms: C_13  and  C_14
REMARK                            x       y       z     vdW  Elec       q    Type
REMARK                         _______ _______ _______ _____ _____    ______ ____
ROOT
ATOM      1  C   UNL     1      -0.223  11.010  21.665  0.00  0.00    +0.000 A 
ATOM      2  N   UNL     1       0.205  10.584  22.834  0.00  0.00    +0.000 NA
ATOM      3  N   UNL     1       0.878   9.378  22.726  0.00  0.00    +0.000 NA
ATOM      4  C   UNL     1       0.982   8.984  21.476  0.00  0.00    +0.000 A 
ATOM      5  N   UNL     1       1.593   7.803  21.121  0.00  0.00    +0.000 N 
ATOM      6  C   UNL     1       1.983   7.449  19.844  0.00  0.00    +0.000 C 
ATOM      7  O   UNL     1       1.929   8.168  18.856  0.00  0.00    +0.000 OA
ATOM      8  S   UNL     1       0.197   9.997  20.352  0.00  0.00    +0.000 S 
ATOM      9  H   UNL     1       1.806   7.217  21.914  0.00  0.00    +0.000 HD
ENDROOT
BRANCH   6  10
ATOM     10  C   UNL     1       2.556   6.071  19.708  0.00  0.00    +0.000 A 
ATOM     11  C   UNL     1       2.188   5.097  20.646  0.00  0.00    +0.000 A 
ATOM     12  C   UNL     1       2.690   3.818  20.504  0.00  0.00    +0.000 A 
ATOM     13  C   UNL     1       2.315   2.720  21.453  0.00  0.00    +0.000 C 
ATOM     14  N   UNL     1       3.535   3.483  19.507  0.00  0.00    +0.000 NA
ATOM     15  C   UNL     1       3.923   4.416  18.625  0.00  0.00    +0.000 A 
ATOM     16  C   UNL     1       4.810   4.027  17.630  0.00  0.00    +0.000 A 
ATOM     17  C   UNL     1       5.279   4.916  16.663  0.00  0.00    +0.000 A 
ATOM     18  C   UNL     1       4.851   6.232  16.687  0.00  0.00    +0.000 A 
ATOM     19  C   UNL     1       3.953   6.646  17.671  0.00  0.00    +0.000 A 
ATOM     20  C   UNL     1       3.470   5.751  18.666  0.00  0.00    +0.000 A 
ENDBRANCH   6  10
BRANCH   1  21
ATOM     21  S   UNL     1      -1.174  12.461  21.466  0.00  0.00    +0.000 S 
BRANCH  21  23
ATOM     22  C   UNL     1      -2.868  12.825  23.576  0.00  0.00    +0.000 C 
ATOM     23  C   UNL     1      -1.402  12.957  23.197  0.00  0.00    +0.000 C 
ENDBRANCH  21  23
ENDBRANCH   1  21
TORSDOF 3
ENDMDL
MODEL 3
REMARK VINA RESULT:      -7.7      4.597      8.026
REMARK  Name = 
REMARK  5 active torsions:
REMARK  status: ('A' for Active; 'I' for Inactive)
REMARK    1  A    between atoms: C_1  and  C_2
REMARK    2  A    between atoms: C_2  and  S_3
REMARK    3  A    between atoms: S_3  and  C_4
REMARK    4  A    between atoms: C_9  and  C_11
REMARK    5  A    between atoms: C_13  and  C_14
REMARK                            x       y       z     vdW  Elec       q    Type
REMARK                         _______ _______ _______ _____ _____    ______ ____
ROOT
ATOM      1  C   UNL     1       0.028  11.210  21.490  0.00  0.00    +0.000 A 
ATOM      2  N   UNL     1       0.314  10.749  22.689  0.00  0.00    +0.000 NA
ATOM      3  N   UNL     1       0.873   9.483  22.632  0.00  0.00    +0.000 NA
ATOM      4  C   UNL     1       1.042   9.076  21.393  0.00  0.00    +0.000 A 
ATOM      5  N   UNL     1       1.562   7.840  21.085  0.00  0.00    +0.000 N 
ATOM      6  C   UNL     1       2.021   7.446  19.844  0.00  0.00    +0.000 C 
ATOM      7  O   UNL     1       2.120   8.163  18.857  0.00  0.00    +0.000 OA
ATOM      8  S   UNL     1       0.455  10.157  20.212  0.00  0.00    +0.000 S 
ATOM      9  H   UNL     1       1.651   7.239  21.891  0.00  0.00    +0.000 HD
ENDROOT
BRANCH   6  10
ATOM     10  C   UNL     1       2.467   6.018  19.749  0.00  0.00    +0.000 A 
ATOM     11  C   UNL     1       2.024   5.112  20.722  0.00  0.00    +0.000 A 
ATOM     12  C   UNL     1       2.408   3.789  20.620  0.00  0.00    +0.000 A 
ATOM     13  C   UNL     1       1.946   2.761  21.608  0.00  0.00    +0.000 C 
ATOM     14  N   UNL     1       3.208   3.347  19.628  0.00  0.00    +0.000 NA
ATOM     15  C   UNL     1       3.669   4.211  18.712  0.00  0.00    +0.000 A 
ATOM     16  C   UNL     1       4.506   3.712  17.724  0.00  0.00    +0.000 A 
ATOM     17  C   UNL     1       5.043   4.523  16.724  0.00  0.00    +0.000 A 
ATOM     18  C   UNL     1       4.735   5.872  16.707  0.00  0.00    +0.000 A 
ATOM     19  C   UNL     1       3.888   6.398  17.683  0.00  0.00    +0.000 A 
ATOM     20  C   UNL     1       3.338   5.583  18.712  0.00  0.00    +0.000 A 
ENDBRANCH   6  10
BRANCH   1  21
ATOM     21  S   UNL     1      -0.758  12.746  21.219  0.00  0.00    +0.000 S 
BRANCH  21  23
ATOM     22  C   UNL     1      -0.370  13.550  18.639  0.00  0.00    +0.000 C 
ATOM     23  C   UNL     1      -1.209  12.592  19.468  0.00  0.00    +0.000 C 
ENDBRANCH  21  23
ENDBRANCH   1  21
TORSDOF 3
ENDMDL
MODEL 4
REMARK VINA RESULT:      -7.7      4.488      8.732
REMARK  Name = 
REMARK  5 active torsions:
REMARK  status: ('A' for Active; 'I' for Inactive)
REMARK    1  A    between atoms: C_1  and  C_2
REMARK    2  A    between atoms: C_2  and  S_3
REMARK    3  A    between atoms: S_3  and  C_4
REMARK    4  A    between atoms: C_9  and  C_11
REMARK    5  A    between atoms: C_13  and  C_14
REMARK                            x       y       z     vdW  Elec       q    Type
REMARK                         _______ _______ _______ _____ _____    ______ ____
ROOT
ATOM      1  C   UNL     1      -0.186  10.620  21.573  0.00  0.00    +0.000 A 
ATOM      2  N   UNL     1       0.454  10.151  22.622  0.00  0.00    +0.000 NA
ATOM      3  N   UNL     1       1.248   9.063  22.294  0.00  0.00    +0.000 NA
ATOM      4  C   UNL     1       1.220   8.805  21.005  0.00  0.00    +0.000 A 
ATOM      5  N   UNL     1       1.914   7.757  20.445  0.00  0.00    +0.000 N 
ATOM      6  C   UNL     1       2.158   7.581  19.098  0.00  0.00    +0.000 C 
ATOM      7  O   UNL     1       1.875   8.374  18.211  0.00  0.00    +0.000 OA
ATOM      8  S   UNL     1       0.163   9.801  20.112  0.00  0.00    +0.000 S 
ATOM      9  H   UNL     1       2.310   7.135  21.135  0.00  0.00    +0.000 HD
ENDROOT
BRANCH   6  10
ATOM     10  C   UNL     1       2.871   6.313  18.737  0.00  0.00    +0.000 A 
ATOM     11  C   UNL     1       3.906   6.372  17.794  0.00  0.00    +0.000 A 
ATOM     12  C   UNL     1       4.586   5.211  17.482  0.00  0.00    +0.000 A 
ATOM     13  C   UNL     1       5.723   5.207  16.506  0.00  0.00    +0.000 C 
ATOM     14  N   UNL     1       4.273   4.022  18.039  0.00  0.00    +0.000 NA
ATOM     15  C   UNL     1       3.259   3.946  18.914  0.00  0.00    +0.000 A 
ATOM     16  C   UNL     1       2.962   2.697  19.444  0.00  0.00    +0.000 A 
ATOM     17  C   UNL     1       1.929   2.505  20.361  0.00  0.00    +0.000 A 
ATOM     18  C   UNL     1       1.168   3.589  20.762  0.00  0.00    +0.000 A 
ATOM     19  C   UNL     1       1.452   4.856  20.253  0.00  0.00    +0.000 A 
ATOM     20  C   UNL     1       2.500   5.067  19.314  0.00  0.00    +0.000 A 
ENDBRANCH   6  10
BRANCH   1  21
ATOM     21  S   UNL     1      -1.328  11.939  21.660  0.00  0.00    +0.000 S 
BRANCH  21  23
ATOM     22  C   UNL     1      -3.277  12.530  23.479  0.00  0.00    +0.000 C 
ATOM     23  C   UNL     1      -2.044  11.659  23.304  0.00  0.00    +0.000 C 
ENDBRANCH  21  23
ENDBRANCH   1  21
TORSDOF 3
ENDMDL
MODEL 5
REMARK VINA RESULT:      -7.7      4.152      8.403
REMARK  Name = 
REMARK  5 active torsions:
REMARK  status: ('A' for Active; 'I' for Inactive)
REMARK    1  A    between atoms: C_1  and  C_2
REMARK    2  A    between atoms: C_2  and  S_3
REMARK    3  A    between atoms: S_3  and  C_4
REMARK    4  A    between atoms: C_9  and  C_11
REMARK    5  A    between atoms: C_13  and  C_14
REMARK                            x       y       z     vdW  Elec       q    Type
REMARK                         _______ _______ _______ _____ _____    ______ ____
ROOT
ATOM      1  C   UNL     1       0.117  10.242  20.870  0.00  0.00    +0.000 A 
ATOM      2  N   UNL     1       0.605   9.576  21.895  0.00  0.00    +0.000 NA
ATOM      3  N   UNL     1       1.412   8.526  21.488  0.00  0.00    +0.000 NA
ATOM      4  C   UNL     1       1.548   8.489  20.181  0.00  0.00    +0.000 A 
ATOM      5  N   UNL     1       2.287   7.521  19.541  0.00  0.00    +0.000 N 
ATOM      6  C   UNL     1       2.702   7.561  18.225  0.00  0.00    +0.000 C 
ATOM      7  O   UNL     1       2.554   8.503  17.458  0.00  0.00    +0.000 OA
ATOM      8  S   UNL     1       0.638   9.664  19.346  0.00  0.00    +0.000 S 
ATOM      9  H   UNL     1       2.577   6.776  20.158  0.00  0.00    +0.000 HD
ENDROOT
BRANCH   6  10
ATOM     10  C   UNL     1       3.429   6.342  17.744  0.00  0.00    +0.000 A 
ATOM     11  C   UNL     1       4.668   6.508  17.111  0.00  0.00    +0.000 A 
ATOM     12  C   UNL     1       5.356   5.385  16.695  0.00  0.00    +0.000 A 
ATOM     13  C   UNL     1       6.700   5.487  16.039  0.00  0.00    +0.000 C 
ATOM     14  N   UNL     1       4.865   4.139  16.859  0.00  0.00    +0.000 NA
ATOM     15  C   UNL     1       3.663   3.969  17.430  0.00  0.00    +0.000 A 
ATOM     16  C   UNL     1       3.192   2.670  17.557  0.00  0.00    +0.000 A 
ATOM     17  C   UNL     1       1.955   2.381  18.134  0.00  0.00    +0.000 A 
ATOM     18  C   UNL     1       1.164   3.417  18.598  0.00  0.00    +0.000 A 
ATOM     19  C   UNL     1       1.618   4.731  18.490  0.00  0.00    +0.000 A 
ATOM     20  C   UNL     1       2.875   5.042  17.900  0.00  0.00    +0.000 A 
ENDBRANCH   6  10
BRANCH   1  21
ATOM     21  S   UNL     1      -0.998  11.575  21.038  0.00  0.00    +0.000 S 
BRANCH  21  23
ATOM     22  C   UNL     1      -2.597  12.057  23.198  0.00  0.00    +0.000 C 
ATOM     23  C   UNL     1      -1.180  11.639  22.843  0.00  0.00    +0.000 C 
ENDBRANCH  21  23
ENDBRANCH   1  21
TORSDOF 3
ENDMDL
MODEL 6
REMARK VINA RESULT:      -7.6      4.200      8.221
REMARK  Name = 
REMARK  5 active torsions:
REMARK  status: ('A' for Active; 'I' for Inactive)
REMARK    1  A    between atoms: C_1  and  C_2
REMARK    2  A    between atoms: C_2  and  S_3
REMARK    3  A    between atoms: S_3  and  C_4
REMARK    4  A    between atoms: C_9  and  C_11
REMARK    5  A    between atoms: C_13  and  C_14
REMARK                            x       y       z     vdW  Elec       q    Type
REMARK                         _______ _______ _______ _____ _____    ______ ____
ROOT
ATOM      1  C   UNL     1       0.144  10.554  21.526  0.00  0.00    +0.000 A 
ATOM      2  N   UNL     1       0.734  10.003  22.565  0.00  0.00    +0.000 NA
ATOM      3  N   UNL     1       1.445   8.868  22.209  0.00  0.00    +0.000 NA
ATOM      4  C   UNL     1       1.412   8.655  20.911  0.00  0.00    +0.000 A 
ATOM      5  N   UNL     1       2.029   7.575  20.324  0.00  0.00    +0.000 N 
ATOM      6  C   UNL     1       2.274   7.423  18.974  0.00  0.00    +0.000 C 
ATOM      7  O   UNL     1       2.064   8.264  18.110  0.00  0.00    +0.000 OA
ATOM      8  S   UNL     1       0.446   9.758  20.042  0.00  0.00    +0.000 S 
ATOM      9  H   UNL     1       2.368   6.902  20.996  0.00  0.00    +0.000 HD
ENDROOT
BRANCH   6  10
ATOM     10  C   UNL     1       2.891   6.116  18.577  0.00  0.00    +0.000 A 
ATOM     11  C   UNL     1       3.912   6.121  17.617  0.00  0.00    +0.000 A 
ATOM     12  C   UNL     1       4.504   4.922  17.272  0.00  0.00    +0.000 A 
ATOM     13  C   UNL     1       5.622   4.857  16.276  0.00  0.00    +0.000 C 
ATOM     14  N   UNL     1       4.118   3.748  17.813  0.00  0.00    +0.000 NA
ATOM     15  C   UNL     1       3.117   3.725  18.705  0.00  0.00    +0.000 A 
ATOM     16  C   UNL     1       2.743   2.490  19.218  0.00  0.00    +0.000 A 
ATOM     17  C   UNL     1       1.714   2.353  20.149  0.00  0.00    +0.000 A 
ATOM     18  C   UNL     1       1.037   3.479  20.584  0.00  0.00    +0.000 A 
ATOM     19  C   UNL     1       1.400   4.733  20.093  0.00  0.00    +0.000 A 
ATOM     20  C   UNL     1       2.445   4.888  19.138  0.00  0.00    +0.000 A 
ENDBRANCH   6  10
BRANCH   1  21
ATOM     21  S   UNL     1      -0.893  11.954  21.647  0.00  0.00    +0.000 S 
BRANCH  21  23
ATOM     22  C   UNL     1      -2.809  12.322  19.737  0.00  0.00    +0.000 C 
ATOM     23  C   UNL     1      -1.301  12.226  19.899  0.00  0.00    +0.000 C 
ENDBRANCH  21  23
ENDBRANCH   1  21
TORSDOF 3
ENDMDL
MODEL 7
REMARK VINA RESULT:      -7.6      4.419      8.534
REMARK  Name = 
REMARK  5 active torsions:
REMARK  status: ('A' for Active; 'I' for Inactive)
REMARK    1  A    between atoms: C_1  and  C_2
REMARK    2  A    between atoms: C_2  and  S_3
REMARK    3  A    between atoms: S_3  and  C_4
REMARK    4  A    between atoms: C_9  and  C_11
REMARK    5  A    between atoms: C_13  and  C_14
REMARK                            x       y       z     vdW  Elec       q    Type
REMARK                         _______ _______ _______ _____ _____    ______ ____
ROOT
ATOM      1  C   UNL     1      -0.206  10.616  22.067  0.00  0.00    +0.000 A 
ATOM      2  N   UNL     1       0.546  10.144  23.038  0.00  0.00    +0.000 NA
ATOM      3  N   UNL     1       1.361   9.113  22.601  0.00  0.00    +0.000 NA
ATOM      4  C   UNL     1       1.233   8.899  21.309  0.00  0.00    +0.000 A 
ATOM      5  N   UNL     1       1.927   7.910  20.651  0.00  0.00    +0.000 N 
ATOM      6  C   UNL     1       2.061   7.794  19.282  0.00  0.00    +0.000 C 
ATOM      7  O   UNL     1       1.663   8.602  18.454  0.00  0.00    +0.000 OA
ATOM      8  S   UNL     1       0.055   9.869  20.550  0.00  0.00    +0.000 S 
ATOM      9  H   UNL     1       2.412   7.285  21.279  0.00  0.00    +0.000 HD
ENDROOT
BRANCH   6  10
ATOM     10  C   UNL     1       2.801   6.579  18.811  0.00  0.00    +0.000 A 
ATOM     11  C   UNL     1       3.733   6.723  17.774  0.00  0.00    +0.000 A 
ATOM     12  C   UNL     1       4.439   5.611  17.359  0.00  0.00    +0.000 A 
ATOM     13  C   UNL     1       5.473   5.698  16.277  0.00  0.00    +0.000 C 
ATOM     14  N   UNL     1       4.247   4.392  17.904  0.00  0.00    +0.000 NA
ATOM     15  C   UNL     1       3.331   4.234  18.871  0.00  0.00    +0.000 A 
ATOM     16  C   UNL     1       3.156   2.956  19.385  0.00  0.00    +0.000 A 
ATOM     17  C   UNL     1       2.230   2.681  20.392  0.00  0.00    +0.000 A 
ATOM     18  C   UNL     1       1.456   3.708  20.902  0.00  0.00    +0.000 A 
ATOM     19  C   UNL     1       1.620   5.003  20.410  0.00  0.00    +0.000 A 
ATOM     20  C   UNL     1       2.557   5.299  19.380  0.00  0.00    +0.000 A 
ENDBRANCH   6  10
BRANCH   1  21
ATOM     21  S   UNL     1      -1.399  11.870  22.304  0.00  0.00    +0.000 S 
BRANCH  21  23
ATOM     22  C   UNL     1       0.530  13.602  21.446  0.00  0.00    +0.000 C 
ATOM     23  C   UNL     1      -0.854  13.093  21.078  0.00  0.00    +0.000 C 
ENDBRANCH  21  23
ENDBRANCH   1  21
TORSDOF 3
ENDMDL
MODEL 8
REMARK VINA RESULT:      -7.6      4.168      7.760
REMARK  Name = 
REMARK  5 active torsions:
REMARK  status: ('A' for Active; 'I' for Inactive)
REMARK    1  A    between atoms: C_1  and  C_2
REMARK    2  A    between atoms: C_2  and  S_3
REMARK    3  A    between atoms: S_3  and  C_4
REMARK    4  A    between atoms: C_9  and  C_11
REMARK    5  A    between atoms: C_13  and  C_14
REMARK                            x       y       z     vdW  Elec       q    Type
REMARK                         _______ _______ _______ _____ _____    ______ ____
ROOT
ATOM      1  C   UNL     1       0.633  10.734  20.996  0.00  0.00    +0.000 A 
ATOM      2  N   UNL     1       0.920  10.033  22.072  0.00  0.00    +0.000 NA
ATOM      3  N   UNL     1       1.392   8.770  21.751  0.00  0.00    +0.000 NA
ATOM      4  C   UNL     1       1.500   8.602  20.451  0.00  0.00    +0.000 A 
ATOM      5  N   UNL     1       1.929   7.421  19.891  0.00  0.00    +0.000 N 
ATOM      6  C   UNL     1       2.327   7.248  18.580  0.00  0.00    +0.000 C 
ATOM      7  O   UNL     1       2.447   8.136  17.747  0.00  0.00    +0.000 OA
ATOM      8  S   UNL     1       0.955   9.925  19.523  0.00  0.00    +0.000 S 
ATOM      9  H   UNL     1       2.000   6.670  20.562  0.00  0.00    +0.000 HD
ENDROOT
BRANCH   6  10
ATOM     10  C   UNL     1       2.674   5.841  18.196  0.00  0.00    +0.000 A 
ATOM     11  C   UNL     1       1.828   4.805  18.613  0.00  0.00    +0.000 A 
ATOM     12  C   UNL     1       2.128   3.511  18.233  0.00  0.00    +0.000 A 
ATOM     13  C   UNL     1       1.251   2.358  18.617  0.00  0.00    +0.000 C 
ATOM     14  N   UNL     1       3.217   3.213  17.494  0.00  0.00    +0.000 NA
ATOM     15  C   UNL     1       4.055   4.191  17.121  0.00  0.00    +0.000 A 
ATOM     16  C   UNL     1       5.172   3.831  16.380  0.00  0.00    +0.000 A 
ATOM     17  C   UNL     1       6.108   4.768  15.942  0.00  0.00    +0.000 A 
ATOM     18  C   UNL     1       5.925   6.104  16.251  0.00  0.00    +0.000 A 
ATOM     19  C   UNL     1       4.806   6.494  16.986  0.00  0.00    +0.000 A 
ATOM     20  C   UNL     1       3.845   5.549  17.444  0.00  0.00    +0.000 A 
ENDBRANCH   6  10
BRANCH   1  21
ATOM     21  S   UNL     1      -0.055  12.338  21.056  0.00  0.00    +0.000 S 
BRANCH  21  23
ATOM     22  C   UNL     1      -0.439  13.403  18.571  0.00  0.00    +0.000 C 
ATOM     23  C   UNL     1       0.666  13.072  19.561  0.00  0.00    +0.000 C 
ENDBRANCH  21  23
ENDBRANCH   1  21
TORSDOF 3
ENDMDL
MODEL 9
REMARK VINA RESULT:      -7.6      4.255      7.607
REMARK  Name = 
REMARK  5 active torsions:
REMARK  status: ('A' for Active; 'I' for Inactive)
REMARK    1  A    between atoms: C_1  and  C_2
REMARK    2  A    between atoms: C_2  and  S_3
REMARK    3  A    between atoms: S_3  and  C_4
REMARK    4  A    between atoms: C_9  and  C_11
REMARK    5  A    between atoms: C_13  and  C_14
REMARK                            x       y       z     vdW  Elec       q    Type
REMARK                         _______ _______ _______ _____ _____    ______ ____
ROOT
ATOM      1  C   UNL     1      -0.231  10.570  19.319  0.00  0.00    +0.000 A 
ATOM      2  N   UNL     1       0.075  10.232  20.553  0.00  0.00    +0.000 NA
ATOM      3  N   UNL     1       0.989   9.192  20.588  0.00  0.00    +0.000 NA
ATOM      4  C   UNL     1       1.378   8.839  19.383  0.00  0.00    +0.000 A 
ATOM      5  N   UNL     1       2.268   7.813  19.164  0.00  0.00    +0.000 N 
ATOM      6  C   UNL     1       2.929   7.558  17.979  0.00  0.00    +0.000 C 
ATOM      7  O   UNL     1       2.894   8.259  16.977  0.00  0.00    +0.000 OA
ATOM      8  S   UNL     1       0.600   9.677  18.119  0.00  0.00    +0.000 S 
ATOM      9  H   UNL     1       2.463   7.277  19.997  0.00  0.00    +0.000 HD
ENDROOT
BRANCH   6  10
ATOM     10  C   UNL     1       3.787   6.329  17.974  0.00  0.00    +0.000 A 
ATOM     11  C   UNL     1       5.179   6.485  17.957  0.00  0.00    +0.000 A 
ATOM     12  C   UNL     1       5.973   5.355  17.984  0.00  0.00    +0.000 A 
ATOM     13  C   UNL     1       7.469   5.448  17.998  0.00  0.00    +0.000 C 
ATOM     14  N   UNL     1       5.452   4.110  18.007  0.00  0.00    +0.000 NA
ATOM     15  C   UNL     1       4.121   3.948  17.986  0.00  0.00    +0.000 A 
ATOM     16  C   UNL     1       3.634   2.648  17.990  0.00  0.00    +0.000 A 
ATOM     17  C   UNL     1       2.268   2.365  17.968  0.00  0.00    +0.000 A 
ATOM     18  C   UNL     1       1.360   3.409  17.943  0.00  0.00    +0.000 A 
ATOM     19  C   UNL     1       1.823   4.725  17.949  0.00  0.00    +0.000 A 
ATOM     20  C   UNL     1       3.213   5.028  17.966  0.00  0.00    +0.000 A 
ENDBRANCH   6  10
BRANCH   1  21
ATOM     21  S   UNL     1      -1.413  11.795  18.928  0.00  0.00    +0.000 S 
BRANCH  21  23
ATOM     22  C   UNL     1      -2.681  11.054  16.626  0.00  0.00    +0.000 C 
ATOM     23  C   UNL     1      -2.691  10.789  18.123  0.00  0.00    +0.000 C 
ENDBRANCH  21  23
ENDBRANCH   1  21
TORSDOF 3
ENDMDL
