MODEL 1
REMARK VINA RESULT:      -7.5      0.000      0.000
REMARK  Name = 
REMARK  11 active torsions:
REMARK  status: ('A' for Active; 'I' for Inactive)
REMARK    1  A    between atoms: N_1  and  C_2
REMARK    2  A    between atoms: C_2  and  C_3
REMARK    3  A    between atoms: C_3  and  C_4
REMARK    4  A    between atoms: C_4  and  C_5
REMARK    5  A    between atoms: C_5  and  C_6
REMARK    6  A    between atoms: C_6  and  C_7
REMARK    7  A    between atoms: C_7  and  C_8
REMARK    8  A    between atoms: C_8  and  C_9
REMARK    9  A    between atoms: C_9  and  C_10
REMARK   10  A    between atoms: C_10  and  N_11
REMARK   11  A    between atoms: N_11  and  C_12
REMARK                            x       y       z     vdW  Elec       q    Type
REMARK                         _______ _______ _______ _____ _____    ______ ____
ROOT
ATOM      1  C   UNL     1       2.724   6.290  18.915  0.00  0.00    +0.000 C 
ATOM      2  C   UNL     1       2.762   7.234  17.965  0.00  0.00    +0.000 C 
ATOM      3  C   UNL     1       2.157   8.564  18.121  0.00  0.00    +0.000 C 
ATOM      4  O   UNL     1       2.252   9.395  17.227  0.00  0.00    +0.000 OA
ATOM      5  C   UNL     1       1.458   8.853  19.381  0.00  0.00    +0.000 A 
ATOM      6  C   UNL     1       0.858  10.104  19.558  0.00  0.00    +0.000 A 
ATOM      7  C   UNL     1       0.193  10.406  20.751  0.00  0.00    +0.000 A 
ATOM      8  C   UNL     1      -0.423  11.649  20.943  0.00  0.00    +0.000 A 
ATOM      9  C   UNL     1      -1.084  11.935  22.139  0.00  0.00    +0.000 A 
ATOM     10  C   UNL     1      -1.131  10.984  23.156  0.00  0.00    +0.000 A 
ATOM     11  C   UNL     1      -0.521   9.742  22.979  0.00  0.00    +0.000 A 
ATOM     12  C   UNL     1       0.139   9.436  21.782  0.00  0.00    +0.000 A 
ATOM     13  C   UNL     1       0.744   8.187  21.593  0.00  0.00    +0.000 A 
ATOM     14  C   UNL     1       1.396   7.896  20.391  0.00  0.00    +0.000 A 
ATOM     15  C   UNL     1       2.024   6.576  20.213  0.00  0.00    +0.000 C 
ATOM     16  O   UNL     1       2.008   5.733  21.107  0.00  0.00    +0.000 OA
ENDROOT
BRANCH   1  17
ATOM     17  N   UNL     1       3.315   5.035  18.817  0.00  0.00    +0.000 N 
ATOM     18  H   UNL     1       4.274   5.135  18.461  0.00  0.00    +0.000 HD
BRANCH  17  19
ATOM     19  C   UNL     1       2.608   3.876  18.316  0.00  0.00    +0.000 C 
BRANCH  19  20
ATOM     20  C   UNL     1       3.289   3.338  17.071  0.00  0.00    +0.000 C 
BRANCH  20  21
ATOM     21  C   UNL     1       4.718   3.861  17.020  0.00  0.00    +0.000 C 
BRANCH  21  22
ATOM     22  C   UNL     1       5.049   4.409  15.643  0.00  0.00    +0.000 C 
BRANCH  22  23
ATOM     23  C   UNL     1       6.219   5.381  15.730  0.00  0.00    +0.000 C 
BRANCH  23  24
ATOM     24  C   UNL     1       5.830   6.615  16.533  0.00  0.00    +0.000 C 
BRANCH  24  25
ATOM     25  C   UNL     1       6.959   7.031  17.468  0.00  0.00    +0.000 C 
BRANCH  25  26
ATOM     26  C   UNL     1       7.617   5.805  18.099  0.00  0.00    +0.000 C 
BRANCH  26  27
ATOM     27  C   UNL     1       7.019   5.515  19.472  0.00  0.00    +0.000 C 
BRANCH  27  28
ATOM     28  N   UNL     1       8.077   5.443  20.472  0.00  0.00    +0.000 NA
ATOM     29  H   UNL     1       8.976   5.335  20.004  0.00  0.00    +0.000 HD
ATOM     30  H   UNL     1       7.948   4.610  21.044  0.00  0.00    +0.000 HD
ENDBRANCH  27  28
ENDBRANCH  26  27
ENDBRANCH  25  26
ENDBRANCH  24  25
ENDBRANCH  23  24
ENDBRANCH  22  23
ENDBRANCH  21  22
ENDBRANCH  20  21
ENDBRANCH  19  20
ENDBRANCH  17  19
ENDBRANCH   1  17
TORSDOF 11
ENDMDL
MODEL 2
REMARK VINA RESULT:      -6.9      2.246      3.229
REMARK  Name = 
REMARK  11 active torsions:
REMARK  status: ('A' for Active; 'I' for Inactive)
REMARK    1  A    between atoms: N_1  and  C_2
REMARK    2  A    between atoms: C_2  and  C_3
REMARK    3  A    between atoms: C_3  and  C_4
REMARK    4  A    between atoms: C_4  and  C_5
REMARK    5  A    between atoms: C_5  and  C_6
REMARK    6  A    between atoms: C_6  and  C_7
REMARK    7  A    between atoms: C_7  and  C_8
REMARK    8  A    between atoms: C_8  and  C_9
REMARK    9  A    between atoms: C_9  and  C_10
REMARK   10  A    between atoms: C_10  and  N_11
REMARK   11  A    between atoms: N_11  and  C_12
REMARK                            x       y       z     vdW  Elec       q    Type
REMARK                         _______ _______ _______ _____ _____    ______ ____
ROOT
ATOM      1  C   UNL     1       2.793   6.192  19.028  0.00  0.00    +0.000 C 
ATOM      2  C   UNL     1       2.847   7.128  18.071  0.00  0.00    +0.000 C 
ATOM      3  C   UNL     1       2.227   8.453  18.200  0.00  0.00    +0.000 C 
ATOM      4  O   UNL     1       2.336   9.278  17.301  0.00  0.00    +0.000 OA
ATOM      5  C   UNL     1       1.493   8.746  19.440  0.00  0.00    +0.000 A 
ATOM      6  C   UNL     1       0.877   9.994  19.590  0.00  0.00    +0.000 A 
ATOM      7  C   UNL     1       0.180  10.299  20.764  0.00  0.00    +0.000 A 
ATOM      8  C   UNL     1      -0.453  11.538  20.930  0.00  0.00    +0.000 A 
ATOM      9  C   UNL     1      -1.146  11.828  22.106  0.00  0.00    +0.000 A 
ATOM     10  C   UNL     1      -1.210  10.885  23.129  0.00  0.00    +0.000 A 
ATOM     11  C   UNL     1      -0.584   9.648  22.979  0.00  0.00    +0.000 A 
ATOM     12  C   UNL     1       0.109   9.338  21.802  0.00  0.00    +0.000 A 
ATOM     13  C   UNL     1       0.730   8.093  21.639  0.00  0.00    +0.000 A 
ATOM     14  C   UNL     1       1.414   7.798  20.456  0.00  0.00    +0.000 A 
ATOM     15  C   UNL     1       2.059   6.482  20.305  0.00  0.00    +0.000 C 
ATOM     16  O   UNL     1       2.027   5.646  21.205  0.00  0.00    +0.000 OA
ENDROOT
BRANCH   1  17
ATOM     17  N   UNL     1       3.398   4.942  18.955  0.00  0.00    +0.000 N 
ATOM     18  H   UNL     1       2.786   4.240  19.393  0.00  0.00    +0.000 HD
BRANCH  17  19
ATOM     19  C   UNL     1       4.811   4.741  19.199  0.00  0.00    +0.000 C 
BRANCH  19  20
ATOM     20  C   UNL     1       5.570   4.678  17.887  0.00  0.00    +0.000 C 
BRANCH  20  21
ATOM     21  C   UNL     1       4.712   3.967  16.849  0.00  0.00    +0.000 C 
BRANCH  21  22
ATOM     22  C   UNL     1       4.931   4.555  15.466  0.00  0.00    +0.000 C 
BRANCH  22  23
ATOM     23  C   UNL     1       6.356   5.080  15.337  0.00  0.00    +0.000 C 
BRANCH  23  24
ATOM     24  C   UNL     1       6.934   4.726  13.974  0.00  0.00    +0.000 C 
BRANCH  24  25
ATOM     25  C   UNL     1       6.329   3.428  13.450  0.00  0.00    +0.000 C 
BRANCH  25  26
ATOM     26  C   UNL     1       5.954   3.563  11.976  0.00  0.00    +0.000 C 
BRANCH  26  27
ATOM     27  C   UNL     1       5.373   2.259  11.442  0.00  0.00    +0.000 C 
BRANCH  27  28
ATOM     28  N   UNL     1       6.408   1.233  11.397  0.00  0.00    +0.000 NA
ATOM     29  H   UNL     1       6.093   0.414  11.913  0.00  0.00    +0.000 HD
ATOM     30  H   UNL     1       7.243   1.570  11.874  0.00  0.00    +0.000 HD
ENDBRANCH  27  28
ENDBRANCH  26  27
ENDBRANCH  25  26
ENDBRANCH  24  25
ENDBRANCH  23  24
ENDBRANCH  22  23
ENDBRANCH  21  22
ENDBRANCH  20  21
ENDBRANCH  19  20
ENDBRANCH  17  19
ENDBRANCH   1  17
TORSDOF 11
ENDMDL
MODEL 3
REMARK VINA RESULT:      -6.8      1.604      3.811
REMARK  Name = 
REMARK  11 active torsions:
REMARK  status: ('A' for Active; 'I' for Inactive)
REMARK    1  A    between atoms: N_1  and  C_2
REMARK    2  A    between atoms: C_2  and  C_3
REMARK    3  A    between atoms: C_3  and  C_4
REMARK    4  A    between atoms: C_4  and  C_5
REMARK    5  A    between atoms: C_5  and  C_6
REMARK    6  A    between atoms: C_6  and  C_7
REMARK    7  A    between atoms: C_7  and  C_8
REMARK    8  A    between atoms: C_8  and  C_9
REMARK    9  A    between atoms: C_9  and  C_10
REMARK   10  A    between atoms: C_10  and  N_11
REMARK   11  A    between atoms: N_11  and  C_12
REMARK                            x       y       z     vdW  Elec       q    Type
REMARK                         _______ _______ _______ _____ _____    ______ ____
ROOT
ATOM      1  C   UNL     1       3.029   7.159  18.168  0.00  0.00    +0.000 C 
ATOM      2  C   UNL     1       2.892   6.279  19.169  0.00  0.00    +0.000 C 
ATOM      3  C   UNL     1       2.107   6.549  20.381  0.00  0.00    +0.000 C 
ATOM      4  O   UNL     1       1.994   5.692  21.249  0.00  0.00    +0.000 OA
ATOM      5  C   UNL     1       1.462   7.865  20.498  0.00  0.00    +0.000 A 
ATOM      6  C   UNL     1       0.719   8.161  21.646  0.00  0.00    +0.000 A 
ATOM      7  C   UNL     1       0.089   9.403  21.778  0.00  0.00    +0.000 A 
ATOM      8  C   UNL     1      -0.651   9.723  22.924  0.00  0.00    +0.000 A 
ATOM      9  C   UNL     1      -1.272  10.967  23.042  0.00  0.00    +0.000 A 
ATOM     10  C   UNL     1      -1.165  11.902  22.013  0.00  0.00    +0.000 A 
ATOM     11  C   UNL     1      -0.432  11.597  20.867  0.00  0.00    +0.000 A 
ATOM     12  C   UNL     1       0.204  10.356  20.736  0.00  0.00    +0.000 A 
ATOM     13  C   UNL     1       0.951  10.047  19.592  0.00  0.00    +0.000 A 
ATOM     14  C   UNL     1       1.583   8.806  19.479  0.00  0.00    +0.000 A 
ATOM     15  C   UNL     1       2.365   8.502  18.268  0.00  0.00    +0.000 C 
ATOM     16  O   UNL     1       2.454   9.308  17.344  0.00  0.00    +0.000 OA
ENDROOT
BRANCH   1  17
ATOM     17  N   UNL     1       3.733   6.925  16.992  0.00  0.00    +0.000 N 
ATOM     18  H   UNL     1       3.381   6.068  16.546  0.00  0.00    +0.000 HD
BRANCH  17  19
ATOM     19  C   UNL     1       5.165   7.110  16.889  0.00  0.00    +0.000 C 
BRANCH  19  20
ATOM     20  C   UNL     1       5.788   5.981  16.087  0.00  0.00    +0.000 C 
BRANCH  20  21
ATOM     21  C   UNL     1       4.737   4.907  15.842  0.00  0.00    +0.000 C 
BRANCH  21  22
ATOM     22  C   UNL     1       5.136   3.595  16.496  0.00  0.00    +0.000 C 
BRANCH  22  23
ATOM     23  C   UNL     1       4.507   3.485  17.880  0.00  0.00    +0.000 C 
BRANCH  23  24
ATOM     24  C   UNL     1       3.402   2.439  17.882  0.00  0.00    +0.000 C 
BRANCH  24  25
ATOM     25  C   UNL     1       2.037   3.093  17.694  0.00  0.00    +0.000 C 
BRANCH  25  26
ATOM     26  C   UNL     1       1.033   2.548  18.707  0.00  0.00    +0.000 C 
BRANCH  26  27
ATOM     27  C   UNL     1       1.688   2.358  20.071  0.00  0.00    +0.000 C 
BRANCH  27  28
ATOM     28  N   UNL     1       0.886   3.003  21.104  0.00  0.00    +0.000 NA
ATOM     29  H   UNL     1       0.301   2.305  21.561  0.00  0.00    +0.000 HD
ATOM     30  H   UNL     1       0.251   3.673  20.673  0.00  0.00    +0.000 HD
ENDBRANCH  27  28
ENDBRANCH  26  27
ENDBRANCH  25  26
ENDBRANCH  24  25
ENDBRANCH  23  24
ENDBRANCH  22  23
ENDBRANCH  21  22
ENDBRANCH  20  21
ENDBRANCH  19  20
ENDBRANCH  17  19
ENDBRANCH   1  17
TORSDOF 11
ENDMDL
MODEL 4
REMARK VINA RESULT:      -6.8      2.260      2.714
REMARK  Name = 
REMARK  11 active torsions:
REMARK  status: ('A' for Active; 'I' for Inactive)
REMARK    1  A    between atoms: N_1  and  C_2
REMARK    2  A    between atoms: C_2  and  C_3
REMARK    3  A    between atoms: C_3  and  C_4
REMARK    4  A    between atoms: C_4  and  C_5
REMARK    5  A    between atoms: C_5  and  C_6
REMARK    6  A    between atoms: C_6  and  C_7
REMARK    7  A    between atoms: C_7  and  C_8
REMARK    8  A    between atoms: C_8  and  C_9
REMARK    9  A    between atoms: C_9  and  C_10
REMARK   10  A    between atoms: C_10  and  N_11
REMARK   11  A    between atoms: N_11  and  C_12
REMARK                            x       y       z     vdW  Elec       q    Type
REMARK                         _______ _______ _______ _____ _____    ______ ____
ROOT
ATOM      1  C   UNL     1       2.726   6.196  18.937  0.00  0.00    +0.000 C 
ATOM      2  C   UNL     1       2.790   7.131  17.980  0.00  0.00    +0.000 C 
ATOM      3  C   UNL     1       2.213   8.475  18.122  0.00  0.00    +0.000 C 
ATOM      4  O   UNL     1       2.331   9.297  17.222  0.00  0.00    +0.000 OA
ATOM      5  C   UNL     1       1.512   8.788  19.375  0.00  0.00    +0.000 A 
ATOM      6  C   UNL     1       0.939  10.054  19.538  0.00  0.00    +0.000 A 
ATOM      7  C   UNL     1       0.273  10.379  20.725  0.00  0.00    +0.000 A 
ATOM      8  C   UNL     1      -0.317  11.637  20.904  0.00  0.00    +0.000 A 
ATOM      9  C   UNL     1      -0.979  11.946  22.093  0.00  0.00    +0.000 A 
ATOM     10  C   UNL     1      -1.052  11.004  23.117  0.00  0.00    +0.000 A 
ATOM     11  C   UNL     1      -0.468   9.749  22.954  0.00  0.00    +0.000 A 
ATOM     12  C   UNL     1       0.192   9.419  21.764  0.00  0.00    +0.000 A 
ATOM     13  C   UNL     1       0.772   8.156  21.588  0.00  0.00    +0.000 A 
ATOM     14  C   UNL     1       1.424   7.841  20.392  0.00  0.00    +0.000 A 
ATOM     15  C   UNL     1       2.025   6.506  20.228  0.00  0.00    +0.000 C 
ATOM     16  O   UNL     1       1.985   5.671  21.128  0.00  0.00    +0.000 OA
ENDROOT
BRANCH   1  17
ATOM     17  N   UNL     1       3.290   4.928  18.852  0.00  0.00    +0.000 N 
ATOM     18  H   UNL     1       2.599   4.226  19.147  0.00  0.00    +0.000 HD
BRANCH  17  19
ATOM     19  C   UNL     1       4.647   4.647  19.270  0.00  0.00    +0.000 C 
BRANCH  19  20
ATOM     20  C   UNL     1       5.611   4.865  18.117  0.00  0.00    +0.000 C 
BRANCH  20  21
ATOM     21  C   UNL     1       6.598   5.961  18.495  0.00  0.00    +0.000 C 
BRANCH  21  22
ATOM     22  C   UNL     1       7.450   6.361  17.303  0.00  0.00    +0.000 C 
BRANCH  22  23
ATOM     23  C   UNL     1       7.617   7.875  17.260  0.00  0.00    +0.000 C 
BRANCH  23  24
ATOM     24  C   UNL     1       8.412   8.360  18.464  0.00  0.00    +0.000 C 
BRANCH  24  25
ATOM     25  C   UNL     1       8.706   9.852  18.353  0.00  0.00    +0.000 C 
BRANCH  25  26
ATOM     26  C   UNL     1       9.439  10.351  19.596  0.00  0.00    +0.000 C 
BRANCH  26  27
ATOM     27  C   UNL     1      10.455  11.427  19.231  0.00  0.00    +0.000 C 
BRANCH  27  28
ATOM     28  N   UNL     1      10.835  12.180  20.420  0.00  0.00    +0.000 NA
ATOM     29  H   UNL     1      10.653  13.170  20.263  0.00  0.00    +0.000 HD
ATOM     30  H   UNL     1      11.839  12.093  20.572  0.00  0.00    +0.000 HD
ENDBRANCH  27  28
ENDBRANCH  26  27
ENDBRANCH  25  26
ENDBRANCH  24  25
ENDBRANCH  23  24
ENDBRANCH  22  23
ENDBRANCH  21  22
ENDBRANCH  20  21
ENDBRANCH  19  20
ENDBRANCH  17  19
ENDBRANCH   1  17
TORSDOF 11
ENDMDL
MODEL 5
REMARK VINA RESULT:      -6.8      2.344      3.615
REMARK  Name = 
REMARK  11 active torsions:
REMARK  status: ('A' for Active; 'I' for Inactive)
REMARK    1  A    between atoms: N_1  and  C_2
REMARK    2  A    between atoms: C_2  and  C_3
REMARK    3  A    between atoms: C_3  and  C_4
REMARK    4  A    between atoms: C_4  and  C_5
REMARK    5  A    between atoms: C_5  and  C_6
REMARK    6  A    between atoms: C_6  and  C_7
REMARK    7  A    between atoms: C_7  and  C_8
REMARK    8  A    between atoms: C_8  and  C_9
REMARK    9  A    between atoms: C_9  and  C_10
REMARK   10  A    between atoms: C_10  and  N_11
REMARK   11  A    between atoms: N_11  and  C_12
REMARK                            x       y       z     vdW  Elec       q    Type
REMARK                         _______ _______ _______ _____ _____    ______ ____
ROOT
ATOM      1  C   UNL     1       2.768   6.614  18.766  0.00  0.00    +0.000 C 
ATOM      2  C   UNL     1       2.794   7.620  17.882  0.00  0.00    +0.000 C 
ATOM      3  C   UNL     1       2.161   8.924  18.121  0.00  0.00    +0.000 C 
ATOM      4  O   UNL     1       2.245   9.816  17.285  0.00  0.00    +0.000 OA
ATOM      5  C   UNL     1       1.445   9.114  19.391  0.00  0.00    +0.000 A 
ATOM      6  C   UNL     1       0.818  10.338  19.645  0.00  0.00    +0.000 A 
ATOM      7  C   UNL     1       0.138  10.545  20.850  0.00  0.00    +0.000 A 
ATOM      8  C   UNL     1      -0.506  11.760  21.119  0.00  0.00    +0.000 A 
ATOM      9  C   UNL     1      -1.182  11.952  22.325  0.00  0.00    +0.000 A 
ATOM     10  C   UNL     1      -1.217  10.934  23.276  0.00  0.00    +0.000 A 
ATOM     11  C   UNL     1      -0.580   9.719  23.022  0.00  0.00    +0.000 A 
ATOM     12  C   UNL     1       0.096   9.508  21.813  0.00  0.00    +0.000 A 
ATOM     13  C   UNL     1       0.728   8.287  21.547  0.00  0.00    +0.000 A 
ATOM     14  C   UNL     1       1.395   8.090  20.334  0.00  0.00    +0.000 A 
ATOM     15  C   UNL     1       2.052   6.798  20.074  0.00  0.00    +0.000 C 
ATOM     16  O   UNL     1       2.046   5.896  20.909  0.00  0.00    +0.000 OA
ENDROOT
BRANCH   1  17
ATOM     17  N   UNL     1       3.385   5.381  18.590  0.00  0.00    +0.000 N 
ATOM     18  H   UNL     1       2.792   4.641  18.987  0.00  0.00    +0.000 HD
BRANCH  17  19
ATOM     19  C   UNL     1       4.805   5.182  18.789  0.00  0.00    +0.000 C 
BRANCH  19  20
ATOM     20  C   UNL     1       5.429   4.550  17.558  0.00  0.00    +0.000 C 
BRANCH  20  21
ATOM     21  C   UNL     1       5.152   5.434  16.350  0.00  0.00    +0.000 C 
BRANCH  21  22
ATOM     22  C   UNL     1       6.310   5.394  15.368  0.00  0.00    +0.000 C 
BRANCH  22  23
ATOM     23  C   UNL     1       6.439   4.001  14.763  0.00  0.00    +0.000 C 
BRANCH  23  24
ATOM     24  C   UNL     1       5.578   3.881  13.513  0.00  0.00    +0.000 C 
BRANCH  24  25
ATOM     25  C   UNL     1       6.272   3.029  12.457  0.00  0.00    +0.000 C 
BRANCH  25  26
ATOM     26  C   UNL     1       5.287   2.606  11.370  0.00  0.00    +0.000 C 
BRANCH  26  27
ATOM     27  C   UNL     1       3.998   3.415  11.462  0.00  0.00    +0.000 C 
BRANCH  27  28
ATOM     28  N   UNL     1       3.208   3.236  10.251  0.00  0.00    +0.000 NA
ATOM     29  H   UNL     1       3.702   3.651   9.462  0.00  0.00    +0.000 HD
ATOM     30  H   UNL     1       2.329   3.744  10.339  0.00  0.00    +0.000 HD
ENDBRANCH  27  28
ENDBRANCH  26  27
ENDBRANCH  25  26
ENDBRANCH  24  25
ENDBRANCH  23  24
ENDBRANCH  22  23
ENDBRANCH  21  22
ENDBRANCH  20  21
ENDBRANCH  19  20
ENDBRANCH  17  19
ENDBRANCH   1  17
TORSDOF 11
ENDMDL
MODEL 6
REMARK VINA RESULT:      -6.7      2.833      8.164
REMARK  Name = 
REMARK  11 active torsions:
REMARK  status: ('A' for Active; 'I' for Inactive)
REMARK    1  A    between atoms: N_1  and  C_2
REMARK    2  A    between atoms: C_2  and  C_3
REMARK    3  A    between atoms: C_3  and  C_4
REMARK    4  A    between atoms: C_4  and  C_5
REMARK    5  A    between atoms: C_5  and  C_6
REMARK    6  A    between atoms: C_6  and  C_7
REMARK    7  A    between atoms: C_7  and  C_8
REMARK    8  A    between atoms: C_8  and  C_9
REMARK    9  A    between atoms: C_9  and  C_10
REMARK   10  A    between atoms: C_10  and  N_11
REMARK   11  A    between atoms: N_11  and  C_12
REMARK                            x       y       z     vdW  Elec       q    Type
REMARK                         _______ _______ _______ _____ _____    ______ ____
ROOT
ATOM      1  C   UNL     1       4.602   3.727  19.066  0.00  0.00    +0.000 C 
ATOM      2  C   UNL     1       5.485   4.694  19.345  0.00  0.00    +0.000 C 
ATOM      3  C   UNL     1       6.347   5.319  18.334  0.00  0.00    +0.000 C 
ATOM      4  O   UNL     1       7.115   6.221  18.647  0.00  0.00    +0.000 OA
ATOM      5  C   UNL     1       6.241   4.833  16.951  0.00  0.00    +0.000 A 
ATOM      6  C   UNL     1       7.058   5.397  15.965  0.00  0.00    +0.000 A 
ATOM      7  C   UNL     1       6.970   4.957  14.640  0.00  0.00    +0.000 A 
ATOM      8  C   UNL     1       7.786   5.500  13.639  0.00  0.00    +0.000 A 
ATOM      9  C   UNL     1       7.688   5.050  12.322  0.00  0.00    +0.000 A 
ATOM     10  C   UNL     1       6.769   4.057  11.990  0.00  0.00    +0.000 A 
ATOM     11  C   UNL     1       5.949   3.507  12.975  0.00  0.00    +0.000 A 
ATOM     12  C   UNL     1       6.041   3.942  14.303  0.00  0.00    +0.000 A 
ATOM     13  C   UNL     1       5.228   3.386  15.300  0.00  0.00    +0.000 A 
ATOM     14  C   UNL     1       5.336   3.828  16.622  0.00  0.00    +0.000 A 
ATOM     15  C   UNL     1       4.472   3.229  17.654  0.00  0.00    +0.000 C 
ATOM     16  O   UNL     1       3.644   2.365  17.375  0.00  0.00    +0.000 OA
ENDROOT
BRANCH   1  17
ATOM     17  N   UNL     1       3.745   3.137  19.989  0.00  0.00    +0.000 N 
ATOM     18  H   UNL     1       3.938   2.128  20.039  0.00  0.00    +0.000 HD
BRANCH  17  19
ATOM     19  C   UNL     1       2.343   3.485  20.088  0.00  0.00    +0.000 C 
BRANCH  19  20
ATOM     20  C   UNL     1       2.151   4.635  21.060  0.00  0.00    +0.000 C 
BRANCH  20  21
ATOM     21  C   UNL     1       1.468   5.788  20.338  0.00  0.00    +0.000 C 
BRANCH  21  22
ATOM     22  C   UNL     1       2.487   6.789  19.823  0.00  0.00    +0.000 C 
BRANCH  22  23
ATOM     23  C   UNL     1       2.533   6.756  18.300  0.00  0.00    +0.000 C 
BRANCH  23  24
ATOM     24  C   UNL     1       2.716   8.160  17.741  0.00  0.00    +0.000 C 
BRANCH  24  25
ATOM     25  C   UNL     1       1.607   9.086  18.230  0.00  0.00    +0.000 C 
BRANCH  25  26
ATOM     26  C   UNL     1       2.009  10.549  18.055  0.00  0.00    +0.000 C 
BRANCH  26  27
ATOM     27  C   UNL     1       1.067  11.465  18.828  0.00  0.00    +0.000 C 
BRANCH  27  28
ATOM     28  N   UNL     1      -0.313  11.038  18.639  0.00  0.00    +0.000 NA
ATOM     29  H   UNL     1      -0.711  11.528  17.838  0.00  0.00    +0.000 HD
ATOM     30  H   UNL     1      -0.869  11.312  19.448  0.00  0.00    +0.000 HD
ENDBRANCH  27  28
ENDBRANCH  26  27
ENDBRANCH  25  26
ENDBRANCH  24  25
ENDBRANCH  23  24
ENDBRANCH  22  23
ENDBRANCH  21  22
ENDBRANCH  20  21
ENDBRANCH  19  20
ENDBRANCH  17  19
ENDBRANCH   1  17
TORSDOF 11
ENDMDL
MODEL 7
REMARK VINA RESULT:      -6.7      1.751      3.287
REMARK  Name = 
REMARK  11 active torsions:
REMARK  status: ('A' for Active; 'I' for Inactive)
REMARK    1  A    between atoms: N_1  and  C_2
REMARK    2  A    between atoms: C_2  and  C_3
REMARK    3  A    between atoms: C_3  and  C_4
REMARK    4  A    between atoms: C_4  and  C_5
REMARK    5  A    between atoms: C_5  and  C_6
REMARK    6  A    between atoms: C_6  and  C_7
REMARK    7  A    between atoms: C_7  and  C_8
REMARK    8  A    between atoms: C_8  and  C_9
REMARK    9  A    between atoms: C_9  and  C_10
REMARK   10  A    between atoms: C_10  and  N_11
REMARK   11  A    between atoms: N_11  and  C_12
REMARK                            x       y       z     vdW  Elec       q    Type
REMARK                         _______ _______ _______ _____ _____    ______ ____
ROOT
ATOM      1  C   UNL     1       2.746   7.521  18.249  0.00  0.00    +0.000 C 
ATOM      2  C   UNL     1       2.745   8.665  17.553  0.00  0.00    +0.000 C 
ATOM      3  C   UNL     1       2.076   9.890  18.010  0.00  0.00    +0.000 C 
ATOM      4  O   UNL     1       2.136  10.915  17.342  0.00  0.00    +0.000 OA
ATOM      5  C   UNL     1       1.355   9.837  19.290  0.00  0.00    +0.000 A 
ATOM      6  C   UNL     1       0.694  10.982  19.750  0.00  0.00    +0.000 A 
ATOM      7  C   UNL     1       0.008  10.959  20.968  0.00  0.00    +0.000 A 
ATOM      8  C   UNL     1      -0.669  12.090  21.441  0.00  0.00    +0.000 A 
ATOM      9  C   UNL     1      -1.351  12.052  22.658  0.00  0.00    +0.000 A 
ATOM     10  C   UNL     1      -1.358  10.884  23.418  0.00  0.00    +0.000 A 
ATOM     11  C   UNL     1      -0.688   9.750  22.960  0.00  0.00    +0.000 A 
ATOM     12  C   UNL     1      -0.006   9.769  21.737  0.00  0.00    +0.000 A 
ATOM     13  C   UNL     1       0.660   8.630  21.266  0.00  0.00    +0.000 A 
ATOM     14  C   UNL     1       1.332   8.665  20.041  0.00  0.00    +0.000 A 
ATOM     15  C   UNL     1       2.025   7.455  19.565  0.00  0.00    +0.000 C 
ATOM     16  O   UNL     1       2.043   6.423  20.231  0.00  0.00    +0.000 OA
ENDROOT
BRANCH   1  17
ATOM     17  N   UNL     1       3.397   6.353  17.865  0.00  0.00    +0.000 N 
ATOM     18  H   UNL     1       2.798   5.544  18.071  0.00  0.00    +0.000 HD
BRANCH  17  19
ATOM     19  C   UNL     1       4.808   6.132  18.100  0.00  0.00    +0.000 C 
BRANCH  19  20
ATOM     20  C   UNL     1       5.018   4.846  18.879  0.00  0.00    +0.000 C 
BRANCH  20  21
ATOM     21  C   UNL     1       4.932   3.665  17.922  0.00  0.00    +0.000 C 
BRANCH  21  22
ATOM     22  C   UNL     1       3.817   2.716  18.327  0.00  0.00    +0.000 C 
BRANCH  22  23
ATOM     23  C   UNL     1       2.590   2.941  17.453  0.00  0.00    +0.000 C 
BRANCH  23  24
ATOM     24  C   UNL     1       1.382   3.293  18.309  0.00  0.00    +0.000 C 
BRANCH  24  25
ATOM     25  C   UNL     1       1.308   2.393  19.537  0.00  0.00    +0.000 C 
BRANCH  25  26
ATOM     26  C   UNL     1       0.908   3.197  20.772  0.00  0.00    +0.000 C 
BRANCH  26  27
ATOM     27  C   UNL     1       2.133   3.548  21.610  0.00  0.00    +0.000 C 
BRANCH  27  28
ATOM     28  N   UNL     1       2.938   2.356  21.841  0.00  0.00    +0.000 NA
ATOM     29  H   UNL     1       3.805   2.427  21.310  0.00  0.00    +0.000 HD
ATOM     30  H   UNL     1       2.448   1.538  21.483  0.00  0.00    +0.000 HD
ENDBRANCH  27  28
ENDBRANCH  26  27
ENDBRANCH  25  26
ENDBRANCH  24  25
ENDBRANCH  23  24
ENDBRANCH  22  23
ENDBRANCH  21  22
ENDBRANCH  20  21
ENDBRANCH  19  20
ENDBRANCH  17  19
ENDBRANCH   1  17
TORSDOF 11
ENDMDL
MODEL 8
REMARK VINA RESULT:      -6.7      1.629      3.253
REMARK  Name = 
REMARK  11 active torsions:
REMARK  status: ('A' for Active; 'I' for Inactive)
REMARK    1  A    between atoms: N_1  and  C_2
REMARK    2  A    between atoms: C_2  and  C_3
REMARK    3  A    between atoms: C_3  and  C_4
REMARK    4  A    between atoms: C_4  and  C_5
REMARK    5  A    between atoms: C_5  and  C_6
REMARK    6  A    between atoms: C_6  and  C_7
REMARK    7  A    between atoms: C_7  and  C_8
REMARK    8  A    between atoms: C_8  and  C_9
REMARK    9  A    between atoms: C_9  and  C_10
REMARK   10  A    between atoms: C_10  and  N_11
REMARK   11  A    between atoms: N_11  and  C_12
REMARK                            x       y       z     vdW  Elec       q    Type
REMARK                         _______ _______ _______ _____ _____    ______ ____
ROOT
ATOM      1  C   UNL     1       2.395   7.216  19.121  0.00  0.00    +0.000 C 
ATOM      2  C   UNL     1       2.455   8.145  18.158  0.00  0.00    +0.000 C 
ATOM      3  C   UNL     1       1.826   9.468  18.270  0.00  0.00    +0.000 C 
ATOM      4  O   UNL     1       1.941  10.287  17.367  0.00  0.00    +0.000 OA
ATOM      5  C   UNL     1       1.076   9.766  19.499  0.00  0.00    +0.000 A 
ATOM      6  C   UNL     1       0.453  11.011  19.633  0.00  0.00    +0.000 A 
ATOM      7  C   UNL     1      -0.260  11.321  20.796  0.00  0.00    +0.000 A 
ATOM      8  C   UNL     1      -0.901  12.558  20.946  0.00  0.00    +0.000 A 
ATOM      9  C   UNL     1      -1.609  12.853  22.112  0.00  0.00    +0.000 A 
ATOM     10  C   UNL     1      -1.679  11.917  23.142  0.00  0.00    +0.000 A 
ATOM     11  C   UNL     1      -1.046  10.682  23.007  0.00  0.00    +0.000 A 
ATOM     12  C   UNL     1      -0.338  10.367  21.841  0.00  0.00    +0.000 A 
ATOM     13  C   UNL     1       0.292   9.124  21.694  0.00  0.00    +0.000 A 
ATOM     14  C   UNL     1       0.991   8.824  20.521  0.00  0.00    +0.000 A 
ATOM     15  C   UNL     1       1.645   7.511  20.388  0.00  0.00    +0.000 C 
ATOM     16  O   UNL     1       1.607   6.682  21.294  0.00  0.00    +0.000 OA
ENDROOT
BRANCH   1  17
ATOM     17  N   UNL     1       3.007   5.968  19.065  0.00  0.00    +0.000 N 
ATOM     18  H   UNL     1       2.423   5.278  19.555  0.00  0.00    +0.000 HD
BRANCH  17  19
ATOM     19  C   UNL     1       4.432   5.787  19.249  0.00  0.00    +0.000 C 
BRANCH  19  20
ATOM     20  C   UNL     1       5.148   5.834  17.911  0.00  0.00    +0.000 C 
BRANCH  20  21
ATOM     21  C   UNL     1       5.465   4.413  17.466  0.00  0.00    +0.000 C 
BRANCH  21  22
ATOM     22  C   UNL     1       4.231   3.731  16.901  0.00  0.00    +0.000 C 
BRANCH  22  23
ATOM     23  C   UNL     1       3.918   2.468  17.694  0.00  0.00    +0.000 C 
BRANCH  23  24
ATOM     24  C   UNL     1       2.464   2.062  17.498  0.00  0.00    +0.000 C 
BRANCH  24  25
ATOM     25  C   UNL     1       1.578   2.692  18.566  0.00  0.00    +0.000 C 
BRANCH  25  26
ATOM     26  C   UNL     1       1.925   2.145  19.949  0.00  0.00    +0.000 C 
BRANCH  26  27
ATOM     27  C   UNL     1       1.430   3.084  21.044  0.00  0.00    +0.000 C 
BRANCH  27  28
ATOM     28  N   UNL     1       0.606   4.137  20.463  0.00  0.00    +0.000 NA
ATOM     29  H   UNL     1       0.619   4.951  21.077  0.00  0.00    +0.000 HD
ATOM     30  H   UNL     1      -0.363   3.826  20.418  0.00  0.00    +0.000 HD
ENDBRANCH  27  28
ENDBRANCH  26  27
ENDBRANCH  25  26
ENDBRANCH  24  25
ENDBRANCH  23  24
ENDBRANCH  22  23
ENDBRANCH  21  22
ENDBRANCH  20  21
ENDBRANCH  19  20
ENDBRANCH  17  19
ENDBRANCH   1  17
TORSDOF 11
ENDMDL
MODEL 9
REMARK VINA RESULT:      -6.6      1.127      1.367
REMARK  Name = 
REMARK  11 active torsions:
REMARK  status: ('A' for Active; 'I' for Inactive)
REMARK    1  A    between atoms: N_1  and  C_2
REMARK    2  A    between atoms: C_2  and  C_3
REMARK    3  A    between atoms: C_3  and  C_4
REMARK    4  A    between atoms: C_4  and  C_5
REMARK    5  A    between atoms: C_5  and  C_6
REMARK    6  A    between atoms: C_6  and  C_7
REMARK    7  A    between atoms: C_7  and  C_8
REMARK    8  A    between atoms: C_8  and  C_9
REMARK    9  A    between atoms: C_9  and  C_10
REMARK   10  A    between atoms: C_10  and  N_11
REMARK   11  A    between atoms: N_11  and  C_12
REMARK                            x       y       z     vdW  Elec       q    Type
REMARK                         _______ _______ _______ _____ _____    ______ ____
ROOT
ATOM      1  C   UNL     1       2.477   6.888  19.202  0.00  0.00    +0.000 C 
ATOM      2  C   UNL     1       2.500   7.785  18.208  0.00  0.00    +0.000 C 
ATOM      3  C   UNL     1       1.853   9.102  18.292  0.00  0.00    +0.000 C 
ATOM      4  O   UNL     1       1.935   9.892  17.359  0.00  0.00    +0.000 OA
ATOM      5  C   UNL     1       1.128   9.429  19.527  0.00  0.00    +0.000 A 
ATOM      6  C   UNL     1       0.488  10.669  19.636  0.00  0.00    +0.000 A 
ATOM      7  C   UNL     1      -0.202  11.007  20.804  0.00  0.00    +0.000 A 
ATOM      8  C   UNL     1      -0.858  12.238  20.929  0.00  0.00    +0.000 A 
ATOM      9  C   UNL     1      -1.544  12.561  22.100  0.00  0.00    +0.000 A 
ATOM     10  C   UNL     1      -1.576  11.659  23.162  0.00  0.00    +0.000 A 
ATOM     11  C   UNL     1      -0.927  10.429  23.053  0.00  0.00    +0.000 A 
ATOM     12  C   UNL     1      -0.241  10.087  21.881  0.00  0.00    +0.000 A 
ATOM     13  C   UNL     1       0.404   8.849  21.760  0.00  0.00    +0.000 A 
ATOM     14  C   UNL     1       1.080   8.521  20.582  0.00  0.00    +0.000 A 
ATOM     15  C   UNL     1       1.751   7.213  20.476  0.00  0.00    +0.000 C 
ATOM     16  O   UNL     1       1.747   6.414  21.409  0.00  0.00    +0.000 OA
ENDROOT
BRANCH   1  17
ATOM     17  N   UNL     1       3.106   5.648  19.172  0.00  0.00    +0.000 N 
ATOM     18  H   UNL     1       4.024   5.741  18.718  0.00  0.00    +0.000 HD
BRANCH  17  19
ATOM     19  C   UNL     1       2.404   4.422  18.858  0.00  0.00    +0.000 C 
BRANCH  19  20
ATOM     20  C   UNL     1       2.395   4.187  17.358  0.00  0.00    +0.000 C 
BRANCH  20  21
ATOM     21  C   UNL     1       3.715   3.549  16.947  0.00  0.00    +0.000 C 
BRANCH  21  22
ATOM     22  C   UNL     1       4.801   4.599  16.787  0.00  0.00    +0.000 C 
BRANCH  22  23
ATOM     23  C   UNL     1       5.960   4.036  15.973  0.00  0.00    +0.000 C 
BRANCH  23  24
ATOM     24  C   UNL     1       7.248   4.782  16.293  0.00  0.00    +0.000 C 
BRANCH  24  25
ATOM     25  C   UNL     1       7.576   4.682  17.779  0.00  0.00    +0.000 C 
BRANCH  25  26
ATOM     26  C   UNL     1       7.633   6.070  18.413  0.00  0.00    +0.000 C 
BRANCH  26  27
ATOM     27  C   UNL     1       7.377   7.154  17.372  0.00  0.00    +0.000 C 
BRANCH  27  28
ATOM     28  N   UNL     1       7.986   8.408  17.795  0.00  0.00    +0.000 NA
ATOM     29  H   UNL     1       8.609   8.744  17.062  0.00  0.00    +0.000 HD
ATOM     30  H   UNL     1       8.569   8.244  18.615  0.00  0.00    +0.000 HD
ENDBRANCH  27  28
ENDBRANCH  26  27
ENDBRANCH  25  26
ENDBRANCH  24  25
ENDBRANCH  23  24
ENDBRANCH  22  23
ENDBRANCH  21  22
ENDBRANCH  20  21
ENDBRANCH  19  20
ENDBRANCH  17  19
ENDBRANCH   1  17
TORSDOF 11
ENDMDL
