MODEL 1
REMARK VINA RESULT:      -7.6      0.000      0.000
REMARK  Name = 
REMARK  4 active torsions:
REMARK  status: ('A' for Active; 'I' for Inactive)
REMARK    1  A    between atoms: N_1  and  C_2
REMARK    2  A    between atoms: C_3  and  S_4
REMARK    3  A    between atoms: C_9  and  N_10
REMARK    4  A    between atoms: N_10  and  C_11
REMARK                            x       y       z     vdW  Elec       q    Type
REMARK                         _______ _______ _______ _____ _____    ______ ____
ROOT
ATOM      1  C   UNL     1       2.467   5.150  20.292  0.00  0.00    +0.000 A 
ATOM      2  C   UNL     1       3.351   4.317  19.602  0.00  0.00    +0.000 A 
ATOM      3  C   UNL     1       4.018   4.751  18.459  0.00  0.00    +0.000 A 
ATOM      4  C   UNL     1       3.803   6.024  17.926  0.00  0.00    +0.000 A 
ATOM      5  C   UNL     1       2.970   6.914  18.643  0.00  0.00    +0.000 A 
ATOM      6  C   UNL     1       2.320   6.484  19.822  0.00  0.00    +0.000 A 
ATOM      7  C   UNL     1       1.368   7.390  20.529  0.00  0.00    +0.000 C 
ATOM      8  O   UNL     1       0.772   7.035  21.550  0.00  0.00    +0.000 OA
ATOM      9  C   UNL     1       1.052   8.707  19.976  0.00  0.00    +0.000 A 
ATOM     10  C   UNL     1       0.094   9.515  20.613  0.00  0.00    +0.000 A 
ATOM     11  C   UNL     1      -0.270  10.740  20.057  0.00  0.00    +0.000 A 
ATOM     12  C   UNL     1       0.327  11.154  18.869  0.00  0.00    +0.000 A 
ATOM     13  C   UNL     1       1.287  10.350  18.243  0.00  0.00    +0.000 A 
ATOM     14  C   UNL     1       1.656   9.120  18.798  0.00  0.00    +0.000 A 
ATOM     15  C   UNL     1       2.645   8.267  18.106  0.00  0.00    +0.000 C 
ATOM     16  O   UNL     1       3.138   8.665  17.060  0.00  0.00    +0.000 OA
ENDROOT
BRANCH   2  17
ATOM     17  S   UNL     1       3.676   2.598  20.069  0.00  0.00    +0.000 S 
ATOM     18  O   UNL     1       2.750   1.919  19.161  0.00  0.00    +0.000 OA
ATOM     19  O   UNL     1       5.087   2.476  19.789  0.00  0.00    +0.000 OA
ATOM     20  O   UNL     1       3.288   2.559  21.483  0.00  0.00    +0.000 OA
ENDBRANCH   2  17
BRANCH   1  21
ATOM     21  N   UNL     1       1.506   4.607  21.181  0.00  0.00    +0.000 N 
ATOM     22  H   UNL     1       1.965   3.901  21.805  0.00  0.00    +0.000 HD
ATOM     23  H   UNL     1       1.069   5.332  21.764  0.00  0.00    +0.000 HD
ENDBRANCH   1  21
BRANCH   4  24
ATOM     24  N   UNL     1       4.332   6.303  16.650  0.00  0.00    +0.000 N 
ATOM     25  H   UNL     1       3.974   7.154  16.219  0.00  0.00    +0.000 HD
BRANCH  24  26
ATOM     26  C   UNL     1       5.274   5.582  15.884  0.00  0.00    +0.000 A 
ATOM     27  C   UNL     1       6.658   5.685  16.097  0.00  0.00    +0.000 A 
ATOM     28  C   UNL     1       7.573   4.996  15.296  0.00  0.00    +0.000 A 
ATOM     29  C   UNL     1       7.120   4.194  14.256  0.00  0.00    +0.000 A 
ATOM     30  C   UNL     1       5.752   4.083  14.021  0.00  0.00    +0.000 A 
ATOM     31  C   UNL     1       4.836   4.772  14.828  0.00  0.00    +0.000 A 
ENDBRANCH  24  26
ENDBRANCH   4  24
TORSDOF 4
ENDMDL
MODEL 2
REMARK VINA RESULT:      -7.5      4.194      8.040
REMARK  Name = 
REMARK  4 active torsions:
REMARK  status: ('A' for Active; 'I' for Inactive)
REMARK    1  A    between atoms: N_1  and  C_2
REMARK    2  A    between atoms: C_3  and  S_4
REMARK    3  A    between atoms: C_9  and  N_10
REMARK    4  A    between atoms: N_10  and  C_11
REMARK                            x       y       z     vdW  Elec       q    Type
REMARK                         _______ _______ _______ _____ _____    ______ ____
ROOT
ATOM      1  C   UNL     1      -0.204  10.292  21.630  0.00  0.00    +0.000 A 
ATOM      2  C   UNL     1      -0.629  11.611  21.455  0.00  0.00    +0.000 A 
ATOM      3  C   UNL     1      -0.323  12.328  20.301  0.00  0.00    +0.000 A 
ATOM      4  C   UNL     1       0.459  11.776  19.283  0.00  0.00    +0.000 A 
ATOM      5  C   UNL     1       0.843  10.420  19.400  0.00  0.00    +0.000 A 
ATOM      6  C   UNL     1       0.502   9.682  20.557  0.00  0.00    +0.000 A 
ATOM      7  C   UNL     1       0.985   8.280  20.724  0.00  0.00    +0.000 C 
ATOM      8  O   UNL     1       0.719   7.619  21.731  0.00  0.00    +0.000 OA
ATOM      9  C   UNL     1       1.865   7.678  19.723  0.00  0.00    +0.000 A 
ATOM     10  C   UNL     1       2.374   6.384  19.936  0.00  0.00    +0.000 A 
ATOM     11  C   UNL     1       3.271   5.826  19.026  0.00  0.00    +0.000 A 
ATOM     12  C   UNL     1       3.653   6.561  17.908  0.00  0.00    +0.000 A 
ATOM     13  C   UNL     1       3.137   7.845  17.696  0.00  0.00    +0.000 A 
ATOM     14  C   UNL     1       2.236   8.409  18.605  0.00  0.00    +0.000 A 
ATOM     15  C   UNL     1       1.728   9.779  18.385  0.00  0.00    +0.000 C 
ATOM     16  O   UNL     1       2.097  10.393  17.394  0.00  0.00    +0.000 OA
ENDROOT
BRANCH   2  17
ATOM     17  S   UNL     1      -1.555  12.538  22.706  0.00  0.00    +0.000 S 
ATOM     18  O   UNL     1      -2.328  13.421  21.832  0.00  0.00    +0.000 OA
ATOM     19  O   UNL     1      -2.272  11.485  23.385  0.00  0.00    +0.000 OA
ATOM     20  O   UNL     1      -0.499  13.205  23.474  0.00  0.00    +0.000 OA
ENDBRANCH   2  17
BRANCH   1  21
ATOM     21  N   UNL     1      -0.157   9.713  22.922  0.00  0.00    +0.000 N 
ATOM     22  H   UNL     1      -0.378   8.690  22.856  0.00  0.00    +0.000 HD
ATOM     23  H   UNL     1       0.766   9.825  23.360  0.00  0.00    +0.000 HD
ENDBRANCH   1  21
BRANCH   4  24
ATOM     24  N   UNL     1       0.916  12.634  18.264  0.00  0.00    +0.000 N 
ATOM     25  H   UNL     1       0.598  12.387  17.328  0.00  0.00    +0.000 HD
BRANCH  24  26
ATOM     26  C   UNL     1       1.747  13.773  18.344  0.00  0.00    +0.000 A 
ATOM     27  C   UNL     1       1.243  15.059  18.598  0.00  0.00    +0.000 A 
ATOM     28  C   UNL     1       2.081  16.178  18.629  0.00  0.00    +0.000 A 
ATOM     29  C   UNL     1       3.442  16.034  18.395  0.00  0.00    +0.000 A 
ATOM     30  C   UNL     1       3.963  14.769  18.132  0.00  0.00    +0.000 A 
ATOM     31  C   UNL     1       3.123  13.648  18.106  0.00  0.00    +0.000 A 
ENDBRANCH  24  26
ENDBRANCH   4  24
TORSDOF 4
ENDMDL
MODEL 3
REMARK VINA RESULT:      -7.4      4.259      8.086
REMARK  Name = 
REMARK  4 active torsions:
REMARK  status: ('A' for Active; 'I' for Inactive)
REMARK    1  A    between atoms: N_1  and  C_2
REMARK    2  A    between atoms: C_3  and  S_4
REMARK    3  A    between atoms: C_9  and  N_10
REMARK    4  A    between atoms: N_10  and  C_11
REMARK                            x       y       z     vdW  Elec       q    Type
REMARK                         _______ _______ _______ _____ _____    ______ ____
ROOT
ATOM      1  C   UNL     1      -0.280  10.437  21.642  0.00  0.00    +0.000 A 
ATOM      2  C   UNL     1      -0.687  11.758  21.437  0.00  0.00    +0.000 A 
ATOM      3  C   UNL     1      -0.365  12.445  20.269  0.00  0.00    +0.000 A 
ATOM      4  C   UNL     1       0.417  11.861  19.269  0.00  0.00    +0.000 A 
ATOM      5  C   UNL     1       0.783  10.504  19.418  0.00  0.00    +0.000 A 
ATOM      6  C   UNL     1       0.425   9.796  20.588  0.00  0.00    +0.000 A 
ATOM      7  C   UNL     1       0.889   8.392  20.789  0.00  0.00    +0.000 C 
ATOM      8  O   UNL     1       0.608   7.755  21.807  0.00  0.00    +0.000 OA
ATOM      9  C   UNL     1       1.768   7.756  19.806  0.00  0.00    +0.000 A 
ATOM     10  C   UNL     1       2.259   6.461  20.051  0.00  0.00    +0.000 A 
ATOM     11  C   UNL     1       3.154   5.873  19.159  0.00  0.00    +0.000 A 
ATOM     12  C   UNL     1       3.553   6.578  18.027  0.00  0.00    +0.000 A 
ATOM     13  C   UNL     1       3.055   7.864  17.784  0.00  0.00    +0.000 A 
ATOM     14  C   UNL     1       2.155   8.458  18.675  0.00  0.00    +0.000 A 
ATOM     15  C   UNL     1       1.666   9.830  18.423  0.00  0.00    +0.000 C 
ATOM     16  O   UNL     1       2.049  10.418  17.421  0.00  0.00    +0.000 OA
ENDROOT
BRANCH   2  17
ATOM     17  S   UNL     1      -1.609  12.722  22.661  0.00  0.00    +0.000 S 
ATOM     18  O   UNL     1      -0.495  13.207  23.478  0.00  0.00    +0.000 OA
ATOM     19  O   UNL     1      -2.288  13.687  21.829  0.00  0.00    +0.000 OA
ATOM     20  O   UNL     1      -2.454  11.715  23.310  0.00  0.00    +0.000 OA
ENDBRANCH   2  17
BRANCH   1  21
ATOM     21  N   UNL     1      -0.249   9.885  22.947  0.00  0.00    +0.000 N 
ATOM     22  H   UNL     1       0.362   9.033  22.953  0.00  0.00    +0.000 HD
ATOM     23  H   UNL     1       0.110  10.555  23.639  0.00  0.00    +0.000 HD
ENDBRANCH   1  21
BRANCH   4  24
ATOM     24  N   UNL     1       0.892  12.691  18.234  0.00  0.00    +0.000 N 
ATOM     25  H   UNL     1       0.539  12.457  17.308  0.00  0.00    +0.000 HD
BRANCH  24  26
ATOM     26  C   UNL     1       1.781  13.787  18.289  0.00  0.00    +0.000 A 
ATOM     27  C   UNL     1       3.166  13.647  18.104  0.00  0.00    +0.000 A 
ATOM     28  C   UNL     1       4.031  14.740  18.207  0.00  0.00    +0.000 A 
ATOM     29  C   UNL     1       3.526  15.999  18.508  0.00  0.00    +0.000 A 
ATOM     30  C   UNL     1       2.157  16.161  18.704  0.00  0.00    +0.000 A 
ATOM     31  C   UNL     1       1.291  15.065  18.595  0.00  0.00    +0.000 A 
ENDBRANCH  24  26
ENDBRANCH   4  24
TORSDOF 4
ENDMDL
MODEL 4
REMARK VINA RESULT:      -7.0      5.431      8.160
REMARK  Name = 
REMARK  4 active torsions:
REMARK  status: ('A' for Active; 'I' for Inactive)
REMARK    1  A    between atoms: N_1  and  C_2
REMARK    2  A    between atoms: C_3  and  S_4
REMARK    3  A    between atoms: C_9  and  N_10
REMARK    4  A    between atoms: N_10  and  C_11
REMARK                            x       y       z     vdW  Elec       q    Type
REMARK                         _______ _______ _______ _____ _____    ______ ____
ROOT
ATOM      1  C   UNL     1      -3.539  11.870  18.671  0.00  0.00    +0.000 A 
ATOM      2  C   UNL     1      -2.815  11.092  17.765  0.00  0.00    +0.000 A 
ATOM      3  C   UNL     1      -1.505  10.697  18.028  0.00  0.00    +0.000 A 
ATOM      4  C   UNL     1      -0.841  11.098  19.191  0.00  0.00    +0.000 A 
ATOM      5  C   UNL     1      -1.572  11.825  20.158  0.00  0.00    +0.000 A 
ATOM      6  C   UNL     1      -2.913  12.195  19.905  0.00  0.00    +0.000 A 
ATOM      7  C   UNL     1      -3.657  13.042  20.883  0.00  0.00    +0.000 C 
ATOM      8  O   UNL     1      -4.821  13.396  20.680  0.00  0.00    +0.000 OA
ATOM      9  C   UNL     1      -2.988  13.547  22.082  0.00  0.00    +0.000 A 
ATOM     10  C   UNL     1      -3.681  14.408  22.951  0.00  0.00    +0.000 A 
ATOM     11  C   UNL     1      -3.033  14.955  24.058  0.00  0.00    +0.000 A 
ATOM     12  C   UNL     1      -1.698  14.637  24.293  0.00  0.00    +0.000 A 
ATOM     13  C   UNL     1      -1.015  13.773  23.428  0.00  0.00    +0.000 A 
ATOM     14  C   UNL     1      -1.661  13.221  22.317  0.00  0.00    +0.000 A 
ATOM     15  C   UNL     1      -0.916  12.339  21.395  0.00  0.00    +0.000 C 
ATOM     16  O   UNL     1       0.258  12.093  21.633  0.00  0.00    +0.000 OA
ENDROOT
BRANCH   2  17
ATOM     17  S   UNL     1      -3.460  10.568  16.156  0.00  0.00    +0.000 S 
ATOM     18  O   UNL     1      -4.871  10.397  16.503  0.00  0.00    +0.000 OA
ATOM     19  O   UNL     1      -3.116  11.692  15.318  0.00  0.00    +0.000 OA
ATOM     20  O   UNL     1      -2.735   9.320  15.897  0.00  0.00    +0.000 OA
ENDBRANCH   2  17
BRANCH   1  21
ATOM     21  N   UNL     1      -4.681  12.595  18.249  0.00  0.00    +0.000 N 
ATOM     22  H   UNL     1      -4.380  13.498  17.808  0.00  0.00    +0.000 HD
ATOM     23  H   UNL     1      -5.244  12.066  17.571  0.00  0.00    +0.000 HD
ENDBRANCH   1  21
BRANCH   4  24
ATOM     24  N   UNL     1       0.544  10.856  19.276  0.00  0.00    +0.000 N 
ATOM     25  H   UNL     1       1.111  11.686  19.438  0.00  0.00    +0.000 HD
BRANCH  24  26
ATOM     26  C   UNL     1       1.259   9.643  19.165  0.00  0.00    +0.000 A 
ATOM     27  C   UNL     1       1.899   9.249  17.979  0.00  0.00    +0.000 A 
ATOM     28  C   UNL     1       2.563   8.022  17.881  0.00  0.00    +0.000 A 
ATOM     29  C   UNL     1       2.590   7.158  18.967  0.00  0.00    +0.000 A 
ATOM     30  C   UNL     1       1.955   7.524  20.152  0.00  0.00    +0.000 A 
ATOM     31  C   UNL     1       1.294   8.755  20.250  0.00  0.00    +0.000 A 
ENDBRANCH  24  26
ENDBRANCH   4  24
TORSDOF 4
ENDMDL
MODEL 5
REMARK VINA RESULT:      -7.0      5.460      8.205
REMARK  Name = 
REMARK  4 active torsions:
REMARK  status: ('A' for Active; 'I' for Inactive)
REMARK    1  A    between atoms: N_1  and  C_2
REMARK    2  A    between atoms: C_3  and  S_4
REMARK    3  A    between atoms: C_9  and  N_10
REMARK    4  A    between atoms: N_10  and  C_11
REMARK                            x       y       z     vdW  Elec       q    Type
REMARK                         _______ _______ _______ _____ _____    ______ ____
ROOT
ATOM      1  C   UNL     1      -3.577  11.942  18.751  0.00  0.00    +0.000 A 
ATOM      2  C   UNL     1      -2.885  11.146  17.835  0.00  0.00    +0.000 A 
ATOM      3  C   UNL     1      -1.578  10.729  18.074  0.00  0.00    +0.000 A 
ATOM      4  C   UNL     1      -0.884  11.123  19.221  0.00  0.00    +0.000 A 
ATOM      5  C   UNL     1      -1.582  11.869  20.198  0.00  0.00    +0.000 A 
ATOM      6  C   UNL     1      -2.920  12.262  19.970  0.00  0.00    +0.000 A 
ATOM      7  C   UNL     1      -3.629  13.128  20.958  0.00  0.00    +0.000 C 
ATOM      8  O   UNL     1      -4.790  13.501  20.776  0.00  0.00    +0.000 OA
ATOM      9  C   UNL     1      -2.926  13.627  22.140  0.00  0.00    +0.000 A 
ATOM     10  C   UNL     1      -3.586  14.505  23.019  0.00  0.00    +0.000 A 
ATOM     11  C   UNL     1      -2.906  15.046  24.109  0.00  0.00    +0.000 A 
ATOM     12  C   UNL     1      -1.572  14.705  24.318  0.00  0.00    +0.000 A 
ATOM     13  C   UNL     1      -0.923  13.824  23.445  0.00  0.00    +0.000 A 
ATOM     14  C   UNL     1      -1.601  13.278  22.351  0.00  0.00    +0.000 A 
ATOM     15  C   UNL     1      -0.891  12.377  21.419  0.00  0.00    +0.000 C 
ATOM     16  O   UNL     1       0.283  12.112  21.634  0.00  0.00    +0.000 OA
ENDROOT
BRANCH   2  17
ATOM     17  S   UNL     1      -3.573  10.625  16.242  0.00  0.00    +0.000 S 
ATOM     18  O   UNL     1      -3.043   9.262  16.182  0.00  0.00    +0.000 OA
ATOM     19  O   UNL     1      -4.991  10.776  16.467  0.00  0.00    +0.000 OA
ATOM     20  O   UNL     1      -2.962  11.563  15.295  0.00  0.00    +0.000 OA
ENDBRANCH   2  17
BRANCH   1  21
ATOM     21  N   UNL     1      -4.714  12.686  18.348  0.00  0.00    +0.000 N 
ATOM     22  H   UNL     1      -5.537  12.043  18.250  0.00  0.00    +0.000 HD
ATOM     23  H   UNL     1      -4.949  13.425  19.022  0.00  0.00    +0.000 HD
ENDBRANCH   1  21
BRANCH   4  24
ATOM     24  N   UNL     1       0.498  10.856  19.279  0.00  0.00    +0.000 N 
ATOM     25  H   UNL     1       1.083  11.676  19.432  0.00  0.00    +0.000 HD
BRANCH  24  26
ATOM     26  C   UNL     1       1.189   9.631  19.153  0.00  0.00    +0.000 A 
ATOM     27  C   UNL     1       1.272   8.699  20.201  0.00  0.00    +0.000 A 
ATOM     28  C   UNL     1       2.000   7.513  20.066  0.00  0.00    +0.000 A 
ATOM     29  C   UNL     1       2.669   7.239  18.881  0.00  0.00    +0.000 A 
ATOM     30  C   UNL     1       2.607   8.152  17.830  0.00  0.00    +0.000 A 
ATOM     31  C   UNL     1       1.874   9.338  17.965  0.00  0.00    +0.000 A 
ENDBRANCH  24  26
ENDBRANCH   4  24
TORSDOF 4
ENDMDL
MODEL 6
REMARK VINA RESULT:      -6.9      5.663      8.509
REMARK  Name = 
REMARK  4 active torsions:
REMARK  status: ('A' for Active; 'I' for Inactive)
REMARK    1  A    between atoms: N_1  and  C_2
REMARK    2  A    between atoms: C_3  and  S_4
REMARK    3  A    between atoms: C_9  and  N_10
REMARK    4  A    between atoms: N_10  and  C_11
REMARK                            x       y       z     vdW  Elec       q    Type
REMARK                         _______ _______ _______ _____ _____    ______ ____
ROOT
ATOM      1  C   UNL     1      -1.242  13.925  20.724  0.00  0.00    +0.000 A 
ATOM      2  C   UNL     1       0.116  13.698  20.491  0.00  0.00    +0.000 A 
ATOM      3  C   UNL     1       0.548  12.732  19.586  0.00  0.00    +0.000 A 
ATOM      4  C   UNL     1      -0.356  11.915  18.902  0.00  0.00    +0.000 A 
ATOM      5  C   UNL     1      -1.737  12.170  19.063  0.00  0.00    +0.000 A 
ATOM      6  C   UNL     1      -2.174  13.175  19.956  0.00  0.00    +0.000 A 
ATOM      7  C   UNL     1      -3.632  13.384  20.198  0.00  0.00    +0.000 C 
ATOM      8  O   UNL     1      -4.042  14.240  20.985  0.00  0.00    +0.000 OA
ATOM      9  C   UNL     1      -4.619  12.511  19.562  0.00  0.00    +0.000 A 
ATOM     10  C   UNL     1      -5.983  12.672  19.864  0.00  0.00    +0.000 A 
ATOM     11  C   UNL     1      -6.927  11.801  19.321  0.00  0.00    +0.000 A 
ATOM     12  C   UNL     1      -6.505  10.776  18.479  0.00  0.00    +0.000 A 
ATOM     13  C   UNL     1      -5.146  10.625  18.175  0.00  0.00    +0.000 A 
ATOM     14  C   UNL     1      -4.196  11.497  18.716  0.00  0.00    +0.000 A 
ATOM     15  C   UNL     1      -2.762  11.303  18.414  0.00  0.00    +0.000 C 
ATOM     16  O   UNL     1      -2.434  10.384  17.676  0.00  0.00    +0.000 OA
ENDROOT
BRANCH   2  17
ATOM     17  S   UNL     1       1.440  14.574  21.363  0.00  0.00    +0.000 S 
ATOM     18  O   UNL     1       2.535  13.623  21.162  0.00  0.00    +0.000 OA
ATOM     19  O   UNL     1       1.503  15.819  20.634  0.00  0.00    +0.000 OA
ATOM     20  O   UNL     1       0.938  14.651  22.738  0.00  0.00    +0.000 OA
ENDBRANCH   2  17
BRANCH   1  21
ATOM     21  N   UNL     1      -1.673  14.591  21.898  0.00  0.00    +0.000 N 
ATOM     22  H   UNL     1      -1.083  14.288  22.710  0.00  0.00    +0.000 HD
ATOM     23  H   UNL     1      -1.611  15.613  21.806  0.00  0.00    +0.000 HD
ENDBRANCH   1  21
BRANCH   4  24
ATOM     24  N   UNL     1       0.159  10.816  18.187  0.00  0.00    +0.000 N 
ATOM     25  H   UNL     1      -0.038  10.829  17.188  0.00  0.00    +0.000 HD
BRANCH  24  26
ATOM     26  C   UNL     1       0.897   9.703  18.647  0.00  0.00    +0.000 A 
ATOM     27  C   UNL     1       1.705   8.929  17.798  0.00  0.00    +0.000 A 
ATOM     28  C   UNL     1       2.391   7.805  18.268  0.00  0.00    +0.000 A 
ATOM     29  C   UNL     1       2.275   7.426  19.598  0.00  0.00    +0.000 A 
ATOM     30  C   UNL     1       1.473   8.174  20.458  0.00  0.00    +0.000 A 
ATOM     31  C   UNL     1       0.789   9.303  19.986  0.00  0.00    +0.000 A 
ENDBRANCH  24  26
ENDBRANCH   4  24
TORSDOF 4
ENDMDL
MODEL 7
REMARK VINA RESULT:      -6.9      6.413      9.406
REMARK  Name = 
REMARK  4 active torsions:
REMARK  status: ('A' for Active; 'I' for Inactive)
REMARK    1  A    between atoms: N_1  and  C_2
REMARK    2  A    between atoms: C_3  and  S_4
REMARK    3  A    between atoms: C_9  and  N_10
REMARK    4  A    between atoms: N_10  and  C_11
REMARK                            x       y       z     vdW  Elec       q    Type
REMARK                         _______ _______ _______ _____ _____    ______ ____
ROOT
ATOM      1  C   UNL     1      -4.724  12.661  20.020  0.00  0.00    +0.000 A 
ATOM      2  C   UNL     1      -4.220  11.948  18.929  0.00  0.00    +0.000 A 
ATOM      3  C   UNL     1      -2.872  11.608  18.842  0.00  0.00    +0.000 A 
ATOM      4  C   UNL     1      -1.954  12.001  19.819  0.00  0.00    +0.000 A 
ATOM      5  C   UNL     1      -2.448  12.661  20.968  0.00  0.00    +0.000 A 
ATOM      6  C   UNL     1      -3.822  12.975  21.072  0.00  0.00    +0.000 A 
ATOM      7  C   UNL     1      -4.330  13.753  22.240  0.00  0.00    +0.000 C 
ATOM      8  O   UNL     1      -5.520  14.057  22.349  0.00  0.00    +0.000 OA
ATOM      9  C   UNL     1      -3.401  14.250  23.256  0.00  0.00    +0.000 A 
ATOM     10  C   UNL     1      -3.887  15.048  24.307  0.00  0.00    +0.000 A 
ATOM     11  C   UNL     1      -3.004  15.588  25.241  0.00  0.00    +0.000 A 
ATOM     12  C   UNL     1      -1.642  15.327  25.123  0.00  0.00    +0.000 A 
ATOM     13  C   UNL     1      -1.164  14.525  24.079  0.00  0.00    +0.000 A 
ATOM     14  C   UNL     1      -2.046  13.979  23.140  0.00  0.00    +0.000 A 
ATOM     15  C   UNL     1      -1.523  13.164  22.024  0.00  0.00    +0.000 C 
ATOM     16  O   UNL     1      -0.318  12.967  21.952  0.00  0.00    +0.000 OA
ENDROOT
BRANCH   2  17
ATOM     17  S   UNL     1      -5.227  11.447  17.510  0.00  0.00    +0.000 S 
ATOM     18  O   UNL     1      -4.218  10.716  16.741  0.00  0.00    +0.000 OA
ATOM     19  O   UNL     1      -6.268  10.672  18.142  0.00  0.00    +0.000 OA
ATOM     20  O   UNL     1      -5.635  12.728  16.924  0.00  0.00    +0.000 OA
ENDBRANCH   2  17
BRANCH   1  21
ATOM     21  N   UNL     1      -5.962  13.344  19.927  0.00  0.00    +0.000 N 
ATOM     22  H   UNL     1      -5.807  14.296  19.515  0.00  0.00    +0.000 HD
ATOM     23  H   UNL     1      -6.639  12.836  19.343  0.00  0.00    +0.000 HD
ENDBRANCH   1  21
BRANCH   4  24
ATOM     24  N   UNL     1      -0.584  11.822  19.547  0.00  0.00    +0.000 N 
ATOM     25  H   UNL     1      -0.070  12.684  19.371  0.00  0.00    +0.000 HD
BRANCH  24  26
ATOM     26  C   UNL     1       0.177  10.635  19.477  0.00  0.00    +0.000 A 
ATOM     27  C   UNL     1       0.385   9.804  20.590  0.00  0.00    +0.000 A 
ATOM     28  C   UNL     1       1.179   8.657  20.506  0.00  0.00    +0.000 A 
ATOM     29  C   UNL     1       1.793   8.323  19.306  0.00  0.00    +0.000 A 
ATOM     30  C   UNL     1       1.608   9.136  18.190  0.00  0.00    +0.000 A 
ATOM     31  C   UNL     1       0.808  10.283  18.275  0.00  0.00    +0.000 A 
ENDBRANCH  24  26
ENDBRANCH   4  24
TORSDOF 4
ENDMDL
MODEL 8
REMARK VINA RESULT:      -6.8      9.144     11.059
REMARK  Name = 
REMARK  4 active torsions:
REMARK  status: ('A' for Active; 'I' for Inactive)
REMARK    1  A    between atoms: N_1  and  C_2
REMARK    2  A    between atoms: C_3  and  S_4
REMARK    3  A    between atoms: C_9  and  N_10
REMARK    4  A    between atoms: N_10  and  C_11
REMARK                            x       y       z     vdW  Elec       q    Type
REMARK                         _______ _______ _______ _____ _____    ______ ____
ROOT
ATOM      1  C   UNL     1       8.011  12.898  22.146  0.00  0.00    +0.000 A 
ATOM      2  C   UNL     1       6.846  13.556  22.550  0.00  0.00    +0.000 A 
ATOM      3  C   UNL     1       6.240  14.521  21.749  0.00  0.00    +0.000 A 
ATOM      4  C   UNL     1       6.793  14.907  20.525  0.00  0.00    +0.000 A 
ATOM      5  C   UNL     1       7.930  14.208  20.058  0.00  0.00    +0.000 A 
ATOM      6  C   UNL     1       8.524  13.204  20.856  0.00  0.00    +0.000 A 
ATOM      7  C   UNL     1       9.778  12.531  20.407  0.00  0.00    +0.000 C 
ATOM      8  O   UNL     1      10.329  11.665  21.091  0.00  0.00    +0.000 OA
ATOM      9  C   UNL     1      10.436  12.946  19.168  0.00  0.00    +0.000 A 
ATOM     10  C   UNL     1      11.659  12.354  18.802  0.00  0.00    +0.000 A 
ATOM     11  C   UNL     1      12.333  12.791  17.663  0.00  0.00    +0.000 A 
ATOM     12  C   UNL     1      11.783  13.813  16.894  0.00  0.00    +0.000 A 
ATOM     13  C   UNL     1      10.562  14.392  17.259  0.00  0.00    +0.000 A 
ATOM     14  C   UNL     1       9.881  13.957  18.400  0.00  0.00    +0.000 A 
ATOM     15  C   UNL     1       8.610  14.603  18.791  0.00  0.00    +0.000 C 
ATOM     16  O   UNL     1       8.167  15.504  18.092  0.00  0.00    +0.000 OA
ENDROOT
BRANCH   2  17
ATOM     17  S   UNL     1       6.044  13.277  24.149  0.00  0.00    +0.000 S 
ATOM     18  O   UNL     1       7.117  13.719  25.041  0.00  0.00    +0.000 OA
ATOM     19  O   UNL     1       4.878  14.122  24.047  0.00  0.00    +0.000 OA
ATOM     20  O   UNL     1       5.800  11.831  24.150  0.00  0.00    +0.000 OA
ENDBRANCH   2  17
BRANCH   1  21
ATOM     21  N   UNL     1       8.835  12.240  23.093  0.00  0.00    +0.000 N 
ATOM     22  H   UNL     1       8.374  12.264  24.034  0.00  0.00    +0.000 HD
ATOM     23  H   UNL     1       9.011  11.261  22.834  0.00  0.00    +0.000 HD
ENDBRANCH   1  21
BRANCH   4  24
ATOM     24  N   UNL     1       6.255  16.043  19.888  0.00  0.00    +0.000 N 
ATOM     25  H   UNL     1       6.878  16.849  19.862  0.00  0.00    +0.000 HD
BRANCH  24  26
ATOM     26  C   UNL     1       4.990  16.231  19.289  0.00  0.00    +0.000 A 
ATOM     27  C   UNL     1       3.978  16.998  19.888  0.00  0.00    +0.000 A 
ATOM     28  C   UNL     1       2.718  17.133  19.297  0.00  0.00    +0.000 A 
ATOM     29  C   UNL     1       2.442  16.492  18.097  0.00  0.00    +0.000 A 
ATOM     30  C   UNL     1       3.428  15.718  17.488  0.00  0.00    +0.000 A 
ATOM     31  C   UNL     1       4.691  15.588  18.080  0.00  0.00    +0.000 A 
ENDBRANCH  24  26
ENDBRANCH   4  24
TORSDOF 4
ENDMDL
MODEL 9
REMARK VINA RESULT:      -6.8      5.265      9.357
REMARK  Name = 
REMARK  4 active torsions:
REMARK  status: ('A' for Active; 'I' for Inactive)
REMARK    1  A    between atoms: N_1  and  C_2
REMARK    2  A    between atoms: C_3  and  S_4
REMARK    3  A    between atoms: C_9  and  N_10
REMARK    4  A    between atoms: N_10  and  C_11
REMARK                            x       y       z     vdW  Elec       q    Type
REMARK                         _______ _______ _______ _____ _____    ______ ____
ROOT
ATOM      1  C   UNL     1      -1.424  11.407  22.093  0.00  0.00    +0.000 A 
ATOM      2  C   UNL     1      -2.016  12.669  21.991  0.00  0.00    +0.000 A 
ATOM      3  C   UNL     1      -1.861  13.456  20.853  0.00  0.00    +0.000 A 
ATOM      4  C   UNL     1      -1.071  13.040  19.778  0.00  0.00    +0.000 A 
ATOM      5  C   UNL     1      -0.519  11.739  19.822  0.00  0.00    +0.000 A 
ATOM      6  C   UNL     1      -0.706  10.926  20.964  0.00  0.00    +0.000 A 
ATOM      7  C   UNL     1      -0.047   9.590  21.052  0.00  0.00    +0.000 C 
ATOM      8  O   UNL     1      -0.178   8.868  22.043  0.00  0.00    +0.000 OA
ATOM      9  C   UNL     1       0.846   9.136  19.987  0.00  0.00    +0.000 A 
ATOM     10  C   UNL     1       1.520   7.909  20.124  0.00  0.00    +0.000 A 
ATOM     11  C   UNL     1       2.430   7.497  19.151  0.00  0.00    +0.000 A 
ATOM     12  C   UNL     1       2.660   8.311  18.045  0.00  0.00    +0.000 A 
ATOM     13  C   UNL     1       1.980   9.528  17.909  0.00  0.00    +0.000 A 
ATOM     14  C   UNL     1       1.066   9.944  18.882  0.00  0.00    +0.000 A 
ATOM     15  C   UNL     1       0.383  11.247  18.742  0.00  0.00    +0.000 C 
ATOM     16  O   UNL     1       0.622  11.935  17.759  0.00  0.00    +0.000 OA
ENDROOT
BRANCH   2  17
ATOM     17  S   UNL     1      -2.982  13.430  23.320  0.00  0.00    +0.000 S 
ATOM     18  O   UNL     1      -3.750  12.266  23.762  0.00  0.00    +0.000 OA
ATOM     19  O   UNL     1      -1.945  13.913  24.202  0.00  0.00    +0.000 OA
ATOM     20  O   UNL     1      -3.765  14.452  22.618  0.00  0.00    +0.000 OA
ENDBRANCH   2  17
BRANCH   1  21
ATOM     21  N   UNL     1      -1.239  10.795  23.357  0.00  0.00    +0.000 N 
ATOM     22  H   UNL     1      -0.868   9.824  23.226  0.00  0.00    +0.000 HD
ATOM     23  H   UNL     1      -0.585  11.323  23.948  0.00  0.00    +0.000 HD
ENDBRANCH   1  21
BRANCH   4  24
ATOM     24  N   UNL     1      -0.777  13.981  18.772  0.00  0.00    +0.000 N 
ATOM     25  H   UNL     1      -1.195  13.779  17.866  0.00  0.00    +0.000 HD
BRANCH  24  26
ATOM     26  C   UNL     1       0.009  15.153  18.832  0.00  0.00    +0.000 A 
ATOM     27  C   UNL     1      -0.521  16.431  18.591  0.00  0.00    +0.000 A 
ATOM     28  C   UNL     1       0.287  17.572  18.612  0.00  0.00    +0.000 A 
ATOM     29  C   UNL     1       1.647  17.455  18.865  0.00  0.00    +0.000 A 
ATOM     30  C   UNL     1       2.197  16.197  19.099  0.00  0.00    +0.000 A 
ATOM     31  C   UNL     1       1.385  15.055  19.082  0.00  0.00    +0.000 A 
ENDBRANCH  24  26
ENDBRANCH   4  24
TORSDOF 4
ENDMDL
