MODEL 1
REMARK VINA RESULT:      -7.4      0.000      0.000
REMARK  Name = 
REMARK  10 active torsions:
REMARK  status: ('A' for Active; 'I' for Inactive)
REMARK    1  A    between atoms: C_1  and  C_2
REMARK    2  A    between atoms: C_2  and  C_3
REMARK    3  A    between atoms: C_3  and  C_4
REMARK    4  A    between atoms: C_8  and  C_10
REMARK    5  A    between atoms: C_10  and  O_11
REMARK    6  A    between atoms: O_11  and  C_12
REMARK    7  A    between atoms: C_12  and  C_14
REMARK    8  A    between atoms: C_17  and  S_18
REMARK    9  A    between atoms: S_18  and  C_19
REMARK   10  A    between atoms: C_22  and  N_23
REMARK                            x       y       z     vdW  Elec       q    Type
REMARK                         _______ _______ _______ _____ _____    ______ ____
ROOT
ATOM      1  C   UNL     1       2.664   6.316  18.985  0.00  0.00    +0.000 C 
ATOM      2  O   UNL     1       2.374   5.790  17.924  0.00  0.00    +0.000 OA
ENDROOT
BRANCH   1   3
ATOM      3  C   UNL     1       1.931   7.484  19.537  0.00  0.00    +0.000 A 
ATOM      4  C   UNL     1       1.432   7.383  20.843  0.00  0.00    +0.000 A 
ATOM      5  C   UNL     1       0.742   8.447  21.430  0.00  0.00    +0.000 A 
ATOM      6  C   UNL     1       0.520   9.624  20.704  0.00  0.00    +0.000 A 
ATOM      7  C   UNL     1       1.004   9.717  19.396  0.00  0.00    +0.000 A 
ATOM      8  C   UNL     1       1.713   8.658  18.805  0.00  0.00    +0.000 A 
BRANCH   6   9
ATOM      9  S   UNL     1      -0.202  11.000  21.566  0.00  0.00    +0.000 S 
ATOM     10  C   UNL     1      -0.617  10.368  23.169  0.00  0.00    +0.000 C 
ATOM     11  O   UNL     1       0.860  11.973  21.745  0.00  0.00    +0.000 OA
ATOM     12  O   UNL     1      -1.410  11.377  20.863  0.00  0.00    +0.000 OA
ENDBRANCH   6   9
BRANCH   7  13
ATOM     13  N   UNL     1       0.690  10.848  18.543  0.00  0.00    +0.000 N 
ATOM     14  O   UNL     1       1.544  11.742  18.493  0.00  0.00    +0.000 OA
ATOM     15  O   UNL     1      -0.434  10.879  18.032  0.00  0.00    +0.000 OA
ENDBRANCH   7  13
ENDBRANCH   1   3
BRANCH   1  16
ATOM     16  O   UNL     1       3.691   5.958  19.796  0.00  0.00    +0.000 OA
BRANCH  16  17
ATOM     17  C   UNL     1       4.177   4.641  19.521  0.00  0.00    +0.000 C 
BRANCH  17  22
ATOM     18  C   UNL     1       6.241   5.192  14.761  0.00  0.00    +0.000 C 
ATOM     19  C   UNL     1       7.299   5.500  15.839  0.00  0.00    +0.000 C 
ATOM     20  C   UNL     1       7.184   4.615  17.084  0.00  0.00    +0.000 C 
ATOM     21  N   UNL     1       5.814   4.595  17.600  0.00  0.00    +0.000 N 
ATOM     22  C   UNL     1       5.617   4.651  18.977  0.00  0.00    +0.000 C 
ATOM     23  O   UNL     1       6.561   4.760  19.766  0.00  0.00    +0.000 OA
ATOM     24  C   UNL     1       4.799   4.222  16.618  0.00  0.00    +0.000 C 
ATOM     25  C   UNL     1       4.852   5.160  15.417  0.00  0.00    +0.000 C 
BRANCH  18  26
ATOM     26  C   UNL     1       6.583   3.913  13.962  0.00  0.00    +0.000 C 
BRANCH  26  28
ATOM     27  C   UNL     1       6.048   2.622  11.842  0.00  0.00    +0.000 C 
ATOM     28  C   UNL     1       5.517   3.557  12.918  0.00  0.00    +0.000 C 
ENDBRANCH  26  28
ENDBRANCH  18  26
ENDBRANCH  17  22
ENDBRANCH  16  17
ENDBRANCH   1  16
TORSDOF 8
ENDMDL
MODEL 2
REMARK VINA RESULT:      -7.4      3.144      9.044
REMARK  Name = 
REMARK  10 active torsions:
REMARK  status: ('A' for Active; 'I' for Inactive)
REMARK    1  A    between atoms: C_1  and  C_2
REMARK    2  A    between atoms: C_2  and  C_3
REMARK    3  A    between atoms: C_3  and  C_4
REMARK    4  A    between atoms: C_8  and  C_10
REMARK    5  A    between atoms: C_10  and  O_11
REMARK    6  A    between atoms: O_11  and  C_12
REMARK    7  A    between atoms: C_12  and  C_14
REMARK    8  A    between atoms: C_17  and  S_18
REMARK    9  A    between atoms: S_18  and  C_19
REMARK   10  A    between atoms: C_22  and  N_23
REMARK                            x       y       z     vdW  Elec       q    Type
REMARK                         _______ _______ _______ _____ _____    ______ ____
ROOT
ATOM      1  C   UNL     1       2.565   4.230  20.193  0.00  0.00    +0.000 C 
ATOM      2  O   UNL     1       2.617   3.393  21.077  0.00  0.00    +0.000 OA
ENDROOT
BRANCH   1   3
ATOM      3  C   UNL     1       3.613   4.372  19.149  0.00  0.00    +0.000 A 
ATOM      4  C   UNL     1       3.358   3.808  17.890  0.00  0.00    +0.000 A 
ATOM      5  C   UNL     1       4.294   3.912  16.859  0.00  0.00    +0.000 A 
ATOM      6  C   UNL     1       5.514   4.564  17.081  0.00  0.00    +0.000 A 
ATOM      7  C   UNL     1       5.772   5.111  18.341  0.00  0.00    +0.000 A 
ATOM      8  C   UNL     1       4.830   5.025  19.379  0.00  0.00    +0.000 A 
BRANCH   6   9
ATOM      9  S   UNL     1       6.580   4.819  15.682  0.00  0.00    +0.000 S 
ATOM     10  C   UNL     1       5.967   3.718  14.435  0.00  0.00    +0.000 C 
ATOM     11  O   UNL     1       6.334   6.173  15.222  0.00  0.00    +0.000 OA
ATOM     12  O   UNL     1       7.917   4.422  16.067  0.00  0.00    +0.000 OA
ENDBRANCH   6   9
BRANCH   7  13
ATOM     13  N   UNL     1       7.066   5.674  18.680  0.00  0.00    +0.000 N 
ATOM     14  O   UNL     1       7.262   6.840  18.314  0.00  0.00    +0.000 OA
ATOM     15  O   UNL     1       7.895   4.920  19.199  0.00  0.00    +0.000 OA
ENDBRANCH   7  13
ENDBRANCH   1   3
BRANCH   1  16
ATOM     16  O   UNL     1       1.595   5.166  20.039  0.00  0.00    +0.000 OA
BRANCH  16  17
ATOM     17  C   UNL     1       1.804   6.317  20.861  0.00  0.00    +0.000 C 
BRANCH  17  22
ATOM     18  C   UNL     1      -0.022  11.103  21.851  0.00  0.00    +0.000 C 
ATOM     19  C   UNL     1       0.999  11.152  20.697  0.00  0.00    +0.000 C 
ATOM     20  C   UNL     1       0.941   9.930  19.774  0.00  0.00    +0.000 C 
ATOM     21  N   UNL     1       0.981   8.682  20.537  0.00  0.00    +0.000 N 
ATOM     22  C   UNL     1       1.752   7.628  20.055  0.00  0.00    +0.000 C 
ATOM     23  O   UNL     1       2.432   7.734  19.029  0.00  0.00    +0.000 OA
ATOM     24  C   UNL     1      -0.033   8.574  21.583  0.00  0.00    +0.000 C 
ATOM     25  C   UNL     1       0.083   9.742  22.556  0.00  0.00    +0.000 C 
BRANCH  18  26
ATOM     26  C   UNL     1      -1.452  11.451  21.375  0.00  0.00    +0.000 C 
BRANCH  26  28
ATOM     27  C   UNL     1      -1.211  13.208  23.192  0.00  0.00    +0.000 C 
ATOM     28  C   UNL     1      -2.175  12.424  22.315  0.00  0.00    +0.000 C 
ENDBRANCH  26  28
ENDBRANCH  18  26
ENDBRANCH  17  22
ENDBRANCH  16  17
ENDBRANCH   1  16
TORSDOF 8
ENDMDL
MODEL 3
REMARK VINA RESULT:      -7.3      1.429      2.347
REMARK  Name = 
REMARK  10 active torsions:
REMARK  status: ('A' for Active; 'I' for Inactive)
REMARK    1  A    between atoms: C_1  and  C_2
REMARK    2  A    between atoms: C_2  and  C_3
REMARK    3  A    between atoms: C_3  and  C_4
REMARK    4  A    between atoms: C_8  and  C_10
REMARK    5  A    between atoms: C_10  and  O_11
REMARK    6  A    between atoms: O_11  and  C_12
REMARK    7  A    between atoms: C_12  and  C_14
REMARK    8  A    between atoms: C_17  and  S_18
REMARK    9  A    between atoms: S_18  and  C_19
REMARK   10  A    between atoms: C_22  and  N_23
REMARK                            x       y       z     vdW  Elec       q    Type
REMARK                         _______ _______ _______ _____ _____    ______ ____
ROOT
ATOM      1  C   UNL     1       2.779   5.901  19.395  0.00  0.00    +0.000 C 
ATOM      2  O   UNL     1       2.176   4.853  19.544  0.00  0.00    +0.000 OA
ENDROOT
BRANCH   1   3
ATOM      3  C   UNL     1       2.173   7.231  19.667  0.00  0.00    +0.000 A 
ATOM      4  C   UNL     1       2.238   8.195  18.652  0.00  0.00    +0.000 A 
ATOM      5  C   UNL     1       1.679   9.463  18.834  0.00  0.00    +0.000 A 
ATOM      6  C   UNL     1       1.066   9.791  20.050  0.00  0.00    +0.000 A 
ATOM      7  C   UNL     1       1.018   8.833  21.067  0.00  0.00    +0.000 A 
ATOM      8  C   UNL     1       1.562   7.551  20.886  0.00  0.00    +0.000 A 
BRANCH   6   9
ATOM      9  S   UNL     1       0.220  11.350  20.153  0.00  0.00    +0.000 S 
ATOM     10  C   UNL     1       0.675  12.215  18.673  0.00  0.00    +0.000 C 
ATOM     11  O   UNL     1      -1.197  11.053  20.062  0.00  0.00    +0.000 OA
ATOM     12  O   UNL     1       0.733  12.057  21.306  0.00  0.00    +0.000 OA
ENDBRANCH   6   9
BRANCH   7  13
ATOM     13  N   UNL     1       0.526   9.151  22.394  0.00  0.00    +0.000 N 
ATOM     14  O   UNL     1      -0.689   8.995  22.573  0.00  0.00    +0.000 OA
ATOM     15  O   UNL     1       1.325   9.650  23.192  0.00  0.00    +0.000 OA
ENDBRANCH   7  13
ENDBRANCH   1   3
BRANCH   1  16
ATOM     16  O   UNL     1       4.050   6.030  18.937  0.00  0.00    +0.000 OA
BRANCH  16  17
ATOM     17  C   UNL     1       4.945   5.080  19.522  0.00  0.00    +0.000 C 
BRANCH  17  22
ATOM     18  C   UNL     1       5.953   4.791  14.410  0.00  0.00    +0.000 C 
ATOM     19  C   UNL     1       7.232   5.172  15.184  0.00  0.00    +0.000 C 
ATOM     20  C   UNL     1       7.351   4.486  16.549  0.00  0.00    +0.000 C 
ATOM     21  N   UNL     1       6.125   4.640  17.334  0.00  0.00    +0.000 N 
ATOM     22  C   UNL     1       6.233   4.907  18.696  0.00  0.00    +0.000 C 
ATOM     23  O   UNL     1       7.329   5.057  19.245  0.00  0.00    +0.000 OA
ATOM     24  C   UNL     1       4.908   4.206  16.653  0.00  0.00    +0.000 C 
ATOM     25  C   UNL     1       4.739   4.956  15.337  0.00  0.00    +0.000 C 
BRANCH  18  26
ATOM     26  C   UNL     1       6.062   3.390  13.767  0.00  0.00    +0.000 C 
BRANCH  26  28
ATOM     27  C   UNL     1       5.958   2.151  11.552  0.00  0.00    +0.000 C 
ATOM     28  C   UNL     1       6.338   3.444  12.259  0.00  0.00    +0.000 C 
ENDBRANCH  26  28
ENDBRANCH  18  26
ENDBRANCH  17  22
ENDBRANCH  16  17
ENDBRANCH   1  16
TORSDOF 8
ENDMDL
MODEL 4
REMARK VINA RESULT:      -7.2      4.111      9.557
REMARK  Name = 
REMARK  10 active torsions:
REMARK  status: ('A' for Active; 'I' for Inactive)
REMARK    1  A    between atoms: C_1  and  C_2
REMARK    2  A    between atoms: C_2  and  C_3
REMARK    3  A    between atoms: C_3  and  C_4
REMARK    4  A    between atoms: C_8  and  C_10
REMARK    5  A    between atoms: C_10  and  O_11
REMARK    6  A    between atoms: O_11  and  C_12
REMARK    7  A    between atoms: C_12  and  C_14
REMARK    8  A    between atoms: C_17  and  S_18
REMARK    9  A    between atoms: S_18  and  C_19
REMARK   10  A    between atoms: C_22  and  N_23
REMARK                            x       y       z     vdW  Elec       q    Type
REMARK                         _______ _______ _______ _____ _____    ______ ____
ROOT
ATOM      1  C   UNL     1       2.202   7.905  19.143  0.00  0.00    +0.000 C 
ATOM      2  O   UNL     1       1.630   7.638  20.185  0.00  0.00    +0.000 OA
ENDROOT
BRANCH   1   3
ATOM      3  C   UNL     1       3.161   6.979  18.485  0.00  0.00    +0.000 A 
ATOM      4  C   UNL     1       3.826   7.437  17.339  0.00  0.00    +0.000 A 
ATOM      5  C   UNL     1       4.749   6.625  16.676  0.00  0.00    +0.000 A 
ATOM      6  C   UNL     1       5.002   5.328  17.140  0.00  0.00    +0.000 A 
ATOM      7  C   UNL     1       4.325   4.867  18.272  0.00  0.00    +0.000 A 
ATOM      8  C   UNL     1       3.408   5.683  18.955  0.00  0.00    +0.000 A 
BRANCH   6   9
ATOM      9  S   UNL     1       6.313   4.415  16.362  0.00  0.00    +0.000 S 
ATOM     10  C   UNL     1       6.832   5.430  15.004  0.00  0.00    +0.000 C 
ATOM     11  O   UNL     1       7.405   4.376  17.316  0.00  0.00    +0.000 OA
ATOM     12  O   UNL     1       5.754   3.179  15.859  0.00  0.00    +0.000 OA
ENDBRANCH   6   9
BRANCH   7  13
ATOM     13  N   UNL     1       4.433   3.492  18.722  0.00  0.00    +0.000 N 
ATOM     14  O   UNL     1       3.616   2.698  18.239  0.00  0.00    +0.000 OA
ATOM     15  O   UNL     1       5.245   3.250  19.621  0.00  0.00    +0.000 OA
ENDBRANCH   7  13
ENDBRANCH   1   3
BRANCH   1  16
ATOM     16  O   UNL     1       2.093   9.066  18.451  0.00  0.00    +0.000 OA
BRANCH  16  17
ATOM     17  C   UNL     1       0.807   9.229  17.847  0.00  0.00    +0.000 C 
BRANCH  17  22
ATOM     18  C   UNL     1      -4.156  10.838  17.956  0.00  0.00    +0.000 C 
ATOM     19  C   UNL     1      -3.299  11.689  18.916  0.00  0.00    +0.000 C 
ATOM     20  C   UNL     1      -1.882  11.958  18.399  0.00  0.00    +0.000 C 
ATOM     21  N   UNL     1      -1.226  10.722  17.970  0.00  0.00    +0.000 N 
ATOM     22  C   UNL     1       0.117  10.533  18.287  0.00  0.00    +0.000 C 
ATOM     23  O   UNL     1       0.751  11.359  18.953  0.00  0.00    +0.000 OA
ATOM     24  C   UNL     1      -1.980   9.939  16.995  0.00  0.00    +0.000 C 
ATOM     25  C   UNL     1      -3.358   9.591  17.545  0.00  0.00    +0.000 C 
BRANCH  18  26
ATOM     26  C   UNL     1      -4.680  11.666  16.760  0.00  0.00    +0.000 C 
BRANCH  26  28
ATOM     27  C   UNL     1      -6.959  11.940  17.845  0.00  0.00    +0.000 C 
ATOM     28  C   UNL     1      -5.800  12.638  17.151  0.00  0.00    +0.000 C 
ENDBRANCH  26  28
ENDBRANCH  18  26
ENDBRANCH  17  22
ENDBRANCH  16  17
ENDBRANCH   1  16
TORSDOF 8
ENDMDL
MODEL 5
REMARK VINA RESULT:      -7.2      1.645      2.560
REMARK  Name = 
REMARK  10 active torsions:
REMARK  status: ('A' for Active; 'I' for Inactive)
REMARK    1  A    between atoms: C_1  and  C_2
REMARK    2  A    between atoms: C_2  and  C_3
REMARK    3  A    between atoms: C_3  and  C_4
REMARK    4  A    between atoms: C_8  and  C_10
REMARK    5  A    between atoms: C_10  and  O_11
REMARK    6  A    between atoms: O_11  and  C_12
REMARK    7  A    between atoms: C_12  and  C_14
REMARK    8  A    between atoms: C_17  and  S_18
REMARK    9  A    between atoms: S_18  and  C_19
REMARK   10  A    between atoms: C_22  and  N_23
REMARK                            x       y       z     vdW  Elec       q    Type
REMARK                         _______ _______ _______ _____ _____    ______ ____
ROOT
ATOM      1  C   UNL     1       2.636   4.713  19.213  0.00  0.00    +0.000 C 
ATOM      2  O   UNL     1       2.205   3.973  18.345  0.00  0.00    +0.000 OA
ENDROOT
BRANCH   1   3
ATOM      3  C   UNL     1       2.270   6.150  19.306  0.00  0.00    +0.000 A 
ATOM      4  C   UNL     1       2.559   6.969  18.205  0.00  0.00    +0.000 A 
ATOM      5  C   UNL     1       2.234   8.327  18.220  0.00  0.00    +0.000 A 
ATOM      6  C   UNL     1       1.633   8.893  19.351  0.00  0.00    +0.000 A 
ATOM      7  C   UNL     1       1.361   8.078  20.454  0.00  0.00    +0.000 A 
ATOM      8  C   UNL     1       1.670   6.708  20.442  0.00  0.00    +0.000 A 
BRANCH   6   9
ATOM      9  S   UNL     1       1.083  10.578  19.237  0.00  0.00    +0.000 S 
ATOM     10  C   UNL     1       2.117  11.314  18.000  0.00  0.00    +0.000 C 
ATOM     11  O   UNL     1      -0.266  10.532  18.703  0.00  0.00    +0.000 OA
ATOM     12  O   UNL     1       1.327  11.211  20.515  0.00  0.00    +0.000 OA
ENDBRANCH   6   9
BRANCH   7  13
ATOM     13  N   UNL     1       0.872   8.625  21.707  0.00  0.00    +0.000 N 
ATOM     14  O   UNL     1      -0.358   8.708  21.817  0.00  0.00    +0.000 OA
ATOM     15  O   UNL     1       1.710   9.060  22.502  0.00  0.00    +0.000 OA
ENDBRANCH   7  13
ENDBRANCH   1   3
BRANCH   1  16
ATOM     16  O   UNL     1       3.521   4.372  20.182  0.00  0.00    +0.000 OA
BRANCH  16  17
ATOM     17  C   UNL     1       4.655   3.668  19.669  0.00  0.00    +0.000 C 
BRANCH  17  22
ATOM     18  C   UNL     1       5.758   5.488  14.905  0.00  0.00    +0.000 C 
ATOM     19  C   UNL     1       6.385   6.398  15.981  0.00  0.00    +0.000 C 
ATOM     20  C   UNL     1       6.901   5.635  17.206  0.00  0.00    +0.000 C 
ATOM     21  N   UNL     1       5.885   4.722  17.733  0.00  0.00    +0.000 N 
ATOM     22  C   UNL     1       5.730   4.619  19.113  0.00  0.00    +0.000 C 
ATOM     23  O   UNL     1       6.394   5.306  19.895  0.00  0.00    +0.000 OA
ATOM     24  C   UNL     1       5.335   3.791  16.751  0.00  0.00    +0.000 C 
ATOM     25  C   UNL     1       4.739   4.552  15.573  0.00  0.00    +0.000 C 
BRANCH  18  26
ATOM     26  C   UNL     1       6.832   4.750  14.073  0.00  0.00    +0.000 C 
BRANCH  26  28
ATOM     27  C   UNL     1       6.695   3.565  11.831  0.00  0.00    +0.000 C 
ATOM     28  C   UNL     1       6.266   3.558  13.291  0.00  0.00    +0.000 C 
ENDBRANCH  26  28
ENDBRANCH  18  26
ENDBRANCH  17  22
ENDBRANCH  16  17
ENDBRANCH   1  16
TORSDOF 8
ENDMDL
MODEL 6
REMARK VINA RESULT:      -7.2      3.416     10.062
REMARK  Name = 
REMARK  10 active torsions:
REMARK  status: ('A' for Active; 'I' for Inactive)
REMARK    1  A    between atoms: C_1  and  C_2
REMARK    2  A    between atoms: C_2  and  C_3
REMARK    3  A    between atoms: C_3  and  C_4
REMARK    4  A    between atoms: C_8  and  C_10
REMARK    5  A    between atoms: C_10  and  O_11
REMARK    6  A    between atoms: O_11  and  C_12
REMARK    7  A    between atoms: C_12  and  C_14
REMARK    8  A    between atoms: C_17  and  S_18
REMARK    9  A    between atoms: S_18  and  C_19
REMARK   10  A    between atoms: C_22  and  N_23
REMARK                            x       y       z     vdW  Elec       q    Type
REMARK                         _______ _______ _______ _____ _____    ______ ____
ROOT
ATOM      1  C   UNL     1       1.700   9.163  18.330  0.00  0.00    +0.000 C 
ATOM      2  O   UNL     1       1.740  10.052  17.496  0.00  0.00    +0.000 OA
ENDROOT
BRANCH   1   3
ATOM      3  C   UNL     1       2.594   7.977  18.293  0.00  0.00    +0.000 A 
ATOM      4  C   UNL     1       2.408   6.991  19.272  0.00  0.00    +0.000 A 
ATOM      5  C   UNL     1       3.205   5.844  19.291  0.00  0.00    +0.000 A 
ATOM      6  C   UNL     1       4.221   5.680  18.341  0.00  0.00    +0.000 A 
ATOM      7  C   UNL     1       4.415   6.672  17.376  0.00  0.00    +0.000 A 
ATOM      8  C   UNL     1       3.607   7.820  17.339  0.00  0.00    +0.000 A 
BRANCH   6   9
ATOM      9  S   UNL     1       5.077   4.123  18.309  0.00  0.00    +0.000 S 
ATOM     10  C   UNL     1       4.295   3.147  19.566  0.00  0.00    +0.000 C 
ATOM     11  O   UNL     1       4.766   3.512  17.030  0.00  0.00    +0.000 OA
ATOM     12  O   UNL     1       6.456   4.369  18.671  0.00  0.00    +0.000 OA
ENDBRANCH   6   9
BRANCH   7  13
ATOM     13  N   UNL     1       5.534   6.633  16.453  0.00  0.00    +0.000 N 
ATOM     14  O   UNL     1       6.598   7.110  16.869  0.00  0.00    +0.000 OA
ATOM     15  O   UNL     1       5.310   6.237  15.305  0.00  0.00    +0.000 OA
ENDBRANCH   7  13
ENDBRANCH   1   3
BRANCH   1  16
ATOM     16  O   UNL     1       0.837   9.091  19.374  0.00  0.00    +0.000 OA
BRANCH  16  17
ATOM     17  C   UNL     1       0.856  10.267  20.187  0.00  0.00    +0.000 C 
BRANCH  17  22
ATOM     18  C   UNL     1      -2.305  13.512  22.776  0.00  0.00    +0.000 C 
ATOM     19  C   UNL     1      -2.650  12.048  23.118  0.00  0.00    +0.000 C 
ATOM     20  C   UNL     1      -1.426  11.130  23.193  0.00  0.00    +0.000 C 
ATOM     21  N   UNL     1      -0.579  11.270  22.006  0.00  0.00    +0.000 N 
ATOM     22  C   UNL     1      -0.025  10.124  21.442  0.00  0.00    +0.000 C 
ATOM     23  O   UNL     1      -0.262   8.997  21.890  0.00  0.00    +0.000 OA
ATOM     24  C   UNL     1      -0.168  12.639  21.710  0.00  0.00    +0.000 C 
ATOM     25  C   UNL     1      -1.389  13.536  21.543  0.00  0.00    +0.000 C 
BRANCH  18  26
ATOM     26  C   UNL     1      -1.732  14.271  23.995  0.00  0.00    +0.000 C 
BRANCH  26  28
ATOM     27  C   UNL     1      -4.026  15.328  24.252  0.00  0.00    +0.000 C 
ATOM     28  C   UNL     1      -2.818  14.745  24.969  0.00  0.00    +0.000 C 
ENDBRANCH  26  28
ENDBRANCH  18  26
ENDBRANCH  17  22
ENDBRANCH  16  17
ENDBRANCH   1  16
TORSDOF 8
ENDMDL
MODEL 7
REMARK VINA RESULT:      -7.1      3.931      9.278
REMARK  Name = 
REMARK  10 active torsions:
REMARK  status: ('A' for Active; 'I' for Inactive)
REMARK    1  A    between atoms: C_1  and  C_2
REMARK    2  A    between atoms: C_2  and  C_3
REMARK    3  A    between atoms: C_3  and  C_4
REMARK    4  A    between atoms: C_8  and  C_10
REMARK    5  A    between atoms: C_10  and  O_11
REMARK    6  A    between atoms: O_11  and  C_12
REMARK    7  A    between atoms: C_12  and  C_14
REMARK    8  A    between atoms: C_17  and  S_18
REMARK    9  A    between atoms: S_18  and  C_19
REMARK   10  A    between atoms: C_22  and  N_23
REMARK                            x       y       z     vdW  Elec       q    Type
REMARK                         _______ _______ _______ _____ _____    ______ ____
ROOT
ATOM      1  C   UNL     1       1.533   8.946  18.692  0.00  0.00    +0.000 C 
ATOM      2  O   UNL     1       1.052   9.529  17.736  0.00  0.00    +0.000 OA
ENDROOT
BRANCH   1   3
ATOM      3  C   UNL     1       2.498   7.824  18.554  0.00  0.00    +0.000 A 
ATOM      4  C   UNL     1       2.418   6.779  19.485  0.00  0.00    +0.000 A 
ATOM      5  C   UNL     1       3.287   5.687  19.408  0.00  0.00    +0.000 A 
ATOM      6  C   UNL     1       4.267   5.638  18.409  0.00  0.00    +0.000 A 
ATOM      7  C   UNL     1       4.355   6.690  17.493  0.00  0.00    +0.000 A 
ATOM      8  C   UNL     1       3.476   7.783  17.552  0.00  0.00    +0.000 A 
BRANCH   6   9
ATOM      9  S   UNL     1       5.217   4.144  18.258  0.00  0.00    +0.000 S 
ATOM     10  C   UNL     1       4.495   3.024  19.427  0.00  0.00    +0.000 C 
ATOM     11  O   UNL     1       4.947   3.621  16.932  0.00  0.00    +0.000 OA
ATOM     12  O   UNL     1       6.578   4.444  18.648  0.00  0.00    +0.000 OA
ENDBRANCH   6   9
BRANCH   7  13
ATOM     13  N   UNL     1       5.432   6.771  16.523  0.00  0.00    +0.000 N 
ATOM     14  O   UNL     1       6.504   7.228  16.941  0.00  0.00    +0.000 OA
ATOM     15  O   UNL     1       5.163   6.489  15.351  0.00  0.00    +0.000 OA
ENDBRANCH   7  13
ENDBRANCH   1   3
BRANCH   1  16
ATOM     16  O   UNL     1       1.252   9.188  19.996  0.00  0.00    +0.000 OA
BRANCH  16  17
ATOM     17  C   UNL     1       0.038   9.925  20.170  0.00  0.00    +0.000 C 
BRANCH  17  22
ATOM     18  C   UNL     1      -0.261  15.081  19.429  0.00  0.00    +0.000 C 
ATOM     19  C   UNL     1      -0.410  14.749  20.928  0.00  0.00    +0.000 C 
ATOM     20  C   UNL     1       0.460  13.575  21.387  0.00  0.00    +0.000 C 
ATOM     21  N   UNL     1       0.295  12.413  20.512  0.00  0.00    +0.000 N 
ATOM     22  C   UNL     1       0.223  11.147  21.087  0.00  0.00    +0.000 C 
ATOM     23  O   UNL     1       0.253  10.986  22.312  0.00  0.00    +0.000 OA
ATOM     24  C   UNL     1       0.515  12.683  19.093  0.00  0.00    +0.000 C 
ATOM     25  C   UNL     1      -0.416  13.789  18.612  0.00  0.00    +0.000 C 
BRANCH  18  26
ATOM     26  C   UNL     1       1.047  15.852  19.135  0.00  0.00    +0.000 C 
BRANCH  26  28
ATOM     27  C   UNL     1      -0.594  17.495  18.107  0.00  0.00    +0.000 C 
ATOM     28  C   UNL     1       0.848  17.012  18.151  0.00  0.00    +0.000 C 
ENDBRANCH  26  28
ENDBRANCH  18  26
ENDBRANCH  17  22
ENDBRANCH  16  17
ENDBRANCH   1  16
TORSDOF 8
ENDMDL
MODEL 8
REMARK VINA RESULT:      -7.1      3.676      9.852
REMARK  Name = 
REMARK  10 active torsions:
REMARK  status: ('A' for Active; 'I' for Inactive)
REMARK    1  A    between atoms: C_1  and  C_2
REMARK    2  A    between atoms: C_2  and  C_3
REMARK    3  A    between atoms: C_3  and  C_4
REMARK    4  A    between atoms: C_8  and  C_10
REMARK    5  A    between atoms: C_10  and  O_11
REMARK    6  A    between atoms: O_11  and  C_12
REMARK    7  A    between atoms: C_12  and  C_14
REMARK    8  A    between atoms: C_17  and  S_18
REMARK    9  A    between atoms: S_18  and  C_19
REMARK   10  A    between atoms: C_22  and  N_23
REMARK                            x       y       z     vdW  Elec       q    Type
REMARK                         _______ _______ _______ _____ _____    ______ ____
ROOT
ATOM      1  C   UNL     1       1.542   8.414  20.125  0.00  0.00    +0.000 C 
ATOM      2  O   UNL     1       1.420   9.288  19.284  0.00  0.00    +0.000 OA
ENDROOT
BRANCH   1   3
ATOM      3  C   UNL     1       2.041   7.050  19.809  0.00  0.00    +0.000 A 
ATOM      4  C   UNL     1       2.819   6.893  18.654  0.00  0.00    +0.000 A 
ATOM      5  C   UNL     1       3.329   5.641  18.301  0.00  0.00    +0.000 A 
ATOM      6  C   UNL     1       3.047   4.520  19.092  0.00  0.00    +0.000 A 
ATOM      7  C   UNL     1       2.257   4.676  20.234  0.00  0.00    +0.000 A 
ATOM      8  C   UNL     1       1.753   5.934  20.605  0.00  0.00    +0.000 A 
BRANCH   6   9
ATOM      9  S   UNL     1       3.872   2.999  18.690  0.00  0.00    +0.000 S 
ATOM     10  C   UNL     1       4.807   3.358  17.227  0.00  0.00    +0.000 C 
ATOM     11  O   UNL     1       4.821   2.754  19.761  0.00  0.00    +0.000 OA
ATOM     12  O   UNL     1       2.858   2.012  18.390  0.00  0.00    +0.000 OA
ENDBRANCH   6   9
BRANCH   7  13
ATOM     13  N   UNL     1       1.811   3.539  21.018  0.00  0.00    +0.000 N 
ATOM     14  O   UNL     1       0.790   2.970  20.613  0.00  0.00    +0.000 OA
ATOM     15  O   UNL     1       2.411   3.305  22.072  0.00  0.00    +0.000 OA
ENDBRANCH   7  13
ENDBRANCH   1   3
BRANCH   1  16
ATOM     16  O   UNL     1       1.219   8.523  21.438  0.00  0.00    +0.000 OA
BRANCH  16  17
ATOM     17  C   UNL     1      -0.156   8.857  21.641  0.00  0.00    +0.000 C 
BRANCH  17  22
ATOM     18  C   UNL     1      -2.577  13.448  21.104  0.00  0.00    +0.000 C 
ATOM     19  C   UNL     1      -2.350  13.138  22.597  0.00  0.00    +0.000 C 
ATOM     20  C   UNL     1      -1.027  12.419  22.881  0.00  0.00    +0.000 C 
ATOM     21  N   UNL     1      -0.853  11.256  22.009  0.00  0.00    +0.000 N 
ATOM     22  C   UNL     1      -0.330  10.086  22.553  0.00  0.00    +0.000 C 
ATOM     23  O   UNL     1      -0.050   9.994  23.753  0.00  0.00    +0.000 OA
ATOM     24  C   UNL     1      -0.979  11.540  20.582  0.00  0.00    +0.000 C 
ATOM     25  C   UNL     1      -2.334  12.171  20.285  0.00  0.00    +0.000 C 
BRANCH  18  26
ATOM     26  C   UNL     1      -1.742  14.661  20.631  0.00  0.00    +0.000 C 
BRANCH  26  28
ATOM     27  C   UNL     1      -0.480  16.357  22.037  0.00  0.00    +0.000 C 
ATOM     28  C   UNL     1      -1.843  15.863  21.580  0.00  0.00    +0.000 C 
ENDBRANCH  26  28
ENDBRANCH  18  26
ENDBRANCH  17  22
ENDBRANCH  16  17
ENDBRANCH   1  16
TORSDOF 8
ENDMDL
MODEL 9
REMARK VINA RESULT:      -7.1      4.291      9.439
REMARK  Name = 
REMARK  10 active torsions:
REMARK  status: ('A' for Active; 'I' for Inactive)
REMARK    1  A    between atoms: C_1  and  C_2
REMARK    2  A    between atoms: C_2  and  C_3
REMARK    3  A    between atoms: C_3  and  C_4
REMARK    4  A    between atoms: C_8  and  C_10
REMARK    5  A    between atoms: C_10  and  O_11
REMARK    6  A    between atoms: O_11  and  C_12
REMARK    7  A    between atoms: C_12  and  C_14
REMARK    8  A    between atoms: C_17  and  S_18
REMARK    9  A    between atoms: S_18  and  C_19
REMARK   10  A    between atoms: C_22  and  N_23
REMARK                            x       y       z     vdW  Elec       q    Type
REMARK                         _______ _______ _______ _____ _____    ______ ____
ROOT
ATOM      1  C   UNL     1       1.475   8.538  19.988  0.00  0.00    +0.000 C 
ATOM      2  O   UNL     1       0.927   8.836  21.035  0.00  0.00    +0.000 OA
ENDROOT
BRANCH   1   3
ATOM      3  C   UNL     1       1.992   7.174  19.704  0.00  0.00    +0.000 A 
ATOM      4  C   UNL     1       2.778   7.002  18.556  0.00  0.00    +0.000 A 
ATOM      5  C   UNL     1       3.306   5.749  18.233  0.00  0.00    +0.000 A 
ATOM      6  C   UNL     1       3.034   4.642  19.047  0.00  0.00    +0.000 A 
ATOM      7  C   UNL     1       2.236   4.813  20.181  0.00  0.00    +0.000 A 
ATOM      8  C   UNL     1       1.715   6.072  20.522  0.00  0.00    +0.000 A 
BRANCH   6   9
ATOM      9  S   UNL     1       3.880   3.122  18.682  0.00  0.00    +0.000 S 
ATOM     10  C   UNL     1       4.777   3.447  17.188  0.00  0.00    +0.000 C 
ATOM     11  O   UNL     1       4.854   2.934  19.741  0.00  0.00    +0.000 OA
ATOM     12  O   UNL     1       2.879   2.107  18.438  0.00  0.00    +0.000 OA
ENDBRANCH   6   9
BRANCH   7  13
ATOM     13  N   UNL     1       1.800   3.687  20.987  0.00  0.00    +0.000 N 
ATOM     14  O   UNL     1       0.792   3.092  20.585  0.00  0.00    +0.000 OA
ATOM     15  O   UNL     1       2.392   3.488  22.052  0.00  0.00    +0.000 OA
ENDBRANCH   7  13
ENDBRANCH   1   3
BRANCH   1  16
ATOM     16  O   UNL     1       1.731   9.380  18.956  0.00  0.00    +0.000 OA
BRANCH  16  17
ATOM     17  C   UNL     1       0.568   9.661  18.172  0.00  0.00    +0.000 C 
BRANCH  17  22
ATOM     18  C   UNL     1      -4.475  11.001  18.191  0.00  0.00    +0.000 C 
ATOM     19  C   UNL     1      -3.709  11.797  19.267  0.00  0.00    +0.000 C 
ATOM     20  C   UNL     1      -2.287  12.186  18.847  0.00  0.00    +0.000 C 
ATOM     21  N   UNL     1      -1.546  11.031  18.336  0.00  0.00    +0.000 N 
ATOM     22  C   UNL     1      -0.211  10.880  18.699  0.00  0.00    +0.000 C 
ATOM     23  O   UNL     1       0.348  11.668  19.469  0.00  0.00    +0.000 OA
ATOM     24  C   UNL     1      -2.213  10.308  17.257  0.00  0.00    +0.000 C 
ATOM     25  C   UNL     1      -3.593   9.840  17.704  0.00  0.00    +0.000 C 
BRANCH  18  26
ATOM     26  C   UNL     1      -4.991  11.912  17.054  0.00  0.00    +0.000 C 
BRANCH  26  28
ATOM     27  C   UNL     1      -6.604  13.817  16.585  0.00  0.00    +0.000 C 
ATOM     28  C   UNL     1      -6.362  12.530  17.358  0.00  0.00    +0.000 C 
ENDBRANCH  26  28
ENDBRANCH  18  26
ENDBRANCH  17  22
ENDBRANCH  16  17
ENDBRANCH   1  16
TORSDOF 8
ENDMDL
