MODEL 1
REMARK VINA RESULT:      -8.3      0.000      0.000
REMARK  Name = 
REMARK  6 active torsions:
REMARK  status: ('A' for Active; 'I' for Inactive)
REMARK    1  A    between atoms: C_2  and  C_10
REMARK    2  A    between atoms: N_3  and  C_4
REMARK    3  A    between atoms: C_12  and  N_13
REMARK    4  A    between atoms: C_18  and  N_19
REMARK    5  A    between atoms: N_19  and  C_20
REMARK    6  A    between atoms: C_20  and  C_21
REMARK                            x       y       z     vdW  Elec       q    Type
REMARK                         _______ _______ _______ _____ _____    ______ ____
ROOT
ATOM      1  C   UNL     1       3.903   5.657  17.724  0.00  0.00    +0.000 A 
ATOM      2  C   UNL     1       5.083   6.417  17.886  0.00  0.00    +0.000 A 
ATOM      3  C   UNL     1       6.320   5.887  17.521  0.00  0.00    +0.000 A 
ATOM      4  C   UNL     1       6.401   4.581  17.044  0.00  0.00    +0.000 A 
ATOM      5  C   UNL     1       5.230   3.832  16.883  0.00  0.00    +0.000 A 
ATOM      6  C   UNL     1       3.950   4.365  17.145  0.00  0.00    +0.000 A 
ENDROOT
BRANCH   1   8
ATOM      7  O   UNL     1       1.599   5.751  17.954  0.00  0.00    +0.000 OA
ATOM      8  C   UNL     1       2.650   6.364  18.108  0.00  0.00    +0.000 C 
ATOM      9  N   UNL     1       2.783   7.665  18.558  0.00  0.00    +0.000 N 
ATOM     10  H   UNL     1       3.705   8.086  18.488  0.00  0.00    +0.000 HD
BRANCH   9  11
ATOM     11  C   UNL     1       1.726   8.504  18.994  0.00  0.00    +0.000 A 
ATOM     12  C   UNL     1       1.283   8.551  20.321  0.00  0.00    +0.000 A 
ATOM     13  C   UNL     1       0.237   9.396  20.700  0.00  0.00    +0.000 A 
ATOM     14  C   UNL     1      -0.381  10.207  19.754  0.00  0.00    +0.000 A 
ATOM     15  C   UNL     1       0.052  10.173  18.430  0.00  0.00    +0.000 A 
ATOM     16  C   UNL     1       1.105   9.329  18.052  0.00  0.00    +0.000 A 
ENDBRANCH   9  11
ENDBRANCH   1   8
BRANCH   3  17
ATOM     17  N   UNL     1       7.534   6.703  17.631  0.00  0.00    +0.000 N 
ATOM     18  O   UNL     1       7.902   7.331  16.629  0.00  0.00    +0.000 OA
ATOM     19  O   UNL     1       8.125   6.708  18.721  0.00  0.00    +0.000 OA
ENDBRANCH   3  17
BRANCH   6  20
ATOM     20  N   UNL     1       2.785   3.589  16.922  0.00  0.00    +0.000 N 
ATOM     21  H   UNL     1       2.665   3.396  15.922  0.00  0.00    +0.000 HD
BRANCH  20  22
ATOM     22  C   UNL     1       2.706   2.325  17.669  0.00  0.00    +0.000 C 
BRANCH  22  23
ATOM     23  C   UNL     1       2.483   2.562  19.135  0.00  0.00    +0.000 A 
ATOM     24  C   UNL     1       1.216   2.857  19.647  0.00  0.00    +0.000 A 
ATOM     25  C   UNL     1       1.035   2.962  21.024  0.00  0.00    +0.000 A 
ATOM     26  C   UNL     1       2.130   2.765  21.847  0.00  0.00    +0.000 A 
ATOM     27  N   UNL     1       3.369   2.480  21.391  0.00  0.00    +0.000 NA
ATOM     28  C   UNL     1       3.516   2.383  20.051  0.00  0.00    +0.000 A 
ENDBRANCH  22  23
ENDBRANCH  20  22
ENDBRANCH   6  20
TORSDOF 6
ENDMDL
MODEL 2
REMARK VINA RESULT:      -8.3      0.404      1.206
REMARK  Name = 
REMARK  6 active torsions:
REMARK  status: ('A' for Active; 'I' for Inactive)
REMARK    1  A    between atoms: C_2  and  C_10
REMARK    2  A    between atoms: N_3  and  C_4
REMARK    3  A    between atoms: C_12  and  N_13
REMARK    4  A    between atoms: C_18  and  N_19
REMARK    5  A    between atoms: N_19  and  C_20
REMARK    6  A    between atoms: C_20  and  C_21
REMARK                            x       y       z     vdW  Elec       q    Type
REMARK                         _______ _______ _______ _____ _____    ______ ____
ROOT
ATOM      1  C   UNL     1       3.876   5.564  17.775  0.00  0.00    +0.000 A 
ATOM      2  C   UNL     1       5.065   6.311  17.930  0.00  0.00    +0.000 A 
ATOM      3  C   UNL     1       6.285   5.796  17.491  0.00  0.00    +0.000 A 
ATOM      4  C   UNL     1       6.341   4.517  16.945  0.00  0.00    +0.000 A 
ATOM      5  C   UNL     1       5.161   3.781  16.791  0.00  0.00    +0.000 A 
ATOM      6  C   UNL     1       3.895   4.303  17.130  0.00  0.00    +0.000 A 
ENDROOT
BRANCH   1   8
ATOM      7  O   UNL     1       1.571   5.776  17.885  0.00  0.00    +0.000 OA
ATOM      8  C   UNL     1       2.642   6.254  18.244  0.00  0.00    +0.000 C 
ATOM      9  N   UNL     1       2.820   7.398  19.000  0.00  0.00    +0.000 N 
ATOM     10  H   UNL     1       3.767   7.752  19.088  0.00  0.00    +0.000 HD
BRANCH   9  11
ATOM     11  C   UNL     1       1.784   8.188  19.562  0.00  0.00    +0.000 A 
ATOM     12  C   UNL     1       1.188   9.260  18.889  0.00  0.00    +0.000 A 
ATOM     13  C   UNL     1       0.170  10.009  19.488  0.00  0.00    +0.000 A 
ATOM     14  C   UNL     1      -0.264   9.692  20.771  0.00  0.00    +0.000 A 
ATOM     15  C   UNL     1       0.319   8.625  21.451  0.00  0.00    +0.000 A 
ATOM     16  C   UNL     1       1.335   7.873  20.848  0.00  0.00    +0.000 A 
ENDBRANCH   9  11
ENDBRANCH   1   8
BRANCH   3  17
ATOM     17  N   UNL     1       7.506   6.602  17.595  0.00  0.00    +0.000 N 
ATOM     18  O   UNL     1       8.084   6.639  18.689  0.00  0.00    +0.000 OA
ATOM     19  O   UNL     1       7.884   7.205  16.580  0.00  0.00    +0.000 OA
ENDBRANCH   3  17
BRANCH   6  20
ATOM     20  N   UNL     1       2.718   3.543  16.912  0.00  0.00    +0.000 N 
ATOM     21  H   UNL     1       2.597   3.341  15.915  0.00  0.00    +0.000 HD
BRANCH  20  22
ATOM     22  C   UNL     1       2.618   2.289  17.674  0.00  0.00    +0.000 C 
BRANCH  22  23
ATOM     23  C   UNL     1       2.434   2.547  19.142  0.00  0.00    +0.000 A 
ATOM     24  C   UNL     1       1.185   2.873  19.680  0.00  0.00    +0.000 A 
ATOM     25  C   UNL     1       1.038   2.997  21.059  0.00  0.00    +0.000 A 
ATOM     26  C   UNL     1       2.149   2.787  21.859  0.00  0.00    +0.000 A 
ATOM     27  N   UNL     1       3.370   2.471  21.378  0.00  0.00    +0.000 NA
ATOM     28  C   UNL     1       3.484   2.357  20.035  0.00  0.00    +0.000 A 
ENDBRANCH  22  23
ENDBRANCH  20  22
ENDBRANCH   6  20
TORSDOF 6
ENDMDL
MODEL 3
REMARK VINA RESULT:      -8.1      0.597      1.131
REMARK  Name = 
REMARK  6 active torsions:
REMARK  status: ('A' for Active; 'I' for Inactive)
REMARK    1  A    between atoms: C_2  and  C_10
REMARK    2  A    between atoms: N_3  and  C_4
REMARK    3  A    between atoms: C_12  and  N_13
REMARK    4  A    between atoms: C_18  and  N_19
REMARK    5  A    between atoms: N_19  and  C_20
REMARK    6  A    between atoms: C_20  and  C_21
REMARK                            x       y       z     vdW  Elec       q    Type
REMARK                         _______ _______ _______ _____ _____    ______ ____
ROOT
ATOM      1  C   UNL     1       3.897   5.652  17.717  0.00  0.00    +0.000 A 
ATOM      2  C   UNL     1       5.080   6.407  17.883  0.00  0.00    +0.000 A 
ATOM      3  C   UNL     1       6.315   5.874  17.517  0.00  0.00    +0.000 A 
ATOM      4  C   UNL     1       6.393   4.570  17.035  0.00  0.00    +0.000 A 
ATOM      5  C   UNL     1       5.219   3.826  16.870  0.00  0.00    +0.000 A 
ATOM      6  C   UNL     1       3.941   4.362  17.133  0.00  0.00    +0.000 A 
ENDROOT
BRANCH   1   8
ATOM      7  O   UNL     1       1.594   5.748  17.957  0.00  0.00    +0.000 OA
ATOM      8  C   UNL     1       2.646   6.362  18.103  0.00  0.00    +0.000 C 
ATOM      9  N   UNL     1       2.782   7.665  18.544  0.00  0.00    +0.000 N 
ATOM     10  H   UNL     1       3.704   8.086  18.468  0.00  0.00    +0.000 HD
BRANCH   9  11
ATOM     11  C   UNL     1       1.727   8.507  18.980  0.00  0.00    +0.000 A 
ATOM     12  C   UNL     1       1.296   8.568  20.311  0.00  0.00    +0.000 A 
ATOM     13  C   UNL     1       0.251   9.416  20.689  0.00  0.00    +0.000 A 
ATOM     14  C   UNL     1      -0.376  10.215  19.739  0.00  0.00    +0.000 A 
ATOM     15  C   UNL     1       0.046  10.168  18.413  0.00  0.00    +0.000 A 
ATOM     16  C   UNL     1       1.096   9.321  18.035  0.00  0.00    +0.000 A 
ENDBRANCH   9  11
ENDBRANCH   1   8
BRANCH   3  17
ATOM     17  N   UNL     1       7.532   6.685  17.631  0.00  0.00    +0.000 N 
ATOM     18  O   UNL     1       8.124   6.692  18.719  0.00  0.00    +0.000 OA
ATOM     19  O   UNL     1       7.892   7.322  16.630  0.00  0.00    +0.000 OA
ENDBRANCH   3  17
BRANCH   6  20
ATOM     20  N   UNL     1       2.773   3.591  16.906  0.00  0.00    +0.000 N 
ATOM     21  H   UNL     1       2.624   3.447  15.902  0.00  0.00    +0.000 HD
BRANCH  20  22
ATOM     22  C   UNL     1       2.723   2.290  17.591  0.00  0.00    +0.000 C 
BRANCH  22  23
ATOM     23  C   UNL     1       2.373   2.444  19.044  0.00  0.00    +0.000 A 
ATOM     24  C   UNL     1       3.349   2.390  20.044  0.00  0.00    +0.000 A 
ATOM     25  C   UNL     1       2.997   2.647  21.366  0.00  0.00    +0.000 A 
ATOM     26  C   UNL     1       1.676   2.951  21.647  0.00  0.00    +0.000 A 
ATOM     27  N   UNL     1       0.705   3.011  20.710  0.00  0.00    +0.000 NA
ATOM     28  C   UNL     1       1.075   2.759  19.434  0.00  0.00    +0.000 A 
ENDBRANCH  22  23
ENDBRANCH  20  22
ENDBRANCH   6  20
TORSDOF 6
ENDMDL
MODEL 4
REMARK VINA RESULT:      -8.1      0.606      1.343
REMARK  Name = 
REMARK  6 active torsions:
REMARK  status: ('A' for Active; 'I' for Inactive)
REMARK    1  A    between atoms: C_2  and  C_10
REMARK    2  A    between atoms: N_3  and  C_4
REMARK    3  A    between atoms: C_12  and  N_13
REMARK    4  A    between atoms: C_18  and  N_19
REMARK    5  A    between atoms: N_19  and  C_20
REMARK    6  A    between atoms: C_20  and  C_21
REMARK                            x       y       z     vdW  Elec       q    Type
REMARK                         _______ _______ _______ _____ _____    ______ ____
ROOT
ATOM      1  C   UNL     1       3.931   5.669  17.716  0.00  0.00    +0.000 A 
ATOM      2  C   UNL     1       5.110   6.429  17.884  0.00  0.00    +0.000 A 
ATOM      3  C   UNL     1       6.348   5.904  17.514  0.00  0.00    +0.000 A 
ATOM      4  C   UNL     1       6.431   4.603  17.026  0.00  0.00    +0.000 A 
ATOM      5  C   UNL     1       5.260   3.853  16.860  0.00  0.00    +0.000 A 
ATOM      6  C   UNL     1       3.980   4.382  17.127  0.00  0.00    +0.000 A 
ENDROOT
BRANCH   1   8
ATOM      7  O   UNL     1       1.638   5.722  18.050  0.00  0.00    +0.000 OA
ATOM      8  C   UNL     1       2.677   6.371  18.108  0.00  0.00    +0.000 C 
ATOM      9  N   UNL     1       2.794   7.705  18.452  0.00  0.00    +0.000 N 
ATOM     10  H   UNL     1       3.699   8.143  18.307  0.00  0.00    +0.000 HD
BRANCH   9  11
ATOM     11  C   UNL     1       1.734   8.548  18.876  0.00  0.00    +0.000 A 
ATOM     12  C   UNL     1       1.035   9.394  18.008  0.00  0.00    +0.000 A 
ATOM     13  C   UNL     1      -0.003  10.205  18.476  0.00  0.00    +0.000 A 
ATOM     14  C   UNL     1      -0.355  10.178  19.821  0.00  0.00    +0.000 A 
ATOM     15  C   UNL     1       0.330   9.338  20.696  0.00  0.00    +0.000 A 
ATOM     16  C   UNL     1       1.367   8.522  20.224  0.00  0.00    +0.000 A 
ENDBRANCH   9  11
ENDBRANCH   1   8
BRANCH   3  17
ATOM     17  N   UNL     1       7.561   6.720  17.629  0.00  0.00    +0.000 N 
ATOM     18  O   UNL     1       7.941   7.338  16.626  0.00  0.00    +0.000 OA
ATOM     19  O   UNL     1       8.138   6.738  18.726  0.00  0.00    +0.000 OA
ENDBRANCH   3  17
BRANCH   6  20
ATOM     20  N   UNL     1       2.815   3.607  16.898  0.00  0.00    +0.000 N 
ATOM     21  H   UNL     1       2.668   3.463  15.894  0.00  0.00    +0.000 HD
BRANCH  20  22
ATOM     22  C   UNL     1       2.770   2.305  17.582  0.00  0.00    +0.000 C 
BRANCH  22  23
ATOM     23  C   UNL     1       2.392   2.454  19.028  0.00  0.00    +0.000 A 
ATOM     24  C   UNL     1       3.351   2.428  20.045  0.00  0.00    +0.000 A 
ATOM     25  C   UNL     1       2.970   2.679  21.360  0.00  0.00    +0.000 A 
ATOM     26  C   UNL     1       1.637   2.949  21.617  0.00  0.00    +0.000 A 
ATOM     27  N   UNL     1       0.681   2.982  20.664  0.00  0.00    +0.000 NA
ATOM     28  C   UNL     1       1.079   2.736  19.395  0.00  0.00    +0.000 A 
ENDBRANCH  22  23
ENDBRANCH  20  22
ENDBRANCH   6  20
TORSDOF 6
ENDMDL
MODEL 5
REMARK VINA RESULT:      -7.9      2.242      5.702
REMARK  Name = 
REMARK  6 active torsions:
REMARK  status: ('A' for Active; 'I' for Inactive)
REMARK    1  A    between atoms: C_2  and  C_10
REMARK    2  A    between atoms: N_3  and  C_4
REMARK    3  A    between atoms: C_12  and  N_13
REMARK    4  A    between atoms: C_18  and  N_19
REMARK    5  A    between atoms: N_19  and  C_20
REMARK    6  A    between atoms: C_20  and  C_21
REMARK                            x       y       z     vdW  Elec       q    Type
REMARK                         _______ _______ _______ _____ _____    ______ ____
ROOT
ATOM      1  C   UNL     1       2.295   7.337  18.996  0.00  0.00    +0.000 A 
ATOM      2  C   UNL     1       1.954   8.589  18.438  0.00  0.00    +0.000 A 
ATOM      3  C   UNL     1       1.269   9.537  19.197  0.00  0.00    +0.000 A 
ATOM      4  C   UNL     1       0.871   9.230  20.495  0.00  0.00    +0.000 A 
ATOM      5  C   UNL     1       1.212   7.989  21.045  0.00  0.00    +0.000 A 
ATOM      6  C   UNL     1       1.990   7.042  20.347  0.00  0.00    +0.000 A 
ENDROOT
BRANCH   1   8
ATOM      7  O   UNL     1       2.447   5.528  17.554  0.00  0.00    +0.000 OA
ATOM      8  C   UNL     1       3.067   6.441  18.090  0.00  0.00    +0.000 C 
ATOM      9  N   UNL     1       4.421   6.692  17.975  0.00  0.00    +0.000 N 
ATOM     10  H   UNL     1       4.817   7.390  18.597  0.00  0.00    +0.000 HD
BRANCH   9  11
ATOM     11  C   UNL     1       5.330   5.978  17.152  0.00  0.00    +0.000 A 
ATOM     12  C   UNL     1       6.365   5.185  17.662  0.00  0.00    +0.000 A 
ATOM     13  C   UNL     1       7.234   4.501  16.808  0.00  0.00    +0.000 A 
ATOM     14  C   UNL     1       7.077   4.600  15.430  0.00  0.00    +0.000 A 
ATOM     15  C   UNL     1       6.049   5.382  14.908  0.00  0.00    +0.000 A 
ATOM     16  C   UNL     1       5.175   6.064  15.766  0.00  0.00    +0.000 A 
ENDBRANCH   9  11
ENDBRANCH   1   8
BRANCH   3  17
ATOM     17  N   UNL     1       0.974  10.860  18.635  0.00  0.00    +0.000 N 
ATOM     18  O   UNL     1      -0.213  11.152  18.435  0.00  0.00    +0.000 OA
ATOM     19  O   UNL     1       1.933  11.605  18.387  0.00  0.00    +0.000 OA
ENDBRANCH   3  17
BRANCH   6  20
ATOM     20  N   UNL     1       2.356   5.816  20.958  0.00  0.00    +0.000 N 
ATOM     21  H   UNL     1       2.547   5.952  21.956  0.00  0.00    +0.000 HD
BRANCH  20  22
ATOM     22  C   UNL     1       1.399   4.711  20.798  0.00  0.00    +0.000 C 
BRANCH  22  23
ATOM     23  C   UNL     1       2.004   3.559  20.048  0.00  0.00    +0.000 A 
ATOM     24  C   UNL     1       1.245   2.764  19.185  0.00  0.00    +0.000 A 
ATOM     25  C   UNL     1       1.869   1.777  18.427  0.00  0.00    +0.000 A 
ATOM     26  C   UNL     1       3.238   1.617  18.557  0.00  0.00    +0.000 A 
ATOM     27  N   UNL     1       4.005   2.363  19.380  0.00  0.00    +0.000 NA
ATOM     28  C   UNL     1       3.373   3.315  20.103  0.00  0.00    +0.000 A 
ENDBRANCH  22  23
ENDBRANCH  20  22
ENDBRANCH   6  20
TORSDOF 6
ENDMDL
MODEL 6
REMARK VINA RESULT:      -7.8      3.354      5.154
REMARK  Name = 
REMARK  6 active torsions:
REMARK  status: ('A' for Active; 'I' for Inactive)
REMARK    1  A    between atoms: C_2  and  C_10
REMARK    2  A    between atoms: N_3  and  C_4
REMARK    3  A    between atoms: C_12  and  N_13
REMARK    4  A    between atoms: C_18  and  N_19
REMARK    5  A    between atoms: N_19  and  C_20
REMARK    6  A    between atoms: C_20  and  C_21
REMARK                            x       y       z     vdW  Elec       q    Type
REMARK                         _______ _______ _______ _____ _____    ______ ____
ROOT
ATOM      1  C   UNL     1       6.823   5.871  17.141  0.00  0.00    +0.000 A 
ATOM      2  C   UNL     1       7.265   5.725  15.807  0.00  0.00    +0.000 A 
ATOM      3  C   UNL     1       6.637   4.822  14.950  0.00  0.00    +0.000 A 
ATOM      4  C   UNL     1       5.602   4.021  15.425  0.00  0.00    +0.000 A 
ATOM      5  C   UNL     1       5.166   4.169  16.746  0.00  0.00    +0.000 A 
ATOM      6  C   UNL     1       5.707   5.140  17.616  0.00  0.00    +0.000 A 
ENDROOT
BRANCH   1   8
ATOM      7  O   UNL     1       8.057   6.540  18.986  0.00  0.00    +0.000 OA
ATOM      8  C   UNL     1       7.552   6.904  17.928  0.00  0.00    +0.000 C 
ATOM      9  N   UNL     1       7.551   8.189  17.419  0.00  0.00    +0.000 N 
ATOM     10  H   UNL     1       6.962   8.366  16.610  0.00  0.00    +0.000 HD
BRANCH   9  11
ATOM     11  C   UNL     1       8.201   9.311  17.996  0.00  0.00    +0.000 A 
ATOM     12  C   UNL     1       8.973   9.233  19.161  0.00  0.00    +0.000 A 
ATOM     13  C   UNL     1       9.594  10.369  19.689  0.00  0.00    +0.000 A 
ATOM     14  C   UNL     1       9.450  11.598  19.055  0.00  0.00    +0.000 A 
ATOM     15  C   UNL     1       8.688  11.690  17.893  0.00  0.00    +0.000 A 
ATOM     16  C   UNL     1       8.070  10.550  17.362  0.00  0.00    +0.000 A 
ENDBRANCH   9  11
ENDBRANCH   1   8
BRANCH   3  17
ATOM     17  N   UNL     1       7.057   4.721  13.548  0.00  0.00    +0.000 N 
ATOM     18  O   UNL     1       6.530   3.846  12.848  0.00  0.00    +0.000 OA
ATOM     19  O   UNL     1       7.921   5.515  13.149  0.00  0.00    +0.000 OA
ENDBRANCH   3  17
BRANCH   6  20
ATOM     20  N   UNL     1       5.203   5.292  18.932  0.00  0.00    +0.000 N 
ATOM     21  H   UNL     1       5.892   5.760  19.531  0.00  0.00    +0.000 HD
BRANCH  20  22
ATOM     22  C   UNL     1       3.913   5.990  19.046  0.00  0.00    +0.000 C 
BRANCH  22  23
ATOM     23  C   UNL     1       2.797   5.038  19.370  0.00  0.00    +0.000 A 
ATOM     24  C   UNL     1       2.050   4.414  18.366  0.00  0.00    +0.000 A 
ATOM     25  C   UNL     1       1.099   3.457  18.707  0.00  0.00    +0.000 A 
ATOM     26  C   UNL     1       0.925   3.153  20.047  0.00  0.00    +0.000 A 
ATOM     27  N   UNL     1       1.625   3.734  21.045  0.00  0.00    +0.000 NA
ATOM     28  C   UNL     1       2.543   4.659  20.684  0.00  0.00    +0.000 A 
ENDBRANCH  22  23
ENDBRANCH  20  22
ENDBRANCH   6  20
TORSDOF 6
ENDMDL
MODEL 7
REMARK VINA RESULT:      -7.7      1.902      2.542
REMARK  Name = 
REMARK  6 active torsions:
REMARK  status: ('A' for Active; 'I' for Inactive)
REMARK    1  A    between atoms: C_2  and  C_10
REMARK    2  A    between atoms: N_3  and  C_4
REMARK    3  A    between atoms: C_12  and  N_13
REMARK    4  A    between atoms: C_18  and  N_19
REMARK    5  A    between atoms: N_19  and  C_20
REMARK    6  A    between atoms: C_20  and  C_21
REMARK                            x       y       z     vdW  Elec       q    Type
REMARK                         _______ _______ _______ _____ _____    ______ ____
ROOT
ATOM      1  C   UNL     1       4.865   5.419  17.376  0.00  0.00    +0.000 A 
ATOM      2  C   UNL     1       5.234   5.498  16.015  0.00  0.00    +0.000 A 
ATOM      3  C   UNL     1       6.421   4.915  15.571  0.00  0.00    +0.000 A 
ATOM      4  C   UNL     1       7.273   4.297  16.481  0.00  0.00    +0.000 A 
ATOM      5  C   UNL     1       6.903   4.219  17.829  0.00  0.00    +0.000 A 
ATOM      6  C   UNL     1       5.666   4.707  18.302  0.00  0.00    +0.000 A 
ENDROOT
BRANCH   1   8
ATOM      7  O   UNL     1       2.551   5.365  17.495  0.00  0.00    +0.000 OA
ATOM      8  C   UNL     1       3.552   6.043  17.702  0.00  0.00    +0.000 C 
ATOM      9  N   UNL     1       3.580   7.347  18.160  0.00  0.00    +0.000 N 
ATOM     10  H   UNL     1       4.475   7.827  18.136  0.00  0.00    +0.000 HD
BRANCH   9  11
ATOM     11  C   UNL     1       2.451   8.114  18.547  0.00  0.00    +0.000 A 
ATOM     12  C   UNL     1       1.786   8.988  17.680  0.00  0.00    +0.000 A 
ATOM     13  C   UNL     1       0.677   9.722  18.111  0.00  0.00    +0.000 A 
ATOM     14  C   UNL     1       0.219   9.590  19.417  0.00  0.00    +0.000 A 
ATOM     15  C   UNL     1       0.870   8.721  20.290  0.00  0.00    +0.000 A 
ATOM     16  C   UNL     1       1.978   7.982  19.856  0.00  0.00    +0.000 A 
ENDBRANCH   9  11
ENDBRANCH   1   8
BRANCH   3  17
ATOM     17  N   UNL     1       6.769   4.944  14.146  0.00  0.00    +0.000 N 
ATOM     18  O   UNL     1       6.065   4.290  13.365  0.00  0.00    +0.000 OA
ATOM     19  O   UNL     1       7.753   5.618  13.809  0.00  0.00    +0.000 OA
ENDBRANCH   3  17
BRANCH   6  20
ATOM     20  N   UNL     1       5.307   4.564  19.666  0.00  0.00    +0.000 N 
ATOM     21  H   UNL     1       4.606   5.264  19.931  0.00  0.00    +0.000 HD
BRANCH  20  22
ATOM     22  C   UNL     1       4.831   3.231  20.065  0.00  0.00    +0.000 C 
BRANCH  22  23
ATOM     23  C   UNL     1       3.335   3.126  19.967  0.00  0.00    +0.000 A 
ATOM     24  C   UNL     1       2.491   3.987  20.673  0.00  0.00    +0.000 A 
ATOM     25  C   UNL     1       1.115   3.926  20.469  0.00  0.00    +0.000 A 
ATOM     26  C   UNL     1       0.627   3.003  19.559  0.00  0.00    +0.000 A 
ATOM     27  N   UNL     1       1.409   2.155  18.858  0.00  0.00    +0.000 NA
ATOM     28  C   UNL     1       2.741   2.237  19.076  0.00  0.00    +0.000 A 
ENDBRANCH  22  23
ENDBRANCH  20  22
ENDBRANCH   6  20
TORSDOF 6
ENDMDL
MODEL 8
REMARK VINA RESULT:      -7.7      3.356      5.132
REMARK  Name = 
REMARK  6 active torsions:
REMARK  status: ('A' for Active; 'I' for Inactive)
REMARK    1  A    between atoms: C_2  and  C_10
REMARK    2  A    between atoms: N_3  and  C_4
REMARK    3  A    between atoms: C_12  and  N_13
REMARK    4  A    between atoms: C_18  and  N_19
REMARK    5  A    between atoms: N_19  and  C_20
REMARK    6  A    between atoms: C_20  and  C_21
REMARK                            x       y       z     vdW  Elec       q    Type
REMARK                         _______ _______ _______ _____ _____    ______ ____
ROOT
ATOM      1  C   UNL     1       6.989   5.851  17.175  0.00  0.00    +0.000 A 
ATOM      2  C   UNL     1       7.401   5.765  15.826  0.00  0.00    +0.000 A 
ATOM      3  C   UNL     1       6.801   4.849  14.962  0.00  0.00    +0.000 A 
ATOM      4  C   UNL     1       5.828   3.977  15.442  0.00  0.00    +0.000 A 
ATOM      5  C   UNL     1       5.422   4.066  16.778  0.00  0.00    +0.000 A 
ATOM      6  C   UNL     1       5.930   5.044  17.659  0.00  0.00    +0.000 A 
ENDROOT
BRANCH   1   8
ATOM      7  O   UNL     1       8.164   6.558  19.043  0.00  0.00    +0.000 OA
ATOM      8  C   UNL     1       7.679   6.903  17.971  0.00  0.00    +0.000 C 
ATOM      9  N   UNL     1       7.666   8.184  17.450  0.00  0.00    +0.000 N 
ATOM     10  H   UNL     1       7.094   8.343  16.626  0.00  0.00    +0.000 HD
BRANCH   9  11
ATOM     11  C   UNL     1       8.281   9.322  18.033  0.00  0.00    +0.000 A 
ATOM     12  C   UNL     1       9.043   9.265  19.206  0.00  0.00    +0.000 A 
ATOM     13  C   UNL     1       9.629  10.417  19.739  0.00  0.00    +0.000 A 
ATOM     14  C   UNL     1       9.460  11.642  19.103  0.00  0.00    +0.000 A 
ATOM     15  C   UNL     1       8.707  11.713  17.933  0.00  0.00    +0.000 A 
ATOM     16  C   UNL     1       8.124  10.557  17.397  0.00  0.00    +0.000 A 
ENDBRANCH   9  11
ENDBRANCH   1   8
BRANCH   3  17
ATOM     17  N   UNL     1       7.187   4.808  13.547  0.00  0.00    +0.000 N 
ATOM     18  O   UNL     1       8.003   5.649  13.145  0.00  0.00    +0.000 OA
ATOM     19  O   UNL     1       6.666   3.937  12.836  0.00  0.00    +0.000 OA
ENDBRANCH   3  17
BRANCH   6  20
ATOM     20  N   UNL     1       5.455   5.132  18.992  0.00  0.00    +0.000 N 
ATOM     21  H   UNL     1       6.118   5.650  19.579  0.00  0.00    +0.000 HD
BRANCH  20  22
ATOM     22  C   UNL     1       4.114   5.713  19.156  0.00  0.00    +0.000 C 
BRANCH  22  23
ATOM     23  C   UNL     1       3.139   4.707  19.698  0.00  0.00    +0.000 A 
ATOM     24  C   UNL     1       1.908   5.095  20.238  0.00  0.00    +0.000 A 
ATOM     25  C   UNL     1       0.990   4.124  20.629  0.00  0.00    +0.000 A 
ATOM     26  C   UNL     1       1.332   2.792  20.465  0.00  0.00    +0.000 A 
ATOM     27  N   UNL     1       2.509   2.379  19.949  0.00  0.00    +0.000 NA
ATOM     28  C   UNL     1       3.382   3.343  19.577  0.00  0.00    +0.000 A 
ENDBRANCH  22  23
ENDBRANCH  20  22
ENDBRANCH   6  20
TORSDOF 6
ENDMDL
MODEL 9
REMARK VINA RESULT:      -7.6      0.841      1.046
REMARK  Name = 
REMARK  6 active torsions:
REMARK  status: ('A' for Active; 'I' for Inactive)
REMARK    1  A    between atoms: C_2  and  C_10
REMARK    2  A    between atoms: N_3  and  C_4
REMARK    3  A    between atoms: C_12  and  N_13
REMARK    4  A    between atoms: C_18  and  N_19
REMARK    5  A    between atoms: N_19  and  C_20
REMARK    6  A    between atoms: C_20  and  C_21
REMARK                            x       y       z     vdW  Elec       q    Type
REMARK                         _______ _______ _______ _____ _____    ______ ____
ROOT
ATOM      1  C   UNL     1       3.800   5.511  17.595  0.00  0.00    +0.000 A 
ATOM      2  C   UNL     1       5.052   6.106  17.320  0.00  0.00    +0.000 A 
ATOM      3  C   UNL     1       5.968   5.468  16.484  0.00  0.00    +0.000 A 
ATOM      4  C   UNL     1       5.672   4.213  15.960  0.00  0.00    +0.000 A 
ATOM      5  C   UNL     1       4.431   3.627  16.234  0.00  0.00    +0.000 A 
ATOM      6  C   UNL     1       3.437   4.282  16.991  0.00  0.00    +0.000 A 
ENDROOT
BRANCH   1   8
ATOM      7  O   UNL     1       2.465   5.778  19.471  0.00  0.00    +0.000 OA
ATOM      8  C   UNL     1       2.902   6.323  18.462  0.00  0.00    +0.000 C 
ATOM      9  N   UNL     1       2.604   7.600  18.024  0.00  0.00    +0.000 N 
ATOM     10  H   UNL     1       2.921   7.856  17.094  0.00  0.00    +0.000 HD
BRANCH   9  11
ATOM     11  C   UNL     1       1.792   8.542  18.707  0.00  0.00    +0.000 A 
ATOM     12  C   UNL     1       1.590   8.518  20.092  0.00  0.00    +0.000 A 
ATOM     13  C   UNL     1       0.781   9.471  20.717  0.00  0.00    +0.000 A 
ATOM     14  C   UNL     1       0.162  10.462  19.962  0.00  0.00    +0.000 A 
ATOM     15  C   UNL     1       0.357  10.500  18.583  0.00  0.00    +0.000 A 
ATOM     16  C   UNL     1       1.173   9.547  17.958  0.00  0.00    +0.000 A 
ENDBRANCH   9  11
ENDBRANCH   1   8
BRANCH   3  17
ATOM     17  N   UNL     1       7.239   6.120  16.150  0.00  0.00    +0.000 N 
ATOM     18  O   UNL     1       7.676   6.973  16.933  0.00  0.00    +0.000 OA
ATOM     19  O   UNL     1       7.797   5.781  15.096  0.00  0.00    +0.000 OA
ENDBRANCH   3  17
BRANCH   6  20
ATOM     20  N   UNL     1       2.173   3.675  17.204  0.00  0.00    +0.000 N 
ATOM     21  H   UNL     1       1.665   3.578  16.319  0.00  0.00    +0.000 HD
BRANCH  20  22
ATOM     22  C   UNL     1       2.197   2.374  17.890  0.00  0.00    +0.000 C 
BRANCH  22  23
ATOM     23  C   UNL     1       2.217   2.537  19.383  0.00  0.00    +0.000 A 
ATOM     24  C   UNL     1       1.048   2.781  20.110  0.00  0.00    +0.000 A 
ATOM     25  C   UNL     1       1.095   2.816  21.501  0.00  0.00    +0.000 A 
ATOM     26  C   UNL     1       2.314   2.603  22.122  0.00  0.00    +0.000 A 
ATOM     27  N   UNL     1       3.464   2.365  21.456  0.00  0.00    +0.000 NA
ATOM     28  C   UNL     1       3.389   2.336  20.106  0.00  0.00    +0.000 A 
ENDBRANCH  22  23
ENDBRANCH  20  22
ENDBRANCH   6  20
TORSDOF 6
ENDMDL
