MODEL 1
REMARK VINA RESULT:      -7.1      0.000      0.000
REMARK  Name = 
REMARK  7 active torsions:
REMARK  status: ('A' for Active; 'I' for Inactive)
REMARK    1  A    between atoms: C_1  and  O_2
REMARK    2  A    between atoms: O_2  and  C_3
REMARK    3  A    between atoms: C_3  and  C_5
REMARK    4  A    between atoms: C_8  and  N_9
REMARK    5  A    between atoms: C_10  and  C_12
REMARK    6  A    between atoms: C_12  and  N_13
REMARK    7  A    between atoms: N_16  and  C_17
REMARK                            x       y       z     vdW  Elec       q    Type
REMARK                         _______ _______ _______ _____ _____    ______ ____
ROOT
ATOM      1  N   UNL     1       2.587   6.150  20.401  0.00  0.00    +0.000 N 
ATOM      2  C   UNL     1       1.975   4.907  20.581  0.00  0.00    +0.000 C 
ATOM      3  O   UNL     1       0.752   4.685  20.502  0.00  0.00    +0.000 OA
ATOM      4  H   UNL     1       3.599   6.157  20.501  0.00  0.00    +0.000 HD
ENDROOT
BRANCH   1   8
ATOM      5  C   UNL     1       0.551   9.825  19.772  0.00  0.00    +0.000 A 
ATOM      6  C   UNL     1       0.494   9.187  21.016  0.00  0.00    +0.000 A 
ATOM      7  C   UNL     1       1.178   7.987  21.217  0.00  0.00    +0.000 A 
ATOM      8  C   UNL     1       1.928   7.391  20.204  0.00  0.00    +0.000 A 
ATOM      9  C   UNL     1       2.013   8.054  18.968  0.00  0.00    +0.000 A 
ATOM     10  C   UNL     1       1.319   9.253  18.755  0.00  0.00    +0.000 A 
BRANCH   5  11
ATOM     11  C   UNL     1      -0.183  11.099  19.560  0.00  0.00    +0.000 C 
ATOM     12  O   UNL     1      -0.001  12.113  20.233  0.00  0.00    +0.000 OA
BRANCH  11  14
ATOM     13  C   UNL     1      -2.288  11.673  18.698  0.00  0.00    +0.000 C 
ATOM     14  O   UNL     1      -1.056  10.967  18.542  0.00  0.00    +0.000 OA
ENDBRANCH  11  14
ENDBRANCH   5  11
ENDBRANCH   1   8
BRANCH   2  15
ATOM     15  C   UNL     1       2.937   3.733  20.846  0.00  0.00    +0.000 C 
BRANCH  15  16
ATOM     16  N   UNL     1       3.636   3.264  19.639  0.00  0.00    +0.000 NA
ATOM     17  C   UNL     1       2.862   3.096  18.383  0.00  0.00    +0.000 C 
ATOM     18  C   UNL     1       3.044   4.098  17.195  0.00  0.00    +0.000 C 
ATOM     19  N   UNL     1       4.407   4.638  17.125  0.00  0.00    +0.000 N 
ATOM     20  C   UNL     1       4.951   5.080  18.407  0.00  0.00    +0.000 C 
ATOM     21  C   UNL     1       4.940   3.907  19.406  0.00  0.00    +0.000 C 
BRANCH  19  22
ATOM     22  C   UNL     1       5.220   4.568  16.015  0.00  0.00    +0.000 A 
ATOM     23  C   UNL     1       4.752   4.001  14.817  0.00  0.00    +0.000 A 
ATOM     24  C   UNL     1       5.529   3.994  13.654  0.00  0.00    +0.000 A 
ATOM     25  C   UNL     1       6.802   4.550  13.673  0.00  0.00    +0.000 A 
ATOM     26 CL   UNL     1       7.749   4.583  12.238  0.00  0.00    +0.000 Cl
ATOM     27  C   UNL     1       7.307   5.093  14.849  0.00  0.00    +0.000 A 
ATOM     28  C   UNL     1       6.521   5.087  16.007  0.00  0.00    +0.000 A 
ENDBRANCH  19  22
ENDBRANCH  15  16
ENDBRANCH   2  15
TORSDOF 6
ENDMDL
MODEL 2
REMARK VINA RESULT:      -7.0      4.854      9.636
REMARK  Name = 
REMARK  7 active torsions:
REMARK  status: ('A' for Active; 'I' for Inactive)
REMARK    1  A    between atoms: C_1  and  O_2
REMARK    2  A    between atoms: O_2  and  C_3
REMARK    3  A    between atoms: C_3  and  C_5
REMARK    4  A    between atoms: C_8  and  N_9
REMARK    5  A    between atoms: C_10  and  C_12
REMARK    6  A    between atoms: C_12  and  N_13
REMARK    7  A    between atoms: N_16  and  C_17
REMARK                            x       y       z     vdW  Elec       q    Type
REMARK                         _______ _______ _______ _____ _____    ______ ____
ROOT
ATOM      1  N   UNL     1       2.761   6.730  18.593  0.00  0.00    +0.000 N 
ATOM      2  C   UNL     1       2.440   6.235  19.859  0.00  0.00    +0.000 C 
ATOM      3  O   UNL     1       3.043   5.320  20.453  0.00  0.00    +0.000 OA
ATOM      4  H   UNL     1       2.165   7.480  18.253  0.00  0.00    +0.000 HD
ENDROOT
BRANCH   1   8
ATOM      5  C   UNL     1       5.679   5.202  15.909  0.00  0.00    +0.000 A 
ATOM      6  C   UNL     1       5.697   6.550  16.286  0.00  0.00    +0.000 A 
ATOM      7  C   UNL     1       4.743   7.039  17.179  0.00  0.00    +0.000 A 
ATOM      8  C   UNL     1       3.753   6.218  17.717  0.00  0.00    +0.000 A 
ATOM      9  C   UNL     1       3.761   4.857  17.367  0.00  0.00    +0.000 A 
ATOM     10  C   UNL     1       4.709   4.361  16.460  0.00  0.00    +0.000 A 
BRANCH   5  11
ATOM     11  C   UNL     1       6.693   4.687  14.954  0.00  0.00    +0.000 C 
ATOM     12  O   UNL     1       7.780   5.227  14.753  0.00  0.00    +0.000 OA
BRANCH  11  14
ATOM     13  C   UNL     1       6.071   3.649  12.944  0.00  0.00    +0.000 C 
ATOM     14  O   UNL     1       6.241   3.564  14.360  0.00  0.00    +0.000 OA
ENDBRANCH  11  14
ENDBRANCH   5  11
ENDBRANCH   1   8
BRANCH   2  15
ATOM     15  C   UNL     1       1.267   6.943  20.564  0.00  0.00    +0.000 C 
BRANCH  15  16
ATOM     16  N   UNL     1       1.498   8.380  20.784  0.00  0.00    +0.000 NA
ATOM     17  C   UNL     1       1.070   9.343  19.739  0.00  0.00    +0.000 C 
ATOM     18  C   UNL     1      -0.172  10.267  19.968  0.00  0.00    +0.000 C 
ATOM     19  N   UNL     1      -0.348  10.624  21.381  0.00  0.00    +0.000 N 
ATOM     20  C   UNL     1      -0.220   9.503  22.310  0.00  0.00    +0.000 C 
ATOM     21  C   UNL     1       1.162   8.845  22.140  0.00  0.00    +0.000 C 
BRANCH  19  22
ATOM     22  C   UNL     1      -0.424  11.914  21.858  0.00  0.00    +0.000 A 
ATOM     23  C   UNL     1       0.237  12.964  21.198  0.00  0.00    +0.000 A 
ATOM     24  C   UNL     1       0.107  14.293  21.615  0.00  0.00    +0.000 A 
ATOM     25  C   UNL     1      -0.687  14.595  22.715  0.00  0.00    +0.000 A 
ATOM     26 CL   UNL     1      -0.886  16.229  23.210  0.00  0.00    +0.000 Cl
ATOM     27  C   UNL     1      -1.332  13.577  23.408  0.00  0.00    +0.000 A 
ATOM     28  C   UNL     1      -1.187  12.252  22.984  0.00  0.00    +0.000 A 
ENDBRANCH  19  22
ENDBRANCH  15  16
ENDBRANCH   2  15
TORSDOF 6
ENDMDL
MODEL 3
REMARK VINA RESULT:      -7.0      0.662      1.146
REMARK  Name = 
REMARK  7 active torsions:
REMARK  status: ('A' for Active; 'I' for Inactive)
REMARK    1  A    between atoms: C_1  and  O_2
REMARK    2  A    between atoms: O_2  and  C_3
REMARK    3  A    between atoms: C_3  and  C_5
REMARK    4  A    between atoms: C_8  and  N_9
REMARK    5  A    between atoms: C_10  and  C_12
REMARK    6  A    between atoms: C_12  and  N_13
REMARK    7  A    between atoms: N_16  and  C_17
REMARK                            x       y       z     vdW  Elec       q    Type
REMARK                         _______ _______ _______ _____ _____    ______ ____
ROOT
ATOM      1  N   UNL     1       2.466   6.192  20.596  0.00  0.00    +0.000 N 
ATOM      2  C   UNL     1       1.900   4.916  20.627  0.00  0.00    +0.000 C 
ATOM      3  O   UNL     1       0.712   4.645  20.366  0.00  0.00    +0.000 OA
ATOM      4  H   UNL     1       3.454   6.237  20.837  0.00  0.00    +0.000 HD
ENDROOT
BRANCH   1   8
ATOM      5  C   UNL     1       0.464   9.885  19.959  0.00  0.00    +0.000 A 
ATOM      6  C   UNL     1       1.272   9.333  18.958  0.00  0.00    +0.000 A 
ATOM      7  C   UNL     1       1.915   8.113  19.171  0.00  0.00    +0.000 A 
ATOM      8  C   UNL     1       1.778   7.412  20.369  0.00  0.00    +0.000 A 
ATOM      9  C   UNL     1       0.935   7.949  21.357  0.00  0.00    +0.000 A 
ATOM     10  C   UNL     1       0.296   9.181  21.153  0.00  0.00    +0.000 A 
BRANCH   5  11
ATOM     11  C   UNL     1      -0.214  11.186  19.729  0.00  0.00    +0.000 C 
ATOM     12  O   UNL     1      -1.212  11.556  20.346  0.00  0.00    +0.000 OA
BRANCH  11  14
ATOM     13  C   UNL     1      -0.255  13.044  18.297  0.00  0.00    +0.000 C 
ATOM     14  O   UNL     1       0.423  11.874  18.760  0.00  0.00    +0.000 OA
ENDBRANCH  11  14
ENDBRANCH   5  11
ENDBRANCH   1   8
BRANCH   2  15
ATOM     15  C   UNL     1       2.875   3.772  20.966  0.00  0.00    +0.000 C 
BRANCH  15  16
ATOM     16  N   UNL     1       3.696   3.343  19.823  0.00  0.00    +0.000 NA
ATOM     17  C   UNL     1       3.020   2.950  18.562  0.00  0.00    +0.000 C 
ATOM     18  C   UNL     1       3.080   3.878  17.303  0.00  0.00    +0.000 C 
ATOM     19  N   UNL     1       4.332   4.640  17.232  0.00  0.00    +0.000 N 
ATOM     20  C   UNL     1       4.735   5.264  18.491  0.00  0.00    +0.000 C 
ATOM     21  C   UNL     1       4.880   4.185  19.580  0.00  0.00    +0.000 C 
BRANCH  19  22
ATOM     22  C   UNL     1       5.194   4.630  16.157  0.00  0.00    +0.000 A 
ATOM     23  C   UNL     1       4.774   4.151  14.904  0.00  0.00    +0.000 A 
ATOM     24  C   UNL     1       5.603   4.208  13.779  0.00  0.00    +0.000 A 
ATOM     25  C   UNL     1       6.881   4.742  13.892  0.00  0.00    +0.000 A 
ATOM     26 CL   UNL     1       7.893   4.854  12.507  0.00  0.00    +0.000 Cl
ATOM     27  C   UNL     1       7.339   5.198  15.123  0.00  0.00    +0.000 A 
ATOM     28  C   UNL     1       6.501   5.129  16.241  0.00  0.00    +0.000 A 
ENDBRANCH  19  22
ENDBRANCH  15  16
ENDBRANCH   2  15
TORSDOF 6
ENDMDL
MODEL 4
REMARK VINA RESULT:      -7.0      4.891      9.625
REMARK  Name = 
REMARK  7 active torsions:
REMARK  status: ('A' for Active; 'I' for Inactive)
REMARK    1  A    between atoms: C_1  and  O_2
REMARK    2  A    between atoms: O_2  and  C_3
REMARK    3  A    between atoms: C_3  and  C_5
REMARK    4  A    between atoms: C_8  and  N_9
REMARK    5  A    between atoms: C_10  and  C_12
REMARK    6  A    between atoms: C_12  and  N_13
REMARK    7  A    between atoms: N_16  and  C_17
REMARK                            x       y       z     vdW  Elec       q    Type
REMARK                         _______ _______ _______ _____ _____    ______ ____
ROOT
ATOM      1  N   UNL     1       2.730   6.512  18.328  0.00  0.00    +0.000 N 
ATOM      2  C   UNL     1       2.674   6.178  19.683  0.00  0.00    +0.000 C 
ATOM      3  O   UNL     1       3.523   5.504  20.298  0.00  0.00    +0.000 OA
ATOM      4  H   UNL     1       1.953   7.071  17.983  0.00  0.00    +0.000 HD
ENDROOT
BRANCH   1   8
ATOM      5  C   UNL     1       5.682   5.174  15.580  0.00  0.00    +0.000 A 
ATOM      6  C   UNL     1       4.838   4.257  16.218  0.00  0.00    +0.000 A 
ATOM      7  C   UNL     1       3.862   4.708  17.109  0.00  0.00    +0.000 A 
ATOM      8  C   UNL     1       3.696   6.063  17.390  0.00  0.00    +0.000 A 
ATOM      9  C   UNL     1       4.519   6.983  16.719  0.00  0.00    +0.000 A 
ATOM     10  C   UNL     1       5.510   6.537  15.833  0.00  0.00    +0.000 A 
BRANCH   5  11
ATOM     11  C   UNL     1       6.722   4.690  14.638  0.00  0.00    +0.000 C 
ATOM     12  O   UNL     1       7.783   5.276  14.430  0.00  0.00    +0.000 OA
BRANCH  11  14
ATOM     13  C   UNL     1       6.155   3.590  12.644  0.00  0.00    +0.000 C 
ATOM     14  O   UNL     1       6.324   3.537  14.062  0.00  0.00    +0.000 OA
ENDBRANCH  11  14
ENDBRANCH   5  11
ENDBRANCH   1   8
BRANCH   2  15
ATOM     15  C   UNL     1       1.471   6.756  20.453  0.00  0.00    +0.000 C 
BRANCH  15  16
ATOM     16  N   UNL     1       1.594   8.195  20.738  0.00  0.00    +0.000 NA
ATOM     17  C   UNL     1       1.145   9.169  19.712  0.00  0.00    +0.000 C 
ATOM     18  C   UNL     1      -0.165   9.998  19.921  0.00  0.00    +0.000 C 
ATOM     19  N   UNL     1      -0.424  10.284  21.337  0.00  0.00    +0.000 N 
ATOM     20  C   UNL     1      -0.259   9.138  22.228  0.00  0.00    +0.000 C 
ATOM     21  C   UNL     1       1.171   8.581  22.094  0.00  0.00    +0.000 C 
BRANCH  19  22
ATOM     22  C   UNL     1      -0.608  11.546  21.859  0.00  0.00    +0.000 A 
ATOM     23  C   UNL     1      -1.498  11.760  22.927  0.00  0.00    +0.000 A 
ATOM     24  C   UNL     1      -1.638  13.016  23.527  0.00  0.00    +0.000 A 
ATOM     25  C   UNL     1      -0.891  14.090  23.059  0.00  0.00    +0.000 A 
ATOM     26 CL   UNL     1      -1.026  15.627  23.816  0.00  0.00    +0.000 Cl
ATOM     27  C   UNL     1      -0.024  13.920  21.986  0.00  0.00    +0.000 A 
ATOM     28  C   UNL     1       0.102  12.660  21.391  0.00  0.00    +0.000 A 
ENDBRANCH  19  22
ENDBRANCH  15  16
ENDBRANCH   2  15
TORSDOF 6
ENDMDL
MODEL 5
REMARK VINA RESULT:      -6.9      5.367     10.795
REMARK  Name = 
REMARK  7 active torsions:
REMARK  status: ('A' for Active; 'I' for Inactive)
REMARK    1  A    between atoms: C_1  and  O_2
REMARK    2  A    between atoms: O_2  and  C_3
REMARK    3  A    between atoms: C_3  and  C_5
REMARK    4  A    between atoms: C_8  and  N_9
REMARK    5  A    between atoms: C_10  and  C_12
REMARK    6  A    between atoms: C_12  and  N_13
REMARK    7  A    between atoms: N_16  and  C_17
REMARK                            x       y       z     vdW  Elec       q    Type
REMARK                         _______ _______ _______ _____ _____    ______ ____
ROOT
ATOM      1  N   UNL     1       1.736   8.563  19.495  0.00  0.00    +0.000 N 
ATOM      2  C   UNL     1       1.605   9.617  18.587  0.00  0.00    +0.000 C 
ATOM      3  O   UNL     1       1.893   9.569  17.376  0.00  0.00    +0.000 OA
ATOM      4  H   UNL     1       1.455   8.772  20.450  0.00  0.00    +0.000 HD
ENDROOT
BRANCH   1   8
ATOM      5  C   UNL     1       3.529   4.786  18.742  0.00  0.00    +0.000 A 
ATOM      6  C   UNL     1       2.642   4.950  19.812  0.00  0.00    +0.000 A 
ATOM      7  C   UNL     1       2.048   6.191  20.044  0.00  0.00    +0.000 A 
ATOM      8  C   UNL     1       2.312   7.293  19.231  0.00  0.00    +0.000 A 
ATOM      9  C   UNL     1       3.172   7.115  18.134  0.00  0.00    +0.000 A 
ATOM     10  C   UNL     1       3.782   5.874  17.904  0.00  0.00    +0.000 A 
BRANCH   5  11
ATOM     11  C   UNL     1       4.163   3.465  18.503  0.00  0.00    +0.000 C 
ATOM     12  O   UNL     1       3.950   2.773  17.508  0.00  0.00    +0.000 OA
BRANCH  11  14
ATOM     13  C   UNL     1       4.633   1.979  20.257  0.00  0.00    +0.000 C 
ATOM     14  O   UNL     1       4.985   3.155  19.525  0.00  0.00    +0.000 OA
ENDBRANCH  11  14
ENDBRANCH   5  11
ENDBRANCH   1   8
BRANCH   2  15
ATOM     15  C   UNL     1       1.004  10.912  19.166  0.00  0.00    +0.000 C 
BRANCH  15  16
ATOM     16  N   UNL     1      -0.131  10.677  20.073  0.00  0.00    +0.000 NA
ATOM     17  C   UNL     1       0.019  11.015  21.511  0.00  0.00    +0.000 C 
ATOM     18  C   UNL     1      -0.716  12.257  22.117  0.00  0.00    +0.000 C 
ATOM     19  N   UNL     1      -1.995  12.528  21.451  0.00  0.00    +0.000 N 
ATOM     20  C   UNL     1      -1.941  12.482  19.991  0.00  0.00    +0.000 C 
ATOM     21  C   UNL     1      -1.434  11.101  19.535  0.00  0.00    +0.000 C 
BRANCH  19  22
ATOM     22  C   UNL     1      -3.209  12.619  22.096  0.00  0.00    +0.000 A 
ATOM     23  C   UNL     1      -3.287  12.521  23.497  0.00  0.00    +0.000 A 
ATOM     24  C   UNL     1      -4.496  12.693  24.180  0.00  0.00    +0.000 A 
ATOM     25  C   UNL     1      -5.658  12.959  23.466  0.00  0.00    +0.000 A 
ATOM     26 CL   UNL     1      -7.141  13.213  24.299  0.00  0.00    +0.000 Cl
ATOM     27  C   UNL     1      -5.621  13.033  22.079  0.00  0.00    +0.000 A 
ATOM     28  C   UNL     1      -4.407  12.852  21.408  0.00  0.00    +0.000 A 
ENDBRANCH  19  22
ENDBRANCH  15  16
ENDBRANCH   2  15
TORSDOF 6
ENDMDL
MODEL 6
REMARK VINA RESULT:      -6.9      5.131     10.446
REMARK  Name = 
REMARK  7 active torsions:
REMARK  status: ('A' for Active; 'I' for Inactive)
REMARK    1  A    between atoms: C_1  and  O_2
REMARK    2  A    between atoms: O_2  and  C_3
REMARK    3  A    between atoms: C_3  and  C_5
REMARK    4  A    between atoms: C_8  and  N_9
REMARK    5  A    between atoms: C_10  and  C_12
REMARK    6  A    between atoms: C_12  and  N_13
REMARK    7  A    between atoms: N_16  and  C_17
REMARK                            x       y       z     vdW  Elec       q    Type
REMARK                         _______ _______ _______ _____ _____    ______ ____
ROOT
ATOM      1  N   UNL     1       1.895   8.148  19.439  0.00  0.00    +0.000 N 
ATOM      2  C   UNL     1       1.816   9.058  18.383  0.00  0.00    +0.000 C 
ATOM      3  O   UNL     1       2.122   8.820  17.198  0.00  0.00    +0.000 OA
ATOM      4  H   UNL     1       1.606   8.506  20.346  0.00  0.00    +0.000 HD
ENDROOT
BRANCH   1   8
ATOM      5  C   UNL     1       3.565   4.243  19.303  0.00  0.00    +0.000 A 
ATOM      6  C   UNL     1       2.573   4.558  20.238  0.00  0.00    +0.000 A 
ATOM      7  C   UNL     1       2.020   5.840  20.266  0.00  0.00    +0.000 A 
ATOM      8  C   UNL     1       2.431   6.835  19.380  0.00  0.00    +0.000 A 
ATOM      9  C   UNL     1       3.400   6.504  18.417  0.00  0.00    +0.000 A 
ATOM     10  C   UNL     1       3.968   5.222  18.392  0.00  0.00    +0.000 A 
BRANCH   5  11
ATOM     11  C   UNL     1       4.154   2.880  19.281  0.00  0.00    +0.000 C 
ATOM     12  O   UNL     1       4.769   2.385  20.224  0.00  0.00    +0.000 OA
BRANCH  11  14
ATOM     13  C   UNL     1       2.532   2.134  17.758  0.00  0.00    +0.000 C 
ATOM     14  O   UNL     1       3.912   2.292  18.092  0.00  0.00    +0.000 OA
ENDBRANCH  11  14
ENDBRANCH   5  11
ENDBRANCH   1   8
BRANCH   2  15
ATOM     15  C   UNL     1       1.250  10.443  18.749  0.00  0.00    +0.000 C 
BRANCH  15  16
ATOM     16  N   UNL     1       0.297  10.408  19.870  0.00  0.00    +0.000 NA
ATOM     17  C   UNL     1       0.605  11.186  21.097  0.00  0.00    +0.000 C 
ATOM     18  C   UNL     1      -0.190  12.490  21.434  0.00  0.00    +0.000 C 
ATOM     19  N   UNL     1      -1.576  12.438  20.953  0.00  0.00    +0.000 N 
ATOM     20  C   UNL     1      -1.725  11.948  19.585  0.00  0.00    +0.000 C 
ATOM     21  C   UNL     1      -1.114  10.539  19.469  0.00  0.00    +0.000 C 
BRANCH  19  22
ATOM     22  C   UNL     1      -2.687  12.625  21.747  0.00  0.00    +0.000 A 
ATOM     23  C   UNL     1      -3.891  13.097  21.198  0.00  0.00    +0.000 A 
ATOM     24  C   UNL     1      -5.054  13.216  21.966  0.00  0.00    +0.000 A 
ATOM     25  C   UNL     1      -5.028  12.871  23.312  0.00  0.00    +0.000 A 
ATOM     26 CL   UNL     1      -6.461  12.974  24.256  0.00  0.00    +0.000 Cl
ATOM     27  C   UNL     1      -3.846  12.428  23.894  0.00  0.00    +0.000 A 
ATOM     28  C   UNL     1      -2.688  12.320  23.115  0.00  0.00    +0.000 A 
ENDBRANCH  19  22
ENDBRANCH  15  16
ENDBRANCH   2  15
TORSDOF 6
ENDMDL
MODEL 7
REMARK VINA RESULT:      -6.9      5.543     10.962
REMARK  Name = 
REMARK  7 active torsions:
REMARK  status: ('A' for Active; 'I' for Inactive)
REMARK    1  A    between atoms: C_1  and  O_2
REMARK    2  A    between atoms: O_2  and  C_3
REMARK    3  A    between atoms: C_3  and  C_5
REMARK    4  A    between atoms: C_8  and  N_9
REMARK    5  A    between atoms: C_10  and  C_12
REMARK    6  A    between atoms: C_12  and  N_13
REMARK    7  A    between atoms: N_16  and  C_17
REMARK                            x       y       z     vdW  Elec       q    Type
REMARK                         _______ _______ _______ _____ _____    ______ ____
ROOT
ATOM      1  N   UNL     1       1.922   8.489  19.636  0.00  0.00    +0.000 N 
ATOM      2  C   UNL     1       1.238   9.495  18.948  0.00  0.00    +0.000 C 
ATOM      3  O   UNL     1       0.902   9.451  17.749  0.00  0.00    +0.000 OA
ATOM      4  H   UNL     1       2.119   8.686  20.614  0.00  0.00    +0.000 HD
ENDROOT
BRANCH   1   8
ATOM      5  C   UNL     1       3.423   4.906  17.914  0.00  0.00    +0.000 A 
ATOM      6  C   UNL     1       3.848   6.153  17.442  0.00  0.00    +0.000 A 
ATOM      7  C   UNL     1       3.360   7.325  18.023  0.00  0.00    +0.000 A 
ATOM      8  C   UNL     1       2.446   7.295  19.076  0.00  0.00    +0.000 A 
ATOM      9  C   UNL     1       2.051   6.042  19.573  0.00  0.00    +0.000 A 
ATOM     10  C   UNL     1       2.527   4.861  18.986  0.00  0.00    +0.000 A 
BRANCH   5  11
ATOM     11  C   UNL     1       3.941   3.663  17.290  0.00  0.00    +0.000 C 
ATOM     12  O   UNL     1       4.991   3.604  16.651  0.00  0.00    +0.000 OA
BRANCH  11  14
ATOM     13  C   UNL     1       3.669   1.524  18.214  0.00  0.00    +0.000 C 
ATOM     14  O   UNL     1       3.097   2.639  17.528  0.00  0.00    +0.000 OA
ENDBRANCH  11  14
ENDBRANCH   5  11
ENDBRANCH   1   8
BRANCH   2  15
ATOM     15  C   UNL     1       0.841  10.718  19.797  0.00  0.00    +0.000 C 
BRANCH  15  16
ATOM     16  N   UNL     1      -0.408  10.528  20.550  0.00  0.00    +0.000 NA
ATOM     17  C   UNL     1      -0.381  10.660  22.028  0.00  0.00    +0.000 C 
ATOM     18  C   UNL     1      -1.020  11.905  22.729  0.00  0.00    +0.000 C 
ATOM     19  N   UNL     1      -2.174  12.430  21.988  0.00  0.00    +0.000 N 
ATOM     20  C   UNL     1      -1.961  12.560  20.548  0.00  0.00    +0.000 C 
ATOM     21  C   UNL     1      -1.580  11.191  19.954  0.00  0.00    +0.000 C 
BRANCH  19  22
ATOM     22  C   UNL     1      -3.432  12.604  22.521  0.00  0.00    +0.000 A 
ATOM     23  C   UNL     1      -3.682  12.333  23.878  0.00  0.00    +0.000 A 
ATOM     24  C   UNL     1      -4.929  12.582  24.461  0.00  0.00    +0.000 A 
ATOM     25  C   UNL     1      -5.959  13.101  23.687  0.00  0.00    +0.000 A 
ATOM     26 CL   UNL     1      -7.483  13.449  24.403  0.00  0.00    +0.000 Cl
ATOM     27  C   UNL     1      -5.755  13.354  22.335  0.00  0.00    +0.000 A 
ATOM     28  C   UNL     1      -4.504  13.094  21.764  0.00  0.00    +0.000 A 
ENDBRANCH  19  22
ENDBRANCH  15  16
ENDBRANCH   2  15
TORSDOF 6
ENDMDL
MODEL 8
REMARK VINA RESULT:      -6.9      5.275     10.243
REMARK  Name = 
REMARK  7 active torsions:
REMARK  status: ('A' for Active; 'I' for Inactive)
REMARK    1  A    between atoms: C_1  and  O_2
REMARK    2  A    between atoms: O_2  and  C_3
REMARK    3  A    between atoms: C_3  and  C_5
REMARK    4  A    between atoms: C_8  and  N_9
REMARK    5  A    between atoms: C_10  and  C_12
REMARK    6  A    between atoms: C_12  and  N_13
REMARK    7  A    between atoms: N_16  and  C_17
REMARK                            x       y       z     vdW  Elec       q    Type
REMARK                         _______ _______ _______ _____ _____    ______ ____
ROOT
ATOM      1  N   UNL     1       2.789   6.157  19.934  0.00  0.00    +0.000 N 
ATOM      2  C   UNL     1       2.167   7.406  19.887  0.00  0.00    +0.000 C 
ATOM      3  O   UNL     1       2.282   8.238  18.966  0.00  0.00    +0.000 OA
ATOM      4  H   UNL     1       2.587   5.599  20.760  0.00  0.00    +0.000 HD
ENDROOT
BRANCH   1   8
ATOM      5  C   UNL     1       5.617   4.720  17.107  0.00  0.00    +0.000 A 
ATOM      6  C   UNL     1       6.045   5.354  18.280  0.00  0.00    +0.000 A 
ATOM      7  C   UNL     1       5.109   5.810  19.209  0.00  0.00    +0.000 A 
ATOM      8  C   UNL     1       3.738   5.654  19.005  0.00  0.00    +0.000 A 
ATOM      9  C   UNL     1       3.314   4.984  17.846  0.00  0.00    +0.000 A 
ATOM     10  C   UNL     1       4.248   4.534  16.902  0.00  0.00    +0.000 A 
BRANCH   5  11
ATOM     11  C   UNL     1       6.617   4.241  16.119  0.00  0.00    +0.000 C 
ATOM     12  O   UNL     1       7.834   4.318  16.285  0.00  0.00    +0.000 OA
BRANCH  11  14
ATOM     13  C   UNL     1       6.474   4.186  13.778  0.00  0.00    +0.000 C 
ATOM     14  O   UNL     1       5.992   3.726  15.041  0.00  0.00    +0.000 OA
ENDBRANCH  11  14
ENDBRANCH   5  11
ENDBRANCH   1   8
BRANCH   2  15
ATOM     15  C   UNL     1       1.228   7.718  21.068  0.00  0.00    +0.000 C 
BRANCH  15  16
ATOM     16  N   UNL     1       1.130   9.154  21.375  0.00  0.00    +0.000 NA
ATOM     17  C   UNL     1       0.483  10.055  20.389  0.00  0.00    +0.000 C 
ATOM     18  C   UNL     1      -0.933  10.658  20.671  0.00  0.00    +0.000 C 
ATOM     19  N   UNL     1      -1.169  10.881  22.103  0.00  0.00    +0.000 N 
ATOM     20  C   UNL     1      -0.779   9.766  22.963  0.00  0.00    +0.000 C 
ATOM     21  C   UNL     1       0.714   9.450  22.756  0.00  0.00    +0.000 C 
BRANCH  19  22
ATOM     22  C   UNL     1      -1.530  12.090  22.656  0.00  0.00    +0.000 A 
ATOM     23  C   UNL     1      -2.764  12.241  23.312  0.00  0.00    +0.000 A 
ATOM     24  C   UNL     1      -3.116  13.433  23.953  0.00  0.00    +0.000 A 
ATOM     25  C   UNL     1      -2.235  14.507  23.941  0.00  0.00    +0.000 A 
ATOM     26 CL   UNL     1      -2.640  15.963  24.761  0.00  0.00    +0.000 Cl
ATOM     27  C   UNL     1      -1.018  14.402  23.277  0.00  0.00    +0.000 A 
ATOM     28  C   UNL     1      -0.682  13.206  22.634  0.00  0.00    +0.000 A 
ENDBRANCH  19  22
ENDBRANCH  15  16
ENDBRANCH   2  15
TORSDOF 6
ENDMDL
MODEL 9
REMARK VINA RESULT:      -6.8      5.143     10.546
REMARK  Name = 
REMARK  7 active torsions:
REMARK  status: ('A' for Active; 'I' for Inactive)
REMARK    1  A    between atoms: C_1  and  O_2
REMARK    2  A    between atoms: O_2  and  C_3
REMARK    3  A    between atoms: C_3  and  C_5
REMARK    4  A    between atoms: C_8  and  N_9
REMARK    5  A    between atoms: C_10  and  C_12
REMARK    6  A    between atoms: C_12  and  N_13
REMARK    7  A    between atoms: N_16  and  C_17
REMARK                            x       y       z     vdW  Elec       q    Type
REMARK                         _______ _______ _______ _____ _____    ______ ____
ROOT
ATOM      1  N   UNL     1       1.758   8.293  19.526  0.00  0.00    +0.000 N 
ATOM      2  C   UNL     1       1.774   9.199  18.464  0.00  0.00    +0.000 C 
ATOM      3  O   UNL     1       2.175   8.955  17.309  0.00  0.00    +0.000 OA
ATOM      4  H   UNL     1       1.397   8.656  20.405  0.00  0.00    +0.000 HD
ENDROOT
BRANCH   1   8
ATOM      5  C   UNL     1       3.406   4.377  19.537  0.00  0.00    +0.000 A 
ATOM      6  C   UNL     1       2.386   4.720  20.432  0.00  0.00    +0.000 A 
ATOM      7  C   UNL     1       1.841   6.005  20.411  0.00  0.00    +0.000 A 
ATOM      8  C   UNL     1       2.287   6.976  19.515  0.00  0.00    +0.000 A 
ATOM      9  C   UNL     1       3.284   6.616  18.593  0.00  0.00    +0.000 A 
ATOM     10  C   UNL     1       3.844   5.331  18.616  0.00  0.00    +0.000 A 
BRANCH   5  11
ATOM     11  C   UNL     1       3.986   3.010  19.566  0.00  0.00    +0.000 C 
ATOM     12  O   UNL     1       5.158   2.770  19.854  0.00  0.00    +0.000 OA
BRANCH  11  14
ATOM     13  C   UNL     1       2.777   1.988  17.834  0.00  0.00    +0.000 C 
ATOM     14  O   UNL     1       3.047   2.102  19.233  0.00  0.00    +0.000 OA
ENDBRANCH  11  14
ENDBRANCH   5  11
ENDBRANCH   1   8
BRANCH   2  15
ATOM     15  C   UNL     1       1.189  10.590  18.778  0.00  0.00    +0.000 C 
BRANCH  15  16
ATOM     16  N   UNL     1       0.225  10.583  19.889  0.00  0.00    +0.000 NA
ATOM     17  C   UNL     1       0.412  11.542  21.007  0.00  0.00    +0.000 C 
ATOM     18  C   UNL     1      -0.540  12.772  21.169  0.00  0.00    +0.000 C 
ATOM     19  N   UNL     1      -1.900  12.491  20.692  0.00  0.00    +0.000 N 
ATOM     20  C   UNL     1      -1.961  11.817  19.397  0.00  0.00    +0.000 C 
ATOM     21  C   UNL     1      -1.183  10.490  19.467  0.00  0.00    +0.000 C 
BRANCH  19  22
ATOM     22  C   UNL     1      -3.041  12.642  21.450  0.00  0.00    +0.000 A 
ATOM     23  C   UNL     1      -2.987  12.569  22.852  0.00  0.00    +0.000 A 
ATOM     24  C   UNL     1      -4.116  12.802  23.645  0.00  0.00    +0.000 A 
ATOM     25  C   UNL     1      -5.331  13.104  23.042  0.00  0.00    +0.000 A 
ATOM     26 CL   UNL     1      -6.714  13.432  24.008  0.00  0.00    +0.000 Cl
ATOM     27  C   UNL     1      -5.426  13.155  21.656  0.00  0.00    +0.000 A 
ATOM     28  C   UNL     1      -4.290  12.914  20.875  0.00  0.00    +0.000 A 
ENDBRANCH  19  22
ENDBRANCH  15  16
ENDBRANCH   2  15
TORSDOF 6
ENDMDL
