MODEL 1
REMARK VINA RESULT:      -7.6      0.000      0.000
REMARK  Name = 
REMARK  14 active torsions:
REMARK  status: ('A' for Active; 'I' for Inactive)
REMARK    1  A    between atoms: C_2  and  C_3
REMARK    2  A    between atoms: C_6  and  C_7
REMARK    3  A    between atoms: C_9  and  C_10
REMARK    4  A    between atoms: C_13  and  C_14
REMARK    5  A    between atoms: C_14  and  C_15
REMARK    6  A    between atoms: C_15  and  C_16
REMARK    7  A    between atoms: C_16  and  N_17
REMARK    8  A    between atoms: C_16  and  C_18
REMARK    9  A    between atoms: C_16  and  C_20
REMARK   10  A    between atoms: C_18  and  O_19
REMARK   11  A    between atoms: C_20  and  O_21
REMARK   12  A    between atoms: O_21  and  P_22
REMARK   13  A    between atoms: P_22  and  O_24
REMARK   14  A    between atoms: P_22  and  O_25
REMARK                            x       y       z     vdW  Elec       q    Type
REMARK                         _______ _______ _______ _____ _____    ______ ____
ROOT
ATOM      1  C   UNL     1       0.806   9.131  20.551  0.00  0.00    +0.000 A 
ATOM      2  C   UNL     1       1.377   7.905  20.883  0.00  0.00    +0.000 A 
ATOM      3  C   UNL     1       2.161   7.239  19.960  0.00  0.00    +0.000 A 
ATOM      4  C   UNL     1       2.362   7.759  18.677  0.00  0.00    +0.000 A 
ATOM      5  C   UNL     1       1.805   9.001  18.349  0.00  0.00    +0.000 A 
ATOM      6  C   UNL     1       1.024   9.681  19.284  0.00  0.00    +0.000 A 
ENDROOT
BRANCH   1   9
ATOM      7  C   UNL     1      -1.232  11.275  22.416  0.00  0.00    +0.000 A 
ATOM      8  N   UNL     1      -0.805  10.885  21.233  0.00  0.00    +0.000 NA
ATOM      9  C   UNL     1       0.036   9.844  21.528  0.00  0.00    +0.000 A 
ATOM     10  C   UNL     1       0.053   9.618  22.885  0.00  0.00    +0.000 A 
ATOM     11  O   UNL     1      -0.750  10.539  23.467  0.00  0.00    +0.000 OA
BRANCH   7  15
ATOM     12  C   UNL     1      -4.002  14.376  23.323  0.00  0.00    +0.000 A 
ATOM     13  C   UNL     1      -2.996  14.592  22.375  0.00  0.00    +0.000 A 
ATOM     14  C   UNL     1      -2.071  13.578  22.092  0.00  0.00    +0.000 A 
ATOM     15  C   UNL     1      -2.155  12.345  22.753  0.00  0.00    +0.000 A 
ATOM     16  C   UNL     1      -3.160  12.152  23.715  0.00  0.00    +0.000 A 
ATOM     17  C   UNL     1      -4.079  13.154  23.995  0.00  0.00    +0.000 A 
BRANCH  12  19
ATOM     18  N   UNL     1      -5.741  16.240  23.796  0.00  0.00    +0.000 NA
ATOM     19  C   UNL     1      -4.960  15.398  23.590  0.00  0.00    +0.000 C 
ENDBRANCH  12  19
ENDBRANCH   7  15
ENDBRANCH   1   9
BRANCH   4  20
ATOM     20  C   UNL     1       3.224   7.019  17.685  0.00  0.00    +0.000 C 
BRANCH  20  21
ATOM     21  C   UNL     1       3.134   5.497  17.851  0.00  0.00    +0.000 C 
BRANCH  21  22
ATOM     22  C   UNL     1       4.419   4.747  18.260  0.00  0.00    +0.000 C 
BRANCH  22  23
ATOM     23  N   UNL     1       5.435   5.703  18.761  0.00  0.00    +0.000 NA
ATOM     24  H   UNL     1       5.059   6.648  18.774  0.00  0.00    +0.000 HD
ATOM     25  H   UNL     1       6.191   5.730  18.070  0.00  0.00    +0.000 HD
ENDBRANCH  22  23
BRANCH  22  26
ATOM     26  C   UNL     1       4.150   3.639  19.312  0.00  0.00    +0.000 C 
BRANCH  26  27
ATOM     27  O   UNL     1       5.155   2.635  19.339  0.00  0.00    +0.000 OA
ATOM     28  H   UNL     1       4.988   2.099  20.132  0.00  0.00    +0.000 HD
ENDBRANCH  26  27
ENDBRANCH  22  26
BRANCH  22  29
ATOM     29  C   UNL     1       4.967   4.053  16.986  0.00  0.00    +0.000 C 
BRANCH  29  30
ATOM     30  O   UNL     1       6.395   4.150  16.944  0.00  0.00    +0.000 OA
BRANCH  30  31
ATOM     31  P   UNL     1       7.005   4.825  15.473  0.00  0.00    +0.000 P 
ATOM     32  O   UNL     1       5.602   5.084  14.925  0.00  0.00    +0.000 OA
BRANCH  31  33
ATOM     33  O   UNL     1       7.425   6.161  16.299  0.00  0.00    +0.000 OA
ATOM     34  H   UNL     1       6.648   6.719  16.481  0.00  0.00    +0.000 HD
ENDBRANCH  31  33
BRANCH  31  35
ATOM     35  O   UNL     1       7.616   5.500  14.002  0.00  0.00    +0.000 OA
ATOM     36  H   UNL     1       6.958   5.176  13.349  0.00  0.00    +0.000 HD
ENDBRANCH  31  35
ENDBRANCH  30  31
ENDBRANCH  29  30
ENDBRANCH  22  29
ENDBRANCH  21  22
ENDBRANCH  20  21
ENDBRANCH   4  20
TORSDOF 14
ENDMDL
MODEL 2
REMARK VINA RESULT:      -7.5      1.032      1.459
REMARK  Name = 
REMARK  14 active torsions:
REMARK  status: ('A' for Active; 'I' for Inactive)
REMARK    1  A    between atoms: C_2  and  C_3
REMARK    2  A    between atoms: C_6  and  C_7
REMARK    3  A    between atoms: C_9  and  C_10
REMARK    4  A    between atoms: C_13  and  C_14
REMARK    5  A    between atoms: C_14  and  C_15
REMARK    6  A    between atoms: C_15  and  C_16
REMARK    7  A    between atoms: C_16  and  N_17
REMARK    8  A    between atoms: C_16  and  C_18
REMARK    9  A    between atoms: C_16  and  C_20
REMARK   10  A    between atoms: C_18  and  O_19
REMARK   11  A    between atoms: C_20  and  O_21
REMARK   12  A    between atoms: O_21  and  P_22
REMARK   13  A    between atoms: P_22  and  O_24
REMARK   14  A    between atoms: P_22  and  O_25
REMARK                            x       y       z     vdW  Elec       q    Type
REMARK                         _______ _______ _______ _____ _____    ______ ____
ROOT
ATOM      1  C   UNL     1       1.116   8.707  20.597  0.00  0.00    +0.000 A 
ATOM      2  C   UNL     1       1.559   7.422  20.899  0.00  0.00    +0.000 A 
ATOM      3  C   UNL     1       2.231   6.685  19.942  0.00  0.00    +0.000 A 
ATOM      4  C   UNL     1       2.442   7.195  18.656  0.00  0.00    +0.000 A 
ATOM      5  C   UNL     1       2.014   8.495  18.359  0.00  0.00    +0.000 A 
ATOM      6  C   UNL     1       1.347   9.246  19.327  0.00  0.00    +0.000 A 
ENDROOT
BRANCH   1   9
ATOM      7  C   UNL     1      -0.643  11.018  22.547  0.00  0.00    +0.000 A 
ATOM      8  N   UNL     1      -0.327  10.577  21.347  0.00  0.00    +0.000 NA
ATOM      9  C   UNL     1       0.464   9.489  21.608  0.00  0.00    +0.000 A 
ATOM     10  C   UNL     1       0.564   9.290  22.966  0.00  0.00    +0.000 A 
ATOM     11  O   UNL     1      -0.135  10.273  23.579  0.00  0.00    +0.000 OA
BRANCH   7  15
ATOM     12  C   UNL     1      -3.028  14.333  23.742  0.00  0.00    +0.000 A 
ATOM     13  C   UNL     1      -3.554  13.038  23.797  0.00  0.00    +0.000 A 
ATOM     14  C   UNL     1      -2.776  11.948  23.384  0.00  0.00    +0.000 A 
ATOM     15  C   UNL     1      -1.469  12.153  22.921  0.00  0.00    +0.000 A 
ATOM     16  C   UNL     1      -0.964  13.462  22.855  0.00  0.00    +0.000 A 
ATOM     17  C   UNL     1      -1.732  14.543  23.267  0.00  0.00    +0.000 A 
BRANCH  12  19
ATOM     18  N   UNL     1      -4.449  16.350  24.542  0.00  0.00    +0.000 NA
ATOM     19  C   UNL     1      -3.811  15.439  24.189  0.00  0.00    +0.000 C 
ENDBRANCH  12  19
ENDBRANCH   7  15
ENDBRANCH   1   9
BRANCH   4  20
ATOM     20  C   UNL     1       3.180   6.377  17.627  0.00  0.00    +0.000 C 
BRANCH  20  21
ATOM     21  C   UNL     1       4.684   6.287  17.919  0.00  0.00    +0.000 C 
BRANCH  21  22
ATOM     22  C   UNL     1       5.230   4.941  18.439  0.00  0.00    +0.000 C 
BRANCH  22  23
ATOM     23  N   UNL     1       6.047   5.153  19.657  0.00  0.00    +0.000 NA
ATOM     24  H   UNL     1       6.750   5.870  19.493  0.00  0.00    +0.000 HD
ATOM     25  H   UNL     1       6.580   4.293  19.817  0.00  0.00    +0.000 HD
ENDBRANCH  22  23
BRANCH  22  26
ATOM     26  C   UNL     1       4.103   3.910  18.714  0.00  0.00    +0.000 C 
BRANCH  26  27
ATOM     27  O   UNL     1       4.259   2.700  17.984  0.00  0.00    +0.000 OA
ATOM     28  H   UNL     1       5.206   2.625  17.777  0.00  0.00    +0.000 HD
ENDBRANCH  26  27
ENDBRANCH  22  26
BRANCH  22  29
ATOM     29  C   UNL     1       6.132   4.353  17.323  0.00  0.00    +0.000 C 
BRANCH  29  30
ATOM     30  O   UNL     1       5.470   4.438  16.056  0.00  0.00    +0.000 OA
BRANCH  30  31
ATOM     31  P   UNL     1       6.513   4.900  14.754  0.00  0.00    +0.000 P 
ATOM     32  O   UNL     1       7.762   4.817  15.630  0.00  0.00    +0.000 OA
BRANCH  31  33
ATOM     33  O   UNL     1       6.309   3.421  14.111  0.00  0.00    +0.000 OA
ATOM     34  H   UNL     1       7.159   3.040  13.831  0.00  0.00    +0.000 HD
ENDBRANCH  31  33
BRANCH  31  35
ATOM     35  O   UNL     1       7.554   5.362  13.453  0.00  0.00    +0.000 OA
ATOM     36  H   UNL     1       8.435   5.118  13.809  0.00  0.00    +0.000 HD
ENDBRANCH  31  35
ENDBRANCH  30  31
ENDBRANCH  29  30
ENDBRANCH  22  29
ENDBRANCH  21  22
ENDBRANCH  20  21
ENDBRANCH   4  20
TORSDOF 14
ENDMDL
MODEL 3
REMARK VINA RESULT:      -7.4      1.776      2.823
REMARK  Name = 
REMARK  14 active torsions:
REMARK  status: ('A' for Active; 'I' for Inactive)
REMARK    1  A    between atoms: C_2  and  C_3
REMARK    2  A    between atoms: C_6  and  C_7
REMARK    3  A    between atoms: C_9  and  C_10
REMARK    4  A    between atoms: C_13  and  C_14
REMARK    5  A    between atoms: C_14  and  C_15
REMARK    6  A    between atoms: C_15  and  C_16
REMARK    7  A    between atoms: C_16  and  N_17
REMARK    8  A    between atoms: C_16  and  C_18
REMARK    9  A    between atoms: C_16  and  C_20
REMARK   10  A    between atoms: C_18  and  O_19
REMARK   11  A    between atoms: C_20  and  O_21
REMARK   12  A    between atoms: O_21  and  P_22
REMARK   13  A    between atoms: P_22  and  O_24
REMARK   14  A    between atoms: P_22  and  O_25
REMARK                            x       y       z     vdW  Elec       q    Type
REMARK                         _______ _______ _______ _____ _____    ______ ____
ROOT
ATOM      1  C   UNL     1       1.080   8.910  20.468  0.00  0.00    +0.000 A 
ATOM      2  C   UNL     1       1.662   7.676  20.746  0.00  0.00    +0.000 A 
ATOM      3  C   UNL     1       2.348   7.000  19.754  0.00  0.00    +0.000 A 
ATOM      4  C   UNL     1       2.437   7.521  18.458  0.00  0.00    +0.000 A 
ATOM      5  C   UNL     1       1.870   8.771  18.184  0.00  0.00    +0.000 A 
ATOM      6  C   UNL     1       1.188   9.460  19.187  0.00  0.00    +0.000 A 
ENDROOT
BRANCH   1   9
ATOM      7  C   UNL     1      -0.694  11.113  22.526  0.00  0.00    +0.000 A 
ATOM      8  N   UNL     1      -0.350  10.752  21.307  0.00  0.00    +0.000 NA
ATOM      9  C   UNL     1       0.413   9.632  21.513  0.00  0.00    +0.000 A 
ATOM     10  C   UNL     1       0.467   9.335  22.855  0.00  0.00    +0.000 A 
ATOM     11  O   UNL     1      -0.232  10.287  23.516  0.00  0.00    +0.000 OA
BRANCH   7  15
ATOM     12  C   UNL     1      -3.056  14.382  23.884  0.00  0.00    +0.000 A 
ATOM     13  C   UNL     1      -3.621  13.106  23.782  0.00  0.00    +0.000 A 
ATOM     14  C   UNL     1      -2.849  12.034  23.315  0.00  0.00    +0.000 A 
ATOM     15  C   UNL     1      -1.510  12.236  22.955  0.00  0.00    +0.000 A 
ATOM     16  C   UNL     1      -0.964  13.527  23.046  0.00  0.00    +0.000 A 
ATOM     17  C   UNL     1      -1.726  14.591  23.511  0.00  0.00    +0.000 A 
BRANCH  12  19
ATOM     18  N   UNL     1      -4.463  16.364  24.788  0.00  0.00    +0.000 NA
ATOM     19  C   UNL     1      -3.833  15.467  24.386  0.00  0.00    +0.000 C 
ENDBRANCH  12  19
ENDBRANCH   7  15
ENDBRANCH   1   9
BRANCH   4  20
ATOM     20  C   UNL     1       3.194   6.771  17.391  0.00  0.00    +0.000 C 
BRANCH  20  21
ATOM     21  C   UNL     1       4.695   6.678  17.692  0.00  0.00    +0.000 C 
BRANCH  21  22
ATOM     22  C   UNL     1       5.420   5.372  17.308  0.00  0.00    +0.000 C 
BRANCH  22  23
ATOM     23  N   UNL     1       5.165   5.041  15.886  0.00  0.00    +0.000 NA
ATOM     24  H   UNL     1       5.532   4.118  15.664  0.00  0.00    +0.000 HD
ATOM     25  H   UNL     1       5.723   5.688  15.320  0.00  0.00    +0.000 HD
ENDBRANCH  22  23
BRANCH  22  26
ATOM     26  C   UNL     1       6.946   5.436  17.586  0.00  0.00    +0.000 C 
BRANCH  26  27
ATOM     27  O   UNL     1       7.520   4.166  17.863  0.00  0.00    +0.000 OA
ATOM     28  H   UNL     1       6.794   3.597  18.168  0.00  0.00    +0.000 HD
ENDBRANCH  26  27
ENDBRANCH  22  26
BRANCH  22  29
ATOM     29  C   UNL     1       4.835   4.246  18.200  0.00  0.00    +0.000 C 
BRANCH  29  30
ATOM     30  O   UNL     1       4.382   3.157  17.387  0.00  0.00    +0.000 OA
BRANCH  30  31
ATOM     31  P   UNL     1       2.918   2.428  17.951  0.00  0.00    +0.000 P 
ATOM     32  O   UNL     1       3.654   1.213  18.513  0.00  0.00    +0.000 OA
BRANCH  31  33
ATOM     33  O   UNL     1       2.872   3.527  19.148  0.00  0.00    +0.000 OA
ATOM     34  H   UNL     1       3.371   3.219  19.925  0.00  0.00    +0.000 HD
ENDBRANCH  31  33
BRANCH  31  35
ATOM     35  O   UNL     1       1.453   1.701  18.514  0.00  0.00    +0.000 OA
ATOM     36  H   UNL     1       1.773   0.825  18.820  0.00  0.00    +0.000 HD
ENDBRANCH  31  35
ENDBRANCH  30  31
ENDBRANCH  29  30
ENDBRANCH  22  29
ENDBRANCH  21  22
ENDBRANCH  20  21
ENDBRANCH   4  20
TORSDOF 14
ENDMDL
MODEL 4
REMARK VINA RESULT:      -7.4      1.122      1.174
REMARK  Name = 
REMARK  14 active torsions:
REMARK  status: ('A' for Active; 'I' for Inactive)
REMARK    1  A    between atoms: C_2  and  C_3
REMARK    2  A    between atoms: C_6  and  C_7
REMARK    3  A    between atoms: C_9  and  C_10
REMARK    4  A    between atoms: C_13  and  C_14
REMARK    5  A    between atoms: C_14  and  C_15
REMARK    6  A    between atoms: C_15  and  C_16
REMARK    7  A    between atoms: C_16  and  N_17
REMARK    8  A    between atoms: C_16  and  C_18
REMARK    9  A    between atoms: C_16  and  C_20
REMARK   10  A    between atoms: C_18  and  O_19
REMARK   11  A    between atoms: C_20  and  O_21
REMARK   12  A    between atoms: O_21  and  P_22
REMARK   13  A    between atoms: P_22  and  O_24
REMARK   14  A    between atoms: P_22  and  O_25
REMARK                            x       y       z     vdW  Elec       q    Type
REMARK                         _______ _______ _______ _____ _____    ______ ____
ROOT
ATOM      1  C   UNL     1       0.841   8.949  20.775  0.00  0.00    +0.000 A 
ATOM      2  C   UNL     1       1.266   7.700  21.218  0.00  0.00    +0.000 A 
ATOM      3  C   UNL     1       2.008   6.888  20.381  0.00  0.00    +0.000 A 
ATOM      4  C   UNL     1       2.309   7.287  19.074  0.00  0.00    +0.000 A 
ATOM      5  C   UNL     1       1.900   8.552  18.634  0.00  0.00    +0.000 A 
ATOM      6  C   UNL     1       1.162   9.377  19.482  0.00  0.00    +0.000 A 
ENDROOT
BRANCH   1   9
ATOM      7  C   UNL     1      -0.879  11.498  22.441  0.00  0.00    +0.000 A 
ATOM      8  N   UNL     1      -0.357  11.049  21.318  0.00  0.00    +0.000 NA
ATOM      9  C   UNL     1       0.116   9.810  21.664  0.00  0.00    +0.000 A 
ATOM     10  C   UNL     1      -0.177   9.541  22.981  0.00  0.00    +0.000 A 
ATOM     11  O   UNL     1      -0.806  10.624  23.493  0.00  0.00    +0.000 OA
BRANCH   7  15
ATOM     12  C   UNL     1      -2.822  15.226  23.104  0.00  0.00    +0.000 A 
ATOM     13  C   UNL     1      -1.432  15.180  22.949  0.00  0.00    +0.000 A 
ATOM     14  C   UNL     1      -0.791  13.950  22.751  0.00  0.00    +0.000 A 
ATOM     15  C   UNL     1      -1.539  12.766  22.704  0.00  0.00    +0.000 A 
ATOM     16  C   UNL     1      -2.931  12.829  22.880  0.00  0.00    +0.000 A 
ATOM     17  C   UNL     1      -3.570  14.046  23.074  0.00  0.00    +0.000 A 
BRANCH  12  19
ATOM     18  N   UNL     1      -4.006  17.510  23.430  0.00  0.00    +0.000 NA
ATOM     19  C   UNL     1      -3.478  16.481  23.277  0.00  0.00    +0.000 C 
ENDBRANCH  12  19
ENDBRANCH   7  15
ENDBRANCH   1   9
BRANCH   4  20
ATOM     20  C   UNL     1       3.123   6.390  18.176  0.00  0.00    +0.000 C 
BRANCH  20  21
ATOM     21  C   UNL     1       3.512   5.073  18.860  0.00  0.00    +0.000 C 
BRANCH  21  22
ATOM     22  C   UNL     1       4.284   4.034  18.021  0.00  0.00    +0.000 C 
BRANCH  22  23
ATOM     23  N   UNL     1       5.580   3.713  18.664  0.00  0.00    +0.000 NA
ATOM     24  H   UNL     1       5.436   3.119  19.477  0.00  0.00    +0.000 HD
ATOM     25  H   UNL     1       5.955   4.588  19.041  0.00  0.00    +0.000 HD
ENDBRANCH  22  23
BRANCH  22  26
ATOM     26  C   UNL     1       3.463   2.740  17.776  0.00  0.00    +0.000 C 
BRANCH  26  27
ATOM     27  O   UNL     1       4.260   1.563  17.768  0.00  0.00    +0.000 OA
ATOM     28  H   UNL     1       4.358   1.290  18.695  0.00  0.00    +0.000 HD
ENDBRANCH  26  27
ENDBRANCH  22  26
BRANCH  22  29
ATOM     29  C   UNL     1       4.556   4.677  16.636  0.00  0.00    +0.000 C 
BRANCH  29  30
ATOM     30  O   UNL     1       5.417   3.836  15.860  0.00  0.00    +0.000 OA
BRANCH  30  31
ATOM     31  P   UNL     1       6.679   4.693  15.044  0.00  0.00    +0.000 P 
ATOM     32  O   UNL     1       5.917   6.017  15.104  0.00  0.00    +0.000 OA
BRANCH  31  33
ATOM     33  O   UNL     1       7.564   4.616  16.405  0.00  0.00    +0.000 OA
ATOM     34  H   UNL     1       7.742   5.505  16.758  0.00  0.00    +0.000 HD
ENDBRANCH  31  33
BRANCH  31  35
ATOM     35  O   UNL     1       7.940   5.550  14.228  0.00  0.00    +0.000 OA
ATOM     36  H   UNL     1       7.432   6.232  13.739  0.00  0.00    +0.000 HD
ENDBRANCH  31  35
ENDBRANCH  30  31
ENDBRANCH  29  30
ENDBRANCH  22  29
ENDBRANCH  21  22
ENDBRANCH  20  21
ENDBRANCH   4  20
TORSDOF 14
ENDMDL
MODEL 5
REMARK VINA RESULT:      -7.4      1.633      1.956
REMARK  Name = 
REMARK  14 active torsions:
REMARK  status: ('A' for Active; 'I' for Inactive)
REMARK    1  A    between atoms: C_2  and  C_3
REMARK    2  A    between atoms: C_6  and  C_7
REMARK    3  A    between atoms: C_9  and  C_10
REMARK    4  A    between atoms: C_13  and  C_14
REMARK    5  A    between atoms: C_14  and  C_15
REMARK    6  A    between atoms: C_15  and  C_16
REMARK    7  A    between atoms: C_16  and  N_17
REMARK    8  A    between atoms: C_16  and  C_18
REMARK    9  A    between atoms: C_16  and  C_20
REMARK   10  A    between atoms: C_18  and  O_19
REMARK   11  A    between atoms: C_20  and  O_21
REMARK   12  A    between atoms: O_21  and  P_22
REMARK   13  A    between atoms: P_22  and  O_24
REMARK   14  A    between atoms: P_22  and  O_25
REMARK                            x       y       z     vdW  Elec       q    Type
REMARK                         _______ _______ _______ _____ _____    ______ ____
ROOT
ATOM      1  C   UNL     1       1.183   9.541  19.607  0.00  0.00    +0.000 A 
ATOM      2  C   UNL     1       1.601   9.581  18.280  0.00  0.00    +0.000 A 
ATOM      3  C   UNL     1       2.296   8.512  17.745  0.00  0.00    +0.000 A 
ATOM      4  C   UNL     1       2.622   7.401  18.530  0.00  0.00    +0.000 A 
ATOM      5  C   UNL     1       2.184   7.351  19.859  0.00  0.00    +0.000 A 
ATOM      6  C   UNL     1       1.471   8.423  20.396  0.00  0.00    +0.000 A 
ENDROOT
BRANCH   1   9
ATOM      7  C   UNL     1      -1.153  11.720  21.032  0.00  0.00    +0.000 A 
ATOM      8  N   UNL     1      -0.786  10.480  20.783  0.00  0.00    +0.000 NA
ATOM      9  C   UNL     1       0.417  10.629  20.144  0.00  0.00    +0.000 A 
ATOM     10  C   UNL     1       0.752  11.961  20.067  0.00  0.00    +0.000 A 
ATOM     11  O   UNL     1      -0.255  12.672  20.625  0.00  0.00    +0.000 OA
BRANCH   7  15
ATOM     12  C   UNL     1      -4.703  13.052  22.963  0.00  0.00    +0.000 A 
ATOM     13  C   UNL     1      -4.562  13.202  21.579  0.00  0.00    +0.000 A 
ATOM     14  C   UNL     1      -3.384  12.782  20.946  0.00  0.00    +0.000 A 
ATOM     15  C   UNL     1      -2.349  12.208  21.696  0.00  0.00    +0.000 A 
ATOM     16  C   UNL     1      -2.500  12.082  23.087  0.00  0.00    +0.000 A 
ATOM     17  C   UNL     1      -3.667  12.495  23.716  0.00  0.00    +0.000 A 
BRANCH  12  19
ATOM     18  N   UNL     1      -6.895  13.788  24.137  0.00  0.00    +0.000 NA
ATOM     19  C   UNL     1      -5.913  13.454  23.603  0.00  0.00    +0.000 C 
ENDBRANCH  12  19
ENDBRANCH   7  15
ENDBRANCH   1   9
BRANCH   4  20
ATOM     20  C   UNL     1       3.378   6.243  17.929  0.00  0.00    +0.000 C 
BRANCH  20  21
ATOM     21  C   UNL     1       2.831   4.885  18.386  0.00  0.00    +0.000 C 
BRANCH  21  22
ATOM     22  C   UNL     1       3.555   3.618  17.885  0.00  0.00    +0.000 C 
BRANCH  22  23
ATOM     23  N   UNL     1       4.522   3.142  18.902  0.00  0.00    +0.000 NA
ATOM     24  H   UNL     1       4.039   2.646  19.648  0.00  0.00    +0.000 HD
ATOM     25  H   UNL     1       4.920   3.971  19.353  0.00  0.00    +0.000 HD
ENDBRANCH  22  23
BRANCH  22  26
ATOM     26  C   UNL     1       2.569   2.484  17.499  0.00  0.00    +0.000 C 
BRANCH  26  27
ATOM     27  O   UNL     1       2.182   1.677  18.604  0.00  0.00    +0.000 OA
ATOM     28  H   UNL     1       1.232   1.831  18.737  0.00  0.00    +0.000 HD
ENDBRANCH  26  27
ENDBRANCH  22  26
BRANCH  22  29
ATOM     29  C   UNL     1       4.330   4.014  16.601  0.00  0.00    +0.000 C 
BRANCH  29  30
ATOM     30  O   UNL     1       5.741   3.893  16.817  0.00  0.00    +0.000 OA
BRANCH  30  31
ATOM     31  P   UNL     1       6.701   4.650  15.593  0.00  0.00    +0.000 P 
ATOM     32  O   UNL     1       6.101   6.027  15.873  0.00  0.00    +0.000 OA
BRANCH  31  33
ATOM     33  O   UNL     1       7.994   4.510  16.568  0.00  0.00    +0.000 OA
ATOM     34  H   UNL     1       8.552   5.306  16.527  0.00  0.00    +0.000 HD
ENDBRANCH  31  33
BRANCH  31  35
ATOM     35  O   UNL     1       7.661   5.406  14.369  0.00  0.00    +0.000 OA
ATOM     36  H   UNL     1       8.007   6.190  14.846  0.00  0.00    +0.000 HD
ENDBRANCH  31  35
ENDBRANCH  30  31
ENDBRANCH  29  30
ENDBRANCH  22  29
ENDBRANCH  21  22
ENDBRANCH  20  21
ENDBRANCH   4  20
TORSDOF 14
ENDMDL
MODEL 6
REMARK VINA RESULT:      -7.4      1.066      1.520
REMARK  Name = 
REMARK  14 active torsions:
REMARK  status: ('A' for Active; 'I' for Inactive)
REMARK    1  A    between atoms: C_2  and  C_3
REMARK    2  A    between atoms: C_6  and  C_7
REMARK    3  A    between atoms: C_9  and  C_10
REMARK    4  A    between atoms: C_13  and  C_14
REMARK    5  A    between atoms: C_14  and  C_15
REMARK    6  A    between atoms: C_15  and  C_16
REMARK    7  A    between atoms: C_16  and  N_17
REMARK    8  A    between atoms: C_16  and  C_18
REMARK    9  A    between atoms: C_16  and  C_20
REMARK   10  A    between atoms: C_18  and  O_19
REMARK   11  A    between atoms: C_20  and  O_21
REMARK   12  A    between atoms: O_21  and  P_22
REMARK   13  A    between atoms: P_22  and  O_24
REMARK   14  A    between atoms: P_22  and  O_25
REMARK                            x       y       z     vdW  Elec       q    Type
REMARK                         _______ _______ _______ _____ _____    ______ ____
ROOT
ATOM      1  C   UNL     1       1.065   8.733  20.772  0.00  0.00    +0.000 A 
ATOM      2  C   UNL     1       1.339   9.249  19.508  0.00  0.00    +0.000 A 
ATOM      3  C   UNL     1       1.959   8.455  18.561  0.00  0.00    +0.000 A 
ATOM      4  C   UNL     1       2.352   7.147  18.863  0.00  0.00    +0.000 A 
ATOM      5  C   UNL     1       2.058   6.621  20.127  0.00  0.00    +0.000 A 
ATOM      6  C   UNL     1       1.421   7.416  21.080  0.00  0.00    +0.000 A 
ENDROOT
BRANCH   1   9
ATOM      7  C   UNL     1      -0.735  11.114  22.595  0.00  0.00    +0.000 A 
ATOM      8  N   UNL     1      -0.353  10.658  21.420  0.00  0.00    +0.000 NA
ATOM      9  C   UNL     1       0.375   9.541  21.735  0.00  0.00    +0.000 A 
ATOM     10  C   UNL     1       0.372   9.341  23.096  0.00  0.00    +0.000 A 
ATOM     11  O   UNL     1      -0.329  10.352  23.660  0.00  0.00    +0.000 OA
BRANCH   7  15
ATOM     12  C   UNL     1      -3.121  14.540  23.415  0.00  0.00    +0.000 A 
ATOM     13  C   UNL     1      -1.771  14.692  23.079  0.00  0.00    +0.000 A 
ATOM     14  C   UNL     1      -0.981  13.563  22.829  0.00  0.00    +0.000 A 
ATOM     15  C   UNL     1      -1.540  12.281  22.911  0.00  0.00    +0.000 A 
ATOM     16  C   UNL     1      -2.892  12.146  23.268  0.00  0.00    +0.000 A 
ATOM     17  C   UNL     1      -3.679  13.263  23.513  0.00  0.00    +0.000 A 
BRANCH  12  19
ATOM     18  N   UNL     1      -4.599  16.634  23.812  0.00  0.00    +0.000 NA
ATOM     19  C   UNL     1      -3.932  15.691  23.641  0.00  0.00    +0.000 C 
ENDBRANCH  12  19
ENDBRANCH   7  15
ENDBRANCH   1   9
BRANCH   4  20
ATOM     20  C   UNL     1       3.024   6.295  17.816  0.00  0.00    +0.000 C 
BRANCH  20  21
ATOM     21  C   UNL     1       2.535   4.842  17.840  0.00  0.00    +0.000 C 
BRANCH  21  22
ATOM     22  C   UNL     1       3.580   3.742  18.120  0.00  0.00    +0.000 C 
BRANCH  22  23
ATOM     23  N   UNL     1       4.318   4.040  19.370  0.00  0.00    +0.000 NA
ATOM     24  H   UNL     1       5.144   4.598  19.171  0.00  0.00    +0.000 HD
ATOM     25  H   UNL     1       4.681   3.150  19.726  0.00  0.00    +0.000 HD
ENDBRANCH  22  23
BRANCH  22  26
ATOM     26  C   UNL     1       2.948   2.326  18.185  0.00  0.00    +0.000 C 
BRANCH  26  27
ATOM     27  O   UNL     1       3.911   1.281  18.185  0.00  0.00    +0.000 OA
ATOM     28  H   UNL     1       3.731   0.742  17.397  0.00  0.00    +0.000 HD
ENDBRANCH  26  27
ENDBRANCH  22  26
BRANCH  22  29
ATOM     29  C   UNL     1       4.578   3.748  16.932  0.00  0.00    +0.000 C 
BRANCH  29  30
ATOM     30  O   UNL     1       5.807   4.372  17.323  0.00  0.00    +0.000 OA
BRANCH  30  31
ATOM     31  P   UNL     1       6.774   4.900  15.989  0.00  0.00    +0.000 P 
ATOM     32  O   UNL     1       8.065   4.396  16.633  0.00  0.00    +0.000 OA
BRANCH  31  33
ATOM     33  O   UNL     1       6.187   3.661  15.117  0.00  0.00    +0.000 OA
ATOM     34  H   UNL     1       6.133   2.850  15.652  0.00  0.00    +0.000 HD
ENDBRANCH  31  33
BRANCH  31  35
ATOM     35  O   UNL     1       7.741   5.428  14.656  0.00  0.00    +0.000 OA
ATOM     36  H   UNL     1       7.235   5.075  13.893  0.00  0.00    +0.000 HD
ENDBRANCH  31  35
ENDBRANCH  30  31
ENDBRANCH  29  30
ENDBRANCH  22  29
ENDBRANCH  21  22
ENDBRANCH  20  21
ENDBRANCH   4  20
TORSDOF 14
ENDMDL
MODEL 7
REMARK VINA RESULT:      -7.4      2.109      2.932
REMARK  Name = 
REMARK  14 active torsions:
REMARK  status: ('A' for Active; 'I' for Inactive)
REMARK    1  A    between atoms: C_2  and  C_3
REMARK    2  A    between atoms: C_6  and  C_7
REMARK    3  A    between atoms: C_9  and  C_10
REMARK    4  A    between atoms: C_13  and  C_14
REMARK    5  A    between atoms: C_14  and  C_15
REMARK    6  A    between atoms: C_15  and  C_16
REMARK    7  A    between atoms: C_16  and  N_17
REMARK    8  A    between atoms: C_16  and  C_18
REMARK    9  A    between atoms: C_16  and  C_20
REMARK   10  A    between atoms: C_18  and  O_19
REMARK   11  A    between atoms: C_20  and  O_21
REMARK   12  A    between atoms: O_21  and  P_22
REMARK   13  A    between atoms: P_22  and  O_24
REMARK   14  A    between atoms: P_22  and  O_25
REMARK                            x       y       z     vdW  Elec       q    Type
REMARK                         _______ _______ _______ _____ _____    ______ ____
ROOT
ATOM      1  C   UNL     1       0.938   9.037  20.561  0.00  0.00    +0.000 A 
ATOM      2  C   UNL     1       1.516   7.793  20.801  0.00  0.00    +0.000 A 
ATOM      3  C   UNL     1       2.234   7.164  19.802  0.00  0.00    +0.000 A 
ATOM      4  C   UNL     1       2.361   7.741  18.534  0.00  0.00    +0.000 A 
ATOM      5  C   UNL     1       1.798   9.002  18.297  0.00  0.00    +0.000 A 
ATOM      6  C   UNL     1       1.084   9.644  19.309  0.00  0.00    +0.000 A 
ENDROOT
BRANCH   1   9
ATOM      7  C   UNL     1      -0.883  11.156  22.665  0.00  0.00    +0.000 A 
ATOM      8  N   UNL     1      -0.488  10.861  21.444  0.00  0.00    +0.000 NA
ATOM      9  C   UNL     1       0.237   9.711  21.615  0.00  0.00    +0.000 A 
ATOM     10  C   UNL     1       0.217   9.331  22.937  0.00  0.00    +0.000 A 
ATOM     11  O   UNL     1      -0.491  10.258  23.623  0.00  0.00    +0.000 OA
BRANCH   7  15
ATOM     12  C   UNL     1      -3.284  14.443  23.907  0.00  0.00    +0.000 A 
ATOM     13  C   UNL     1      -1.947  14.649  23.549  0.00  0.00    +0.000 A 
ATOM     14  C   UNL     1      -1.151  13.563  23.160  0.00  0.00    +0.000 A 
ATOM     15  C   UNL     1      -1.693  12.272  23.124  0.00  0.00    +0.000 A 
ATOM     16  C   UNL     1      -3.031  12.080  23.504  0.00  0.00    +0.000 A 
ATOM     17  C   UNL     1      -3.823  13.154  23.887  0.00  0.00    +0.000 A 
BRANCH  12  19
ATOM     18  N   UNL     1      -4.782  16.453  24.570  0.00  0.00    +0.000 NA
ATOM     19  C   UNL     1      -4.102  15.551  24.276  0.00  0.00    +0.000 C 
ENDBRANCH  12  19
ENDBRANCH   7  15
ENDBRANCH   1   9
BRANCH   4  20
ATOM     20  C   UNL     1       3.152   7.041  17.458  0.00  0.00    +0.000 C 
BRANCH  20  21
ATOM     21  C   UNL     1       4.392   6.329  18.012  0.00  0.00    +0.000 C 
BRANCH  21  22
ATOM     22  C   UNL     1       4.800   4.993  17.356  0.00  0.00    +0.000 C 
BRANCH  22  23
ATOM     23  N   UNL     1       5.441   5.238  16.043  0.00  0.00    +0.000 NA
ATOM     24  H   UNL     1       5.099   6.106  15.637  0.00  0.00    +0.000 HD
ATOM     25  H   UNL     1       5.117   4.504  15.407  0.00  0.00    +0.000 HD
ENDBRANCH  22  23
BRANCH  22  26
ATOM     26  C   UNL     1       5.729   4.145  18.265  0.00  0.00    +0.000 C 
BRANCH  26  27
ATOM     27  O   UNL     1       6.351   4.903  19.294  0.00  0.00    +0.000 OA
ATOM     28  H   UNL     1       5.635   5.240  19.858  0.00  0.00    +0.000 HD
ENDBRANCH  26  27
ENDBRANCH  22  26
BRANCH  22  29
ATOM     29  C   UNL     1       3.499   4.177  17.137  0.00  0.00    +0.000 C 
BRANCH  29  30
ATOM     30  O   UNL     1       3.400   3.132  18.111  0.00  0.00    +0.000 OA
BRANCH  30  31
ATOM     31  P   UNL     1       1.922   3.155  19.011  0.00  0.00    +0.000 P 
ATOM     32  O   UNL     1       1.135   3.740  17.839  0.00  0.00    +0.000 OA
BRANCH  31  33
ATOM     33  O   UNL     1       1.840   1.539  18.852  0.00  0.00    +0.000 OA
ATOM     34  H   UNL     1       2.118   1.092  19.671  0.00  0.00    +0.000 HD
ENDBRANCH  31  33
BRANCH  31  35
ATOM     35  O   UNL     1       0.446   3.178  19.910  0.00  0.00    +0.000 OA
ATOM     36  H   UNL     1       0.635   3.867  20.582  0.00  0.00    +0.000 HD
ENDBRANCH  31  35
ENDBRANCH  30  31
ENDBRANCH  29  30
ENDBRANCH  22  29
ENDBRANCH  21  22
ENDBRANCH  20  21
ENDBRANCH   4  20
TORSDOF 14
ENDMDL
MODEL 8
REMARK VINA RESULT:      -7.4      1.636      2.750
REMARK  Name = 
REMARK  14 active torsions:
REMARK  status: ('A' for Active; 'I' for Inactive)
REMARK    1  A    between atoms: C_2  and  C_3
REMARK    2  A    between atoms: C_6  and  C_7
REMARK    3  A    between atoms: C_9  and  C_10
REMARK    4  A    between atoms: C_13  and  C_14
REMARK    5  A    between atoms: C_14  and  C_15
REMARK    6  A    between atoms: C_15  and  C_16
REMARK    7  A    between atoms: C_16  and  N_17
REMARK    8  A    between atoms: C_16  and  C_18
REMARK    9  A    between atoms: C_16  and  C_20
REMARK   10  A    between atoms: C_18  and  O_19
REMARK   11  A    between atoms: C_20  and  O_21
REMARK   12  A    between atoms: O_21  and  P_22
REMARK   13  A    between atoms: P_22  and  O_24
REMARK   14  A    between atoms: P_22  and  O_25
REMARK                            x       y       z     vdW  Elec       q    Type
REMARK                         _______ _______ _______ _____ _____    ______ ____
ROOT
ATOM      1  C   UNL     1       1.073   8.901  20.558  0.00  0.00    +0.000 A 
ATOM      2  C   UNL     1       1.641   7.658  20.824  0.00  0.00    +0.000 A 
ATOM      3  C   UNL     1       2.339   6.994  19.833  0.00  0.00    +0.000 A 
ATOM      4  C   UNL     1       2.455   7.535  18.548  0.00  0.00    +0.000 A 
ATOM      5  C   UNL     1       1.902   8.795  18.285  0.00  0.00    +0.000 A 
ATOM      6  C   UNL     1       1.208   9.472  19.288  0.00  0.00    +0.000 A 
ENDROOT
BRANCH   1   9
ATOM      7  C   UNL     1      -0.745  11.068  22.615  0.00  0.00    +0.000 A 
ATOM      8  N   UNL     1      -0.398  10.711  21.396  0.00  0.00    +0.000 NA
ATOM      9  C   UNL     1       0.393   9.610  21.603  0.00  0.00    +0.000 A 
ATOM     10  C   UNL     1       0.459   9.320  22.946  0.00  0.00    +0.000 A 
ATOM     11  O   UNL     1      -0.259  10.256  23.607  0.00  0.00    +0.000 OA
BRANCH   7  15
ATOM     12  C   UNL     1      -3.239  14.318  23.768  0.00  0.00    +0.000 A 
ATOM     13  C   UNL     1      -1.910  14.553  23.400  0.00  0.00    +0.000 A 
ATOM     14  C   UNL     1      -1.083  13.480  23.040  0.00  0.00    +0.000 A 
ATOM     15  C   UNL     1      -1.586  12.172  23.044  0.00  0.00    +0.000 A 
ATOM     16  C   UNL     1      -2.917  11.953  23.434  0.00  0.00    +0.000 A 
ATOM     17  C   UNL     1      -3.740  13.014  23.788  0.00  0.00    +0.000 A 
BRANCH  12  19
ATOM     18  N   UNL     1      -4.779  16.315  24.372  0.00  0.00    +0.000 NA
ATOM     19  C   UNL     1      -4.088  15.412  24.107  0.00  0.00    +0.000 C 
ENDBRANCH  12  19
ENDBRANCH   7  15
ENDBRANCH   1   9
BRANCH   4  20
ATOM     20  C   UNL     1       3.225   6.798  17.482  0.00  0.00    +0.000 C 
BRANCH  20  21
ATOM     21  C   UNL     1       4.741   6.861  17.704  0.00  0.00    +0.000 C 
BRANCH  21  22
ATOM     22  C   UNL     1       5.625   5.916  16.864  0.00  0.00    +0.000 C 
BRANCH  22  23
ATOM     23  N   UNL     1       5.398   6.148  15.418  0.00  0.00    +0.000 NA
ATOM     24  H   UNL     1       4.404   6.109  15.203  0.00  0.00    +0.000 HD
ATOM     25  H   UNL     1       5.807   5.354  14.917  0.00  0.00    +0.000 HD
ENDBRANCH  22  23
BRANCH  22  26
ATOM     26  C   UNL     1       7.132   6.052  17.206  0.00  0.00    +0.000 C 
BRANCH  26  27
ATOM     27  O   UNL     1       7.765   7.131  16.532  0.00  0.00    +0.000 OA
ATOM     28  H   UNL     1       7.394   7.150  15.634  0.00  0.00    +0.000 HD
ENDBRANCH  26  27
ENDBRANCH  22  26
BRANCH  22  29
ATOM     29  C   UNL     1       5.201   4.465  17.213  0.00  0.00    +0.000 C 
BRANCH  29  30
ATOM     30  O   UNL     1       5.331   4.237  18.621  0.00  0.00    +0.000 OA
BRANCH  30  31
ATOM     31  P   UNL     1       4.029   3.325  19.303  0.00  0.00    +0.000 P 
ATOM     32  O   UNL     1       3.386   3.085  17.937  0.00  0.00    +0.000 OA
BRANCH  31  33
ATOM     33  O   UNL     1       5.062   2.093  19.543  0.00  0.00    +0.000 OA
ATOM     34  H   UNL     1       5.387   1.739  18.697  0.00  0.00    +0.000 HD
ENDBRANCH  31  33
BRANCH  31  35
ATOM     35  O   UNL     1       2.727   2.414  19.985  0.00  0.00    +0.000 OA
ATOM     36  H   UNL     1       3.149   2.036  20.787  0.00  0.00    +0.000 HD
ENDBRANCH  31  35
ENDBRANCH  30  31
ENDBRANCH  29  30
ENDBRANCH  22  29
ENDBRANCH  21  22
ENDBRANCH  20  21
ENDBRANCH   4  20
TORSDOF 14
ENDMDL
MODEL 9
REMARK VINA RESULT:      -7.3      2.251      3.536
REMARK  Name = 
REMARK  14 active torsions:
REMARK  status: ('A' for Active; 'I' for Inactive)
REMARK    1  A    between atoms: C_2  and  C_3
REMARK    2  A    between atoms: C_6  and  C_7
REMARK    3  A    between atoms: C_9  and  C_10
REMARK    4  A    between atoms: C_13  and  C_14
REMARK    5  A    between atoms: C_14  and  C_15
REMARK    6  A    between atoms: C_15  and  C_16
REMARK    7  A    between atoms: C_16  and  N_17
REMARK    8  A    between atoms: C_16  and  C_18
REMARK    9  A    between atoms: C_16  and  C_20
REMARK   10  A    between atoms: C_18  and  O_19
REMARK   11  A    between atoms: C_20  and  O_21
REMARK   12  A    between atoms: O_21  and  P_22
REMARK   13  A    between atoms: P_22  and  O_24
REMARK   14  A    between atoms: P_22  and  O_25
REMARK                            x       y       z     vdW  Elec       q    Type
REMARK                         _______ _______ _______ _____ _____    ______ ____
ROOT
ATOM      1  C   UNL     1       1.292   8.684  20.303  0.00  0.00    +0.000 A 
ATOM      2  C   UNL     1       1.568   9.158  19.023  0.00  0.00    +0.000 A 
ATOM      3  C   UNL     1       2.261   8.364  18.129  0.00  0.00    +0.000 A 
ATOM      4  C   UNL     1       2.727   7.099  18.503  0.00  0.00    +0.000 A 
ATOM      5  C   UNL     1       2.433   6.613  19.783  0.00  0.00    +0.000 A 
ATOM      6  C   UNL     1       1.722   7.408  20.681  0.00  0.00    +0.000 A 
ENDROOT
BRANCH   1   9
ATOM      7  C   UNL     1      -0.826  10.925  21.953  0.00  0.00    +0.000 A 
ATOM      8  N   UNL     1      -0.460  10.357  20.823  0.00  0.00    +0.000 NA
ATOM      9  C   UNL     1       0.528   9.490  21.210  0.00  0.00    +0.000 A 
ATOM     10  C   UNL     1       0.695   9.540  22.575  0.00  0.00    +0.000 A 
ATOM     11  O   UNL     1      -0.163  10.467  23.062  0.00  0.00    +0.000 OA
BRANCH   7  15
ATOM     12  C   UNL     1      -3.878  13.822  22.587  0.00  0.00    +0.000 A 
ATOM     13  C   UNL     1      -3.143  13.830  21.397  0.00  0.00    +0.000 A 
ATOM     14  C   UNL     1      -2.125  12.889  21.197  0.00  0.00    +0.000 A 
ATOM     15  C   UNL     1      -1.843  11.936  22.185  0.00  0.00    +0.000 A 
ATOM     16  C   UNL     1      -2.578  11.955  23.382  0.00  0.00    +0.000 A 
ATOM     17  C   UNL     1      -3.590  12.884  23.582  0.00  0.00    +0.000 A 
BRANCH  12  19
ATOM     18  N   UNL     1      -5.795  15.536  22.923  0.00  0.00    +0.000 NA
ATOM     19  C   UNL     1      -4.934  14.762  22.779  0.00  0.00    +0.000 C 
ENDBRANCH  12  19
ENDBRANCH   7  15
ENDBRANCH   1   9
BRANCH   4  20
ATOM     20  C   UNL     1       3.478   6.245  17.513  0.00  0.00    +0.000 C 
BRANCH  20  21
ATOM     21  C   UNL     1       3.149   4.753  17.657  0.00  0.00    +0.000 C 
BRANCH  21  22
ATOM     22  C   UNL     1       4.304   3.801  18.032  0.00  0.00    +0.000 C 
BRANCH  22  23
ATOM     23  N   UNL     1       4.917   3.229  16.811  0.00  0.00    +0.000 NA
ATOM     24  H   UNL     1       5.690   3.810  16.495  0.00  0.00    +0.000 HD
ATOM     25  H   UNL     1       4.218   3.292  16.064  0.00  0.00    +0.000 HD
ENDBRANCH  22  23
BRANCH  22  26
ATOM     26  C   UNL     1       5.381   4.492  18.909  0.00  0.00    +0.000 C 
BRANCH  26  27
ATOM     27  O   UNL     1       6.710   4.202  18.498  0.00  0.00    +0.000 OA
ATOM     28  H   UNL     1       7.294   4.528  19.203  0.00  0.00    +0.000 HD
ENDBRANCH  26  27
ENDBRANCH  22  26
BRANCH  22  29
ATOM     29  C   UNL     1       3.691   2.651  18.874  0.00  0.00    +0.000 C 
BRANCH  29  30
ATOM     30  O   UNL     1       2.288   2.872  19.066  0.00  0.00    +0.000 OA
BRANCH  30  31
ATOM     31  P   UNL     1       1.766   2.658  20.702  0.00  0.00    +0.000 P 
ATOM     32  O   UNL     1       2.836   3.606  21.243  0.00  0.00    +0.000 OA
BRANCH  31  33
ATOM     33  O   UNL     1       0.468   3.579  20.372  0.00  0.00    +0.000 OA
ATOM     34  H   UNL     1      -0.350   3.052  20.393  0.00  0.00    +0.000 HD
ENDBRANCH  31  33
BRANCH  31  35
ATOM     35  O   UNL     1       1.244   2.444  22.336  0.00  0.00    +0.000 OA
ATOM     36  H   UNL     1       2.090   2.531  22.826  0.00  0.00    +0.000 HD
ENDBRANCH  31  35
ENDBRANCH  30  31
ENDBRANCH  29  30
ENDBRANCH  22  29
ENDBRANCH  21  22
ENDBRANCH  20  21
ENDBRANCH   4  20
TORSDOF 14
ENDMDL
