MODEL 1
REMARK VINA RESULT:      -6.0      0.000      0.000
REMARK  Name = 
REMARK  5 active torsions:
REMARK  status: ('A' for Active; 'I' for Inactive)
REMARK    1  A    between atoms: C_1  and  N_2
REMARK    2  A    between atoms: N_2  and  C_3
REMARK    3  A    between atoms: N_2  and  C_4
REMARK    4  A    between atoms: C_4  and  C_5
REMARK    5  A    between atoms: C_5  and  C_7
REMARK                            x       y       z     vdW  Elec       q    Type
REMARK                         _______ _______ _______ _____ _____    ______ ____
ROOT
ATOM      1  C   UNL     1       4.590   5.281  16.972  0.00  0.00    +0.000 A 
ATOM      2  C   UNL     1       3.698   6.193  17.561  0.00  0.00    +0.000 A 
ATOM      3  C   UNL     1       2.707   5.760  18.443  0.00  0.00    +0.000 A 
ATOM      4  C   UNL     1       2.583   4.405  18.754  0.00  0.00    +0.000 A 
ATOM      5 BR   UNL     1       1.191   3.915  19.946  0.00  0.00    +0.000 Br
ATOM      6  C   UNL     1       3.460   3.481  18.179  0.00  0.00    +0.000 A 
ATOM      7 BR   UNL     1       3.371   1.615  18.526  0.00  0.00    +0.000 Br
ATOM      8  C   UNL     1       4.458   3.921  17.296  0.00  0.00    +0.000 A 
ENDROOT
BRANCH   1   9
ATOM      9  C   UNL     1       5.646   5.722  15.973  0.00  0.00    +0.000 C 
ATOM     10 BR   UNL     1       5.713   4.414  14.512  0.00  0.00    +0.000 Br
BRANCH   9  11
ATOM     11  C   UNL     1       7.034   5.898  16.633  0.00  0.00    +0.000 C 
BRANCH  11  13
ATOM     12  C   UNL     1       7.768   5.973  18.969  0.00  0.00    +0.000 C 
ATOM     13  N   UNL     1       7.102   6.688  17.884  0.00  0.00    +0.000 NA
ATOM     14  C   UNL     1       7.789   7.959  17.623  0.00  0.00    +0.000 C 
ENDBRANCH  11  13
ENDBRANCH   9  11
ENDBRANCH   1   9
TORSDOF 3
ENDMDL
MODEL 2
REMARK VINA RESULT:      -5.8      1.099      2.184
REMARK  Name = 
REMARK  5 active torsions:
REMARK  status: ('A' for Active; 'I' for Inactive)
REMARK    1  A    between atoms: C_1  and  N_2
REMARK    2  A    between atoms: N_2  and  C_3
REMARK    3  A    between atoms: N_2  and  C_4
REMARK    4  A    between atoms: C_4  and  C_5
REMARK    5  A    between atoms: C_5  and  C_7
REMARK                            x       y       z     vdW  Elec       q    Type
REMARK                         _______ _______ _______ _____ _____    ______ ____
ROOT
ATOM      1  C   UNL     1       4.608   4.727  17.149  0.00  0.00    +0.000 A 
ATOM      2  C   UNL     1       4.100   3.420  17.058  0.00  0.00    +0.000 A 
ATOM      3  C   UNL     1       3.020   3.014  17.843  0.00  0.00    +0.000 A 
ATOM      4  C   UNL     1       2.425   3.904  18.738  0.00  0.00    +0.000 A 
ATOM      5 BR   UNL     1       0.977   3.250  19.775  0.00  0.00    +0.000 Br
ATOM      6  C   UNL     1       2.915   5.209  18.844  0.00  0.00    +0.000 A 
ATOM      7 BR   UNL     1       2.185   6.495  20.038  0.00  0.00    +0.000 Br
ATOM      8  C   UNL     1       3.998   5.615  18.050  0.00  0.00    +0.000 A 
ENDROOT
BRANCH   1   9
ATOM      9  C   UNL     1       5.812   5.179  16.341  0.00  0.00    +0.000 C 
ATOM     10 BR   UNL     1       5.729   4.340  14.570  0.00  0.00    +0.000 Br
BRANCH   9  11
ATOM     11  C   UNL     1       7.147   4.856  17.054  0.00  0.00    +0.000 C 
BRANCH  11  13
ATOM     12  C   UNL     1       7.312   7.271  17.430  0.00  0.00    +0.000 C 
ATOM     13  N   UNL     1       7.800   5.948  17.811  0.00  0.00    +0.000 NA
ATOM     14  C   UNL     1       7.602   5.733  19.249  0.00  0.00    +0.000 C 
ENDBRANCH  11  13
ENDBRANCH   9  11
ENDBRANCH   1   9
TORSDOF 3
ENDMDL
MODEL 3
REMARK VINA RESULT:      -5.7      0.966      2.040
REMARK  Name = 
REMARK  5 active torsions:
REMARK  status: ('A' for Active; 'I' for Inactive)
REMARK    1  A    between atoms: C_1  and  N_2
REMARK    2  A    between atoms: N_2  and  C_3
REMARK    3  A    between atoms: N_2  and  C_4
REMARK    4  A    between atoms: C_4  and  C_5
REMARK    5  A    between atoms: C_5  and  C_7
REMARK                            x       y       z     vdW  Elec       q    Type
REMARK                         _______ _______ _______ _____ _____    ______ ____
ROOT
ATOM      1  C   UNL     1       4.523   5.263  16.934  0.00  0.00    +0.000 A 
ATOM      2  C   UNL     1       4.133   3.924  17.103  0.00  0.00    +0.000 A 
ATOM      3  C   UNL     1       3.150   3.574  18.029  0.00  0.00    +0.000 A 
ATOM      4  C   UNL     1       2.535   4.555  18.810  0.00  0.00    +0.000 A 
ATOM      5 BR   UNL     1       1.226   3.976  20.055  0.00  0.00    +0.000 Br
ATOM      6  C   UNL     1       2.908   5.893  18.656  0.00  0.00    +0.000 A 
ATOM      7 BR   UNL     1       2.143   7.304  19.675  0.00  0.00    +0.000 Br
ATOM      8  C   UNL     1       3.894   6.242  17.721  0.00  0.00    +0.000 A 
ENDROOT
BRANCH   1   9
ATOM      9  C   UNL     1       5.624   5.663  15.967  0.00  0.00    +0.000 C 
ATOM     10 BR   UNL     1       5.674   4.362  14.500  0.00  0.00    +0.000 Br
BRANCH   9  11
ATOM     11  C   UNL     1       7.000   5.776  16.666  0.00  0.00    +0.000 C 
BRANCH  11  13
ATOM     12  C   UNL     1       7.781   5.915  18.983  0.00  0.00    +0.000 C 
ATOM     13  N   UNL     1       7.077   6.594  17.898  0.00  0.00    +0.000 NA
ATOM     14  C   UNL     1       7.730   7.873  17.597  0.00  0.00    +0.000 C 
ENDBRANCH  11  13
ENDBRANCH   9  11
ENDBRANCH   1   9
TORSDOF 3
ENDMDL
MODEL 4
REMARK VINA RESULT:      -5.6      1.102      2.170
REMARK  Name = 
REMARK  5 active torsions:
REMARK  status: ('A' for Active; 'I' for Inactive)
REMARK    1  A    between atoms: C_1  and  N_2
REMARK    2  A    between atoms: N_2  and  C_3
REMARK    3  A    between atoms: N_2  and  C_4
REMARK    4  A    between atoms: C_4  and  C_5
REMARK    5  A    between atoms: C_5  and  C_7
REMARK                            x       y       z     vdW  Elec       q    Type
REMARK                         _______ _______ _______ _____ _____    ______ ____
ROOT
ATOM      1  C   UNL     1       4.251   5.114  17.079  0.00  0.00    +0.000 A 
ATOM      2  C   UNL     1       4.092   3.759  16.741  0.00  0.00    +0.000 A 
ATOM      3  C   UNL     1       3.267   2.924  17.496  0.00  0.00    +0.000 A 
ATOM      4  C   UNL     1       2.586   3.422  18.608  0.00  0.00    +0.000 A 
ATOM      5 BR   UNL     1       1.508   2.202  19.582  0.00  0.00    +0.000 Br
ATOM      6  C   UNL     1       2.731   4.767  18.961  0.00  0.00    +0.000 A 
ATOM      7 BR   UNL     1       1.857   5.543  20.460  0.00  0.00    +0.000 Br
ATOM      8  C   UNL     1       3.556   5.605  18.197  0.00  0.00    +0.000 A 
ENDROOT
BRANCH   1   9
ATOM      9  C   UNL     1       5.178   6.032  16.302  0.00  0.00    +0.000 C 
ATOM     10 BR   UNL     1       6.509   4.935  15.367  0.00  0.00    +0.000 Br
BRANCH   9  11
ATOM     11  C   UNL     1       5.856   7.082  17.214  0.00  0.00    +0.000 C 
BRANCH  11  13
ATOM     12  C   UNL     1       7.994   8.191  17.661  0.00  0.00    +0.000 C 
ATOM     13  N   UNL     1       7.301   6.917  17.492  0.00  0.00    +0.000 NA
ATOM     14  C   UNL     1       7.476   6.086  18.690  0.00  0.00    +0.000 C 
ENDBRANCH  11  13
ENDBRANCH   9  11
ENDBRANCH   1   9
TORSDOF 3
ENDMDL
MODEL 5
REMARK VINA RESULT:      -5.5      2.995      5.661
REMARK  Name = 
REMARK  5 active torsions:
REMARK  status: ('A' for Active; 'I' for Inactive)
REMARK    1  A    between atoms: C_1  and  N_2
REMARK    2  A    between atoms: N_2  and  C_3
REMARK    3  A    between atoms: N_2  and  C_4
REMARK    4  A    between atoms: C_4  and  C_5
REMARK    5  A    between atoms: C_5  and  C_7
REMARK                            x       y       z     vdW  Elec       q    Type
REMARK                         _______ _______ _______ _____ _____    ______ ____
ROOT
ATOM      1  C   UNL     1       3.452   5.192  18.264  0.00  0.00    +0.000 A 
ATOM      2  C   UNL     1       3.430   4.150  17.322  0.00  0.00    +0.000 A 
ATOM      3  C   UNL     1       4.478   3.980  16.416  0.00  0.00    +0.000 A 
ATOM      4  C   UNL     1       5.570   4.849  16.429  0.00  0.00    +0.000 A 
ATOM      5 BR   UNL     1       6.932   4.547  15.144  0.00  0.00    +0.000 Br
ATOM      6  C   UNL     1       5.611   5.892  17.359  0.00  0.00    +0.000 A 
ATOM      7 BR   UNL     1       7.045   7.136  17.456  0.00  0.00    +0.000 Br
ATOM      8  C   UNL     1       4.558   6.057  18.271  0.00  0.00    +0.000 A 
ENDROOT
BRANCH   1   9
ATOM      9  C   UNL     1       2.302   5.426  19.228  0.00  0.00    +0.000 C 
ATOM     10 BR   UNL     1       2.225   7.337  19.662  0.00  0.00    +0.000 Br
BRANCH   9  11
ATOM     11  C   UNL     1       2.431   4.564  20.508  0.00  0.00    +0.000 C 
BRANCH  11  13
ATOM     12  C   UNL     1       0.778   2.986  19.628  0.00  0.00    +0.000 C 
ATOM     13  N   UNL     1       1.324   3.631  20.819  0.00  0.00    +0.000 NA
ATOM     14  C   UNL     1       1.793   2.617  21.771  0.00  0.00    +0.000 C 
ENDBRANCH  11  13
ENDBRANCH   9  11
ENDBRANCH   1   9
TORSDOF 3
ENDMDL
MODEL 6
REMARK VINA RESULT:      -5.4      0.802      1.196
REMARK  Name = 
REMARK  5 active torsions:
REMARK  status: ('A' for Active; 'I' for Inactive)
REMARK    1  A    between atoms: C_1  and  N_2
REMARK    2  A    between atoms: N_2  and  C_3
REMARK    3  A    between atoms: N_2  and  C_4
REMARK    4  A    between atoms: C_4  and  C_5
REMARK    5  A    between atoms: C_5  and  C_7
REMARK                            x       y       z     vdW  Elec       q    Type
REMARK                         _______ _______ _______ _____ _____    ______ ____
ROOT
ATOM      1  C   UNL     1       4.180   5.386  17.283  0.00  0.00    +0.000 A 
ATOM      2  C   UNL     1       3.101   6.052  17.888  0.00  0.00    +0.000 A 
ATOM      3  C   UNL     1       2.168   5.355  18.657  0.00  0.00    +0.000 A 
ATOM      4  C   UNL     1       2.291   3.976  18.837  0.00  0.00    +0.000 A 
ATOM      5 BR   UNL     1       0.961   3.117  19.882  0.00  0.00    +0.000 Br
ATOM      6  C   UNL     1       3.358   3.295  18.244  0.00  0.00    +0.000 A 
ATOM      7 BR   UNL     1       3.612   1.419  18.416  0.00  0.00    +0.000 Br
ATOM      8  C   UNL     1       4.296   4.000  17.475  0.00  0.00    +0.000 A 
ENDROOT
BRANCH   1   9
ATOM      9  C   UNL     1       5.181   6.114  16.402  0.00  0.00    +0.000 C 
ATOM     10 BR   UNL     1       6.431   4.801  15.654  0.00  0.00    +0.000 Br
BRANCH   9  11
ATOM     11  C   UNL     1       5.929   7.229  17.171  0.00  0.00    +0.000 C 
BRANCH  11  13
ATOM     12  C   UNL     1       8.092   8.259  17.682  0.00  0.00    +0.000 C 
ATOM     13  N   UNL     1       7.363   7.011  17.469  0.00  0.00    +0.000 NA
ATOM     14  C   UNL     1       7.492   6.146  18.647  0.00  0.00    +0.000 C 
ENDBRANCH  11  13
ENDBRANCH   9  11
ENDBRANCH   1   9
TORSDOF 3
ENDMDL
MODEL 7
REMARK VINA RESULT:      -5.4      2.860      5.615
REMARK  Name = 
REMARK  5 active torsions:
REMARK  status: ('A' for Active; 'I' for Inactive)
REMARK    1  A    between atoms: C_1  and  N_2
REMARK    2  A    between atoms: N_2  and  C_3
REMARK    3  A    between atoms: N_2  and  C_4
REMARK    4  A    between atoms: C_4  and  C_5
REMARK    5  A    between atoms: C_5  and  C_7
REMARK                            x       y       z     vdW  Elec       q    Type
REMARK                         _______ _______ _______ _____ _____    ______ ____
ROOT
ATOM      1  C   UNL     1       3.714   4.920  18.079  0.00  0.00    +0.000 A 
ATOM      2  C   UNL     1       3.703   4.003  17.014  0.00  0.00    +0.000 A 
ATOM      3  C   UNL     1       4.731   3.988  16.070  0.00  0.00    +0.000 A 
ATOM      4  C   UNL     1       5.790   4.891  16.166  0.00  0.00    +0.000 A 
ATOM      5 BR   UNL     1       7.125   4.806  14.821  0.00  0.00    +0.000 Br
ATOM      6  C   UNL     1       5.820   5.812  17.218  0.00  0.00    +0.000 A 
ATOM      7 BR   UNL     1       7.209   7.091  17.435  0.00  0.00    +0.000 Br
ATOM      8  C   UNL     1       4.788   5.821  18.168  0.00  0.00    +0.000 A 
ENDROOT
BRANCH   1   9
ATOM      9  C   UNL     1       2.584   4.987  19.092  0.00  0.00    +0.000 C 
ATOM     10 BR   UNL     1       2.363   6.850  19.664  0.00  0.00    +0.000 Br
BRANCH   9  11
ATOM     11  C   UNL     1       2.831   4.053  20.302  0.00  0.00    +0.000 C 
BRANCH  11  13
ATOM     12  C   UNL     1       1.446   2.610  21.714  0.00  0.00    +0.000 C 
ATOM     13  N   UNL     1       2.022   2.816  20.388  0.00  0.00    +0.000 NA
ATOM     14  C   UNL     1       0.959   2.856  19.378  0.00  0.00    +0.000 C 
ENDBRANCH  11  13
ENDBRANCH   9  11
ENDBRANCH   1   9
TORSDOF 3
ENDMDL
MODEL 8
REMARK VINA RESULT:      -5.4      1.969      2.647
REMARK  Name = 
REMARK  5 active torsions:
REMARK  status: ('A' for Active; 'I' for Inactive)
REMARK    1  A    between atoms: C_1  and  N_2
REMARK    2  A    between atoms: N_2  and  C_3
REMARK    3  A    between atoms: N_2  and  C_4
REMARK    4  A    between atoms: C_4  and  C_5
REMARK    5  A    between atoms: C_5  and  C_7
REMARK                            x       y       z     vdW  Elec       q    Type
REMARK                         _______ _______ _______ _____ _____    ______ ____
ROOT
ATOM      1  C   UNL     1       3.446   5.971  18.762  0.00  0.00    +0.000 A 
ATOM      2  C   UNL     1       2.663   6.257  19.893  0.00  0.00    +0.000 A 
ATOM      3  C   UNL     1       2.107   5.232  20.658  0.00  0.00    +0.000 A 
ATOM      4  C   UNL     1       2.318   3.897  20.310  0.00  0.00    +0.000 A 
ATOM      5 BR   UNL     1       1.502   2.577  21.401  0.00  0.00    +0.000 Br
ATOM      6  C   UNL     1       3.095   3.591  19.188  0.00  0.00    +0.000 A 
ATOM      7 BR   UNL     1       3.436   1.809  18.620  0.00  0.00    +0.000 Br
ATOM      8  C   UNL     1       3.656   4.624  18.424  0.00  0.00    +0.000 A 
ENDROOT
BRANCH   1   9
ATOM      9  C   UNL     1       4.023   7.069  17.886  0.00  0.00    +0.000 C 
ATOM     10 BR   UNL     1       2.655   8.451  17.628  0.00  0.00    +0.000 Br
BRANCH   9  11
ATOM     11  C   UNL     1       4.534   6.525  16.530  0.00  0.00    +0.000 C 
BRANCH  11  13
ATOM     12  C   UNL     1       6.744   7.123  17.402  0.00  0.00    +0.000 C 
ATOM     13  N   UNL     1       5.988   6.613  16.261  0.00  0.00    +0.000 NA
ATOM     14  C   UNL     1       6.494   5.291  15.872  0.00  0.00    +0.000 C 
ENDBRANCH  11  13
ENDBRANCH   9  11
ENDBRANCH   1   9
TORSDOF 3
ENDMDL
MODEL 9
REMARK VINA RESULT:      -5.3      2.551      5.168
REMARK  Name = 
REMARK  5 active torsions:
REMARK  status: ('A' for Active; 'I' for Inactive)
REMARK    1  A    between atoms: C_1  and  N_2
REMARK    2  A    between atoms: N_2  and  C_3
REMARK    3  A    between atoms: N_2  and  C_4
REMARK    4  A    between atoms: C_4  and  C_5
REMARK    5  A    between atoms: C_5  and  C_7
REMARK                            x       y       z     vdW  Elec       q    Type
REMARK                         _______ _______ _______ _____ _____    ______ ____
ROOT
ATOM      1  C   UNL     1       3.608   4.700  19.258  0.00  0.00    +0.000 A 
ATOM      2  C   UNL     1       3.152   3.995  18.132  0.00  0.00    +0.000 A 
ATOM      3  C   UNL     1       3.965   3.835  17.009  0.00  0.00    +0.000 A 
ATOM      4  C   UNL     1       5.250   4.379  16.985  0.00  0.00    +0.000 A 
ATOM      5 BR   UNL     1       6.268   4.126  15.404  0.00  0.00    +0.000 Br
ATOM      6  C   UNL     1       5.722   5.084  18.096  0.00  0.00    +0.000 A 
ATOM      7 BR   UNL     1       7.450   5.873  18.163  0.00  0.00    +0.000 Br
ATOM      8  C   UNL     1       4.904   5.239  19.224  0.00  0.00    +0.000 A 
ENDROOT
BRANCH   1   9
ATOM      9  C   UNL     1       2.725   4.928  20.473  0.00  0.00    +0.000 C 
ATOM     10 BR   UNL     1       1.889   3.225  20.971  0.00  0.00    +0.000 Br
BRANCH   9  11
ATOM     11  C   UNL     1       1.662   6.025  20.223  0.00  0.00    +0.000 C 
BRANCH  11  13
ATOM     12  C   UNL     1       2.115   7.984  18.825  0.00  0.00    +0.000 C 
ATOM     13  N   UNL     1       2.125   7.430  20.177  0.00  0.00    +0.000 NA
ATOM     14  C   UNL     1       1.290   8.250  21.062  0.00  0.00    +0.000 C 
ENDBRANCH  11  13
ENDBRANCH   9  11
ENDBRANCH   1   9
TORSDOF 3
ENDMDL
