MODEL 1
REMARK VINA RESULT:      -8.3      0.000      0.000
REMARK  Name = 
REMARK  6 active torsions:
REMARK  status: ('A' for Active; 'I' for Inactive)
REMARK    1  A    between atoms: C_4  and  C_5
REMARK    2  A    between atoms: C_10  and  C_11
REMARK    3  A    between atoms: C_11  and  O_13
REMARK    4  A    between atoms: C_17  and  C_18
REMARK    5  A    between atoms: C_23  and  C_24
REMARK    6  A    between atoms: C_24  and  O_26
REMARK                            x       y       z     vdW  Elec       q    Type
REMARK                         _______ _______ _______ _____ _____    ______ ____
ROOT
ATOM      1  O   UNL     1       2.563   8.531  17.252  0.00  0.00    +0.000 OA
ATOM      2  C   UNL     1       2.139   8.455  18.388  0.00  0.00    +0.000 C 
ATOM      3  C   UNL     1       1.380   9.495  19.120  0.00  0.00    +0.000 C 
ATOM      4  C   UNL     1       1.180  10.688  18.549  0.00  0.00    +0.000 C 
ATOM      5  C   UNL     1       0.989   8.977  20.469  0.00  0.00    +0.000 C 
ATOM      6  C   UNL     1       1.740   7.652  20.648  0.00  0.00    +0.000 C 
ATOM      7  C   UNL     1       2.257   7.291  19.291  0.00  0.00    +0.000 C 
ATOM      8  C   UNL     1       2.685   6.125  18.791  0.00  0.00    +0.000 C 
ENDROOT
BRANCH   4   9
ATOM      9  C   UNL     1       0.564  11.829  19.230  0.00  0.00    +0.000 A 
ATOM     10  C   UNL     1       1.391  12.451  20.183  0.00  0.00    +0.000 A 
ATOM     11  C   UNL     1       0.945  13.541  20.926  0.00  0.00    +0.000 A 
ATOM     12  C   UNL     1      -0.338  14.032  20.723  0.00  0.00    +0.000 A 
ATOM     13  C   UNL     1      -1.174  13.424  19.786  0.00  0.00    +0.000 A 
ATOM     14  C   UNL     1      -0.742  12.317  19.031  0.00  0.00    +0.000 A 
BRANCH  14  15
ATOM     15  C   UNL     1      -1.765  11.729  18.119  0.00  0.00    +0.000 C 
ATOM     16  O   UNL     1      -2.574  10.902  18.511  0.00  0.00    +0.000 OA
BRANCH  15  17
ATOM     17  O   UNL     1      -1.785  12.203  16.857  0.00  0.00    +0.000 OA
ATOM     18  H   UNL     1      -1.857  13.167  16.770  0.00  0.00    +0.000 HD
ENDBRANCH  15  17
ENDBRANCH  14  15
ENDBRANCH   4   9
BRANCH   8  19
ATOM     19  C   UNL     1       2.635   4.854  19.514  0.00  0.00    +0.000 A 
ATOM     20  C   UNL     1       1.446   4.655  20.244  0.00  0.00    +0.000 A 
ATOM     21  C   UNL     1       1.239   3.495  20.986  0.00  0.00    +0.000 A 
ATOM     22  C   UNL     1       2.215   2.509  21.007  0.00  0.00    +0.000 A 
ATOM     23  C   UNL     1       3.405   2.694  20.300  0.00  0.00    +0.000 A 
ATOM     24  C   UNL     1       3.633   3.865  19.549  0.00  0.00    +0.000 A 
BRANCH  24  25
ATOM     25  C   UNL     1       4.972   3.957  18.901  0.00  0.00    +0.000 C 
ATOM     26  O   UNL     1       5.927   4.463  19.473  0.00  0.00    +0.000 OA
BRANCH  25  27
ATOM     27  O   UNL     1       5.088   3.405  17.679  0.00  0.00    +0.000 OA
ATOM     28  H   UNL     1       4.291   3.439  17.123  0.00  0.00    +0.000 HD
ENDBRANCH  25  27
ENDBRANCH  24  25
ENDBRANCH   8  19
TORSDOF 6
ENDMDL
MODEL 2
REMARK VINA RESULT:      -8.3      2.731      4.231
REMARK  Name = 
REMARK  6 active torsions:
REMARK  status: ('A' for Active; 'I' for Inactive)
REMARK    1  A    between atoms: C_4  and  C_5
REMARK    2  A    between atoms: C_10  and  C_11
REMARK    3  A    between atoms: C_11  and  O_13
REMARK    4  A    between atoms: C_17  and  C_18
REMARK    5  A    between atoms: C_23  and  C_24
REMARK    6  A    between atoms: C_24  and  O_26
REMARK                            x       y       z     vdW  Elec       q    Type
REMARK                         _______ _______ _______ _____ _____    ______ ____
ROOT
ATOM      1  O   UNL     1       2.186   5.532  20.333  0.00  0.00    +0.000 OA
ATOM      2  C   UNL     1       2.463   6.359  19.487  0.00  0.00    +0.000 C 
ATOM      3  C   UNL     1       1.989   7.760  19.431  0.00  0.00    +0.000 C 
ATOM      4  C   UNL     1       1.101   8.191  20.335  0.00  0.00    +0.000 C 
ATOM      5  C   UNL     1       2.617   8.458  18.265  0.00  0.00    +0.000 C 
ATOM      6  C   UNL     1       3.324   7.369  17.450  0.00  0.00    +0.000 C 
ATOM      7  C   UNL     1       3.366   6.162  18.333  0.00  0.00    +0.000 C 
ATOM      8  C   UNL     1       4.124   5.059  18.284  0.00  0.00    +0.000 C 
ENDROOT
BRANCH   4   9
ATOM      9  C   UNL     1       0.465   9.509  20.294  0.00  0.00    +0.000 A 
ATOM     10  C   UNL     1       0.373  10.068  19.006  0.00  0.00    +0.000 A 
ATOM     11  C   UNL     1      -0.194  11.324  18.801  0.00  0.00    +0.000 A 
ATOM     12  C   UNL     1      -0.685  12.041  19.885  0.00  0.00    +0.000 A 
ATOM     13  C   UNL     1      -0.597  11.504  21.170  0.00  0.00    +0.000 A 
ATOM     14  C   UNL     1      -0.021  10.239  21.395  0.00  0.00    +0.000 A 
BRANCH  14  15
ATOM     15  C   UNL     1       0.068   9.825  22.825  0.00  0.00    +0.000 C 
ATOM     16  O   UNL     1       1.143   9.686  23.387  0.00  0.00    +0.000 OA
BRANCH  15  17
ATOM     17  O   UNL     1      -1.102   9.670  23.477  0.00  0.00    +0.000 OA
ATOM     18  H   UNL     1      -1.902   9.823  22.950  0.00  0.00    +0.000 HD
ENDBRANCH  15  17
ENDBRANCH  14  15
ENDBRANCH   4   9
BRANCH   8  19
ATOM     19  C   UNL     1       5.209   4.851  17.326  0.00  0.00    +0.000 A 
ATOM     20  C   UNL     1       4.800   4.267  16.112  0.00  0.00    +0.000 A 
ATOM     21  C   UNL     1       5.712   4.004  15.093  0.00  0.00    +0.000 A 
ATOM     22  C   UNL     1       7.050   4.327  15.267  0.00  0.00    +0.000 A 
ATOM     23  C   UNL     1       7.476   4.895  16.469  0.00  0.00    +0.000 A 
ATOM     24  C   UNL     1       6.568   5.163  17.513  0.00  0.00    +0.000 A 
BRANCH  24  25
ATOM     25  C   UNL     1       7.172   5.707  18.762  0.00  0.00    +0.000 C 
ATOM     26  O   UNL     1       7.012   5.158  19.843  0.00  0.00    +0.000 OA
BRANCH  25  27
ATOM     27  O   UNL     1       7.948   6.798  18.628  0.00  0.00    +0.000 OA
ATOM     28  H   UNL     1       7.481   7.624  18.412  0.00  0.00    +0.000 HD
ENDBRANCH  25  27
ENDBRANCH  24  25
ENDBRANCH   8  19
TORSDOF 6
ENDMDL
MODEL 3
REMARK VINA RESULT:      -8.2      2.559      8.590
REMARK  Name = 
REMARK  6 active torsions:
REMARK  status: ('A' for Active; 'I' for Inactive)
REMARK    1  A    between atoms: C_4  and  C_5
REMARK    2  A    between atoms: C_10  and  C_11
REMARK    3  A    between atoms: C_11  and  O_13
REMARK    4  A    between atoms: C_17  and  C_18
REMARK    5  A    between atoms: C_23  and  C_24
REMARK    6  A    between atoms: C_24  and  O_26
REMARK                            x       y       z     vdW  Elec       q    Type
REMARK                         _______ _______ _______ _____ _____    ______ ____
ROOT
ATOM      1  O   UNL     1       2.204   6.594  20.575  0.00  0.00    +0.000 OA
ATOM      2  C   UNL     1       2.405   7.173  19.527  0.00  0.00    +0.000 C 
ATOM      3  C   UNL     1       3.289   6.728  18.425  0.00  0.00    +0.000 C 
ATOM      4  C   UNL     1       4.025   5.622  18.579  0.00  0.00    +0.000 C 
ATOM      5  C   UNL     1       3.202   7.698  17.287  0.00  0.00    +0.000 C 
ATOM      6  C   UNL     1       2.408   8.899  17.813  0.00  0.00    +0.000 C 
ATOM      7  C   UNL     1       1.786   8.446  19.096  0.00  0.00    +0.000 C 
ATOM      8  C   UNL     1       0.759   8.937  19.801  0.00  0.00    +0.000 C 
ENDROOT
BRANCH   4   9
ATOM      9  C   UNL     1       5.028   5.166  17.615  0.00  0.00    +0.000 A 
ATOM     10  C   UNL     1       4.493   4.551  16.467  0.00  0.00    +0.000 A 
ATOM     11  C   UNL     1       5.318   4.051  15.463  0.00  0.00    +0.000 A 
ATOM     12  C   UNL     1       6.697   4.162  15.587  0.00  0.00    +0.000 A 
ATOM     13  C   UNL     1       7.245   4.765  16.720  0.00  0.00    +0.000 A 
ATOM     14  C   UNL     1       6.426   5.270  17.748  0.00  0.00    +0.000 A 
BRANCH  14  15
ATOM     15  C   UNL     1       7.152   5.822  18.928  0.00  0.00    +0.000 C 
ATOM     16  O   UNL     1       7.048   5.322  20.037  0.00  0.00    +0.000 OA
BRANCH  15  17
ATOM     17  O   UNL     1       7.972   6.866  18.691  0.00  0.00    +0.000 OA
ATOM     18  H   UNL     1       7.624   7.739  18.931  0.00  0.00    +0.000 HD
ENDBRANCH  15  17
ENDBRANCH  14  15
ENDBRANCH   4   9
BRANCH   8  19
ATOM     19  C   UNL     1      -0.078  10.053  19.362  0.00  0.00    +0.000 A 
ATOM     20  C   UNL     1      -0.782   9.807  18.167  0.00  0.00    +0.000 A 
ATOM     21  C   UNL     1      -1.626  10.768  17.615  0.00  0.00    +0.000 A 
ATOM     22  C   UNL     1      -1.786  11.990  18.250  0.00  0.00    +0.000 A 
ATOM     23  C   UNL     1      -1.086  12.257  19.429  0.00  0.00    +0.000 A 
ATOM     24  C   UNL     1      -0.224  11.298  19.999  0.00  0.00    +0.000 A 
BRANCH  24  25
ATOM     25  C   UNL     1       0.509  11.742  21.218  0.00  0.00    +0.000 C 
ATOM     26  O   UNL     1       1.541  12.393  21.144  0.00  0.00    +0.000 OA
BRANCH  25  27
ATOM     27  O   UNL     1      -0.055  11.439  22.402  0.00  0.00    +0.000 OA
ATOM     28  H   UNL     1       0.438  10.810  22.956  0.00  0.00    +0.000 HD
ENDBRANCH  25  27
ENDBRANCH  24  25
ENDBRANCH   8  19
TORSDOF 6
ENDMDL
MODEL 4
REMARK VINA RESULT:      -8.2      2.609      8.373
REMARK  Name = 
REMARK  6 active torsions:
REMARK  status: ('A' for Active; 'I' for Inactive)
REMARK    1  A    between atoms: C_4  and  C_5
REMARK    2  A    between atoms: C_10  and  C_11
REMARK    3  A    between atoms: C_11  and  O_13
REMARK    4  A    between atoms: C_17  and  C_18
REMARK    5  A    between atoms: C_23  and  C_24
REMARK    6  A    between atoms: C_24  and  O_26
REMARK                            x       y       z     vdW  Elec       q    Type
REMARK                         _______ _______ _______ _____ _____    ______ ____
ROOT
ATOM      1  O   UNL     1       1.801   7.204  21.043  0.00  0.00    +0.000 OA
ATOM      2  C   UNL     1       1.843   7.718  19.943  0.00  0.00    +0.000 C 
ATOM      3  C   UNL     1       2.572   7.213  18.757  0.00  0.00    +0.000 C 
ATOM      4  C   UNL     1       3.342   6.125  18.873  0.00  0.00    +0.000 C 
ATOM      5  C   UNL     1       2.310   8.108  17.586  0.00  0.00    +0.000 C 
ATOM      6  C   UNL     1       1.576   9.333  18.144  0.00  0.00    +0.000 C 
ATOM      7  C   UNL     1       1.148   8.955  19.527  0.00  0.00    +0.000 C 
ATOM      8  C   UNL     1       0.221   9.481  20.338  0.00  0.00    +0.000 C 
ENDROOT
BRANCH   4   9
ATOM      9  C   UNL     1       4.209   5.619  17.807  0.00  0.00    +0.000 A 
ATOM     10  C   UNL     1       5.238   6.500  17.428  0.00  0.00    +0.000 A 
ATOM     11  C   UNL     1       6.138   6.171  16.418  0.00  0.00    +0.000 A 
ATOM     12  C   UNL     1       6.026   4.947  15.770  0.00  0.00    +0.000 A 
ATOM     13  C   UNL     1       5.008   4.062  16.129  0.00  0.00    +0.000 A 
ATOM     14  C   UNL     1       4.086   4.383  17.143  0.00  0.00    +0.000 A 
BRANCH  14  15
ATOM     15  C   UNL     1       3.012   3.373  17.371  0.00  0.00    +0.000 C 
ATOM     16  O   UNL     1       1.843   3.609  17.107  0.00  0.00    +0.000 OA
BRANCH  15  17
ATOM     17  O   UNL     1       3.410   2.168  17.828  0.00  0.00    +0.000 OA
ATOM     18  H   UNL     1       4.277   2.147  18.261  0.00  0.00    +0.000 HD
ENDBRANCH  15  17
ENDBRANCH  14  15
ENDBRANCH   4   9
BRANCH   8  19
ATOM     19  C   UNL     1      -0.689  10.559  19.954  0.00  0.00    +0.000 A 
ATOM     20  C   UNL     1      -1.435  10.294  18.789  0.00  0.00    +0.000 A 
ATOM     21  C   UNL     1      -2.349  11.219  18.289  0.00  0.00    +0.000 A 
ATOM     22  C   UNL     1      -2.539  12.424  18.950  0.00  0.00    +0.000 A 
ATOM     23  C   UNL     1      -1.799  12.709  20.100  0.00  0.00    +0.000 A 
ATOM     24  C   UNL     1      -0.866  11.788  20.615  0.00  0.00    +0.000 A 
BRANCH  24  25
ATOM     25  C   UNL     1      -0.101  12.252  21.807  0.00  0.00    +0.000 C 
ATOM     26  O   UNL     1       0.839  13.027  21.703  0.00  0.00    +0.000 OA
BRANCH  25  27
ATOM     27  O   UNL     1      -0.534  11.819  23.005  0.00  0.00    +0.000 OA
ATOM     28  H   UNL     1      -1.126  11.047  22.987  0.00  0.00    +0.000 HD
ENDBRANCH  25  27
ENDBRANCH  24  25
ENDBRANCH   8  19
TORSDOF 6
ENDMDL
MODEL 5
REMARK VINA RESULT:      -8.1      2.908      8.475
REMARK  Name = 
REMARK  6 active torsions:
REMARK  status: ('A' for Active; 'I' for Inactive)
REMARK    1  A    between atoms: C_4  and  C_5
REMARK    2  A    between atoms: C_10  and  C_11
REMARK    3  A    between atoms: C_11  and  O_13
REMARK    4  A    between atoms: C_17  and  C_18
REMARK    5  A    between atoms: C_23  and  C_24
REMARK    6  A    between atoms: C_24  and  O_26
REMARK                            x       y       z     vdW  Elec       q    Type
REMARK                         _______ _______ _______ _____ _____    ______ ____
ROOT
ATOM      1  O   UNL     1       2.602   5.493  20.171  0.00  0.00    +0.000 OA
ATOM      2  C   UNL     1       2.804   6.355  19.339  0.00  0.00    +0.000 C 
ATOM      3  C   UNL     1       3.625   6.228  18.113  0.00  0.00    +0.000 C 
ATOM      4  C   UNL     1       4.298   5.095  17.887  0.00  0.00    +0.000 C 
ATOM      5  C   UNL     1       3.561   7.503  17.330  0.00  0.00    +0.000 C 
ATOM      6  C   UNL     1       2.856   8.521  18.234  0.00  0.00    +0.000 C 
ATOM      7  C   UNL     1       2.249   7.726  19.347  0.00  0.00    +0.000 C 
ATOM      8  C   UNL     1       1.275   8.025  20.216  0.00  0.00    +0.000 C 
ENDROOT
BRANCH   4   9
ATOM      9  C   UNL     1       5.242   4.909  16.783  0.00  0.00    +0.000 A 
ATOM     10  C   UNL     1       4.664   4.397  15.607  0.00  0.00    +0.000 A 
ATOM     11  C   UNL     1       5.433   4.151  14.472  0.00  0.00    +0.000 A 
ATOM     12  C   UNL     1       6.795   4.420  14.493  0.00  0.00    +0.000 A 
ATOM     13  C   UNL     1       7.386   4.924  15.653  0.00  0.00    +0.000 A 
ATOM     14  C   UNL     1       6.625   5.172  16.811  0.00  0.00    +0.000 A 
BRANCH  14  15
ATOM     15  C   UNL     1       7.400   5.643  17.994  0.00  0.00    +0.000 C 
ATOM     16  O   UNL     1       7.861   4.862  18.813  0.00  0.00    +0.000 OA
BRANCH  15  17
ATOM     17  O   UNL     1       7.616   6.971  18.078  0.00  0.00    +0.000 OA
ATOM     18  H   UNL     1       8.545   7.251  18.039  0.00  0.00    +0.000 HD
ENDBRANCH  15  17
ENDBRANCH  14  15
ENDBRANCH   4   9
BRANCH   8  19
ATOM     19  C   UNL     1       0.493   9.261  20.178  0.00  0.00    +0.000 A 
ATOM     20  C   UNL     1       0.283   9.768  18.881  0.00  0.00    +0.000 A 
ATOM     21  C   UNL     1      -0.444  10.937  18.671  0.00  0.00    +0.000 A 
ATOM     22  C   UNL     1      -0.982  11.616  19.755  0.00  0.00    +0.000 A 
ATOM     23  C   UNL     1      -0.775  11.135  21.049  0.00  0.00    +0.000 A 
ATOM     24  C   UNL     1      -0.036   9.957  21.280  0.00  0.00    +0.000 A 
BRANCH  24  25
ATOM     25  C   UNL     1       0.164   9.598  22.713  0.00  0.00    +0.000 C 
ATOM     26  O   UNL     1       1.261   9.678  23.247  0.00  0.00    +0.000 OA
BRANCH  25  27
ATOM     27  O   UNL     1      -0.935   9.238  23.400  0.00  0.00    +0.000 OA
ATOM     28  H   UNL     1      -1.460   8.517  23.011  0.00  0.00    +0.000 HD
ENDBRANCH  25  27
ENDBRANCH  24  25
ENDBRANCH   8  19
TORSDOF 6
ENDMDL
MODEL 6
REMARK VINA RESULT:      -8.1      0.457      8.600
REMARK  Name = 
REMARK  6 active torsions:
REMARK  status: ('A' for Active; 'I' for Inactive)
REMARK    1  A    between atoms: C_4  and  C_5
REMARK    2  A    between atoms: C_10  and  C_11
REMARK    3  A    between atoms: C_11  and  O_13
REMARK    4  A    between atoms: C_17  and  C_18
REMARK    5  A    between atoms: C_23  and  C_24
REMARK    6  A    between atoms: C_24  and  O_26
REMARK                            x       y       z     vdW  Elec       q    Type
REMARK                         _______ _______ _______ _____ _____    ______ ____
ROOT
ATOM      1  O   UNL     1       2.538   8.609  17.117  0.00  0.00    +0.000 OA
ATOM      2  C   UNL     1       2.109   8.551  18.253  0.00  0.00    +0.000 C 
ATOM      3  C   UNL     1       2.194   7.394  19.172  0.00  0.00    +0.000 C 
ATOM      4  C   UNL     1       2.716   6.242  18.735  0.00  0.00    +0.000 C 
ATOM      5  C   UNL     1       1.600   7.759  20.498  0.00  0.00    +0.000 C 
ATOM      6  C   UNL     1       0.923   9.120  20.298  0.00  0.00    +0.000 C 
ATOM      7  C   UNL     1       1.428   9.638  18.989  0.00  0.00    +0.000 C 
ATOM      8  C   UNL     1       1.441  10.875  18.474  0.00  0.00    +0.000 C 
ENDROOT
BRANCH   4   9
ATOM      9  C   UNL     1       2.727   5.001  19.511  0.00  0.00    +0.000 A 
ATOM     10  C   UNL     1       1.560   4.779  20.265  0.00  0.00    +0.000 A 
ATOM     11  C   UNL     1       1.422   3.650  21.068  0.00  0.00    +0.000 A 
ATOM     12  C   UNL     1       2.449   2.717  21.125  0.00  0.00    +0.000 A 
ATOM     13  C   UNL     1       3.616   2.923  20.387  0.00  0.00    +0.000 A 
ATOM     14  C   UNL     1       3.775   4.063  19.576  0.00  0.00    +0.000 A 
BRANCH  14  15
ATOM     15  C   UNL     1       5.099   4.185  18.901  0.00  0.00    +0.000 C 
ATOM     16  O   UNL     1       6.048   4.731  19.443  0.00  0.00    +0.000 OA
BRANCH  15  17
ATOM     17  O   UNL     1       5.208   3.609  17.687  0.00  0.00    +0.000 OA
ATOM     18  H   UNL     1       5.533   2.696  17.681  0.00  0.00    +0.000 HD
ENDBRANCH  15  17
ENDBRANCH  14  15
ENDBRANCH   4   9
BRANCH   8  19
ATOM     19  C   UNL     1       1.007  12.069  19.199  0.00  0.00    +0.000 A 
ATOM     20  C   UNL     1       2.008  12.650  20.001  0.00  0.00    +0.000 A 
ATOM     21  C   UNL     1       1.758  13.794  20.753  0.00  0.00    +0.000 A 
ATOM     22  C   UNL     1       0.502  14.383  20.713  0.00  0.00    +0.000 A 
ATOM     23  C   UNL     1      -0.507  13.814  19.933  0.00  0.00    +0.000 A 
ATOM     24  C   UNL     1      -0.273  12.653  19.170  0.00  0.00    +0.000 A 
BRANCH  24  25
ATOM     25  C   UNL     1      -1.457  12.118  18.440  0.00  0.00    +0.000 C 
ATOM     26  O   UNL     1      -2.344  11.507  19.019  0.00  0.00    +0.000 OA
BRANCH  25  27
ATOM     27  O   UNL     1      -1.526  12.392  17.124  0.00  0.00    +0.000 OA
ATOM     28  H   UNL     1      -0.674  12.428  16.655  0.00  0.00    +0.000 HD
ENDBRANCH  25  27
ENDBRANCH  24  25
ENDBRANCH   8  19
TORSDOF 6
ENDMDL
MODEL 7
REMARK VINA RESULT:      -8.0      2.058      2.508
REMARK  Name = 
REMARK  6 active torsions:
REMARK  status: ('A' for Active; 'I' for Inactive)
REMARK    1  A    between atoms: C_4  and  C_5
REMARK    2  A    between atoms: C_10  and  C_11
REMARK    3  A    between atoms: C_11  and  O_13
REMARK    4  A    between atoms: C_17  and  C_18
REMARK    5  A    between atoms: C_23  and  C_24
REMARK    6  A    between atoms: C_24  and  O_26
REMARK                            x       y       z     vdW  Elec       q    Type
REMARK                         _______ _______ _______ _____ _____    ______ ____
ROOT
ATOM      1  O   UNL     1       2.394   8.936  17.267  0.00  0.00    +0.000 OA
ATOM      2  C   UNL     1       2.088   8.501  18.359  0.00  0.00    +0.000 C 
ATOM      3  C   UNL     1       1.380   9.230  19.436  0.00  0.00    +0.000 C 
ATOM      4  C   UNL     1       1.093  10.527  19.274  0.00  0.00    +0.000 C 
ATOM      5  C   UNL     1       1.141   8.311  20.594  0.00  0.00    +0.000 C 
ATOM      6  C   UNL     1       1.939   7.037  20.295  0.00  0.00    +0.000 C 
ATOM      7  C   UNL     1       2.327   7.127  18.853  0.00  0.00    +0.000 C 
ATOM      8  C   UNL     1       2.731   6.189  17.987  0.00  0.00    +0.000 C 
ENDROOT
BRANCH   4   9
ATOM      9  C   UNL     1       0.520  11.376  20.320  0.00  0.00    +0.000 A 
ATOM     10  C   UNL     1      -0.669  10.878  20.884  0.00  0.00    +0.000 A 
ATOM     11  C   UNL     1      -1.345  11.577  21.881  0.00  0.00    +0.000 A 
ATOM     12  C   UNL     1      -0.837  12.786  22.338  0.00  0.00    +0.000 A 
ATOM     13  C   UNL     1       0.340  13.297  21.787  0.00  0.00    +0.000 A 
ATOM     14  C   UNL     1       1.031  12.607  20.773  0.00  0.00    +0.000 A 
BRANCH  14  15
ATOM     15  C   UNL     1       2.233  13.305  20.232  0.00  0.00    +0.000 C 
ATOM     16  O   UNL     1       2.267  13.732  19.088  0.00  0.00    +0.000 OA
BRANCH  15  17
ATOM     17  O   UNL     1       3.254  13.493  21.092  0.00  0.00    +0.000 OA
ATOM     18  H   UNL     1       3.533  14.413  21.221  0.00  0.00    +0.000 HD
ENDBRANCH  15  17
ENDBRANCH  14  15
ENDBRANCH   4   9
BRANCH   8  19
ATOM     19  C   UNL     1       2.786   4.760  18.292  0.00  0.00    +0.000 A 
ATOM     20  C   UNL     1       1.548   4.100  18.176  0.00  0.00    +0.000 A 
ATOM     21  C   UNL     1       1.429   2.736  18.431  0.00  0.00    +0.000 A 
ATOM     22  C   UNL     1       2.549   2.005  18.800  0.00  0.00    +0.000 A 
ATOM     23  C   UNL     1       3.783   2.645  18.933  0.00  0.00    +0.000 A 
ATOM     24  C   UNL     1       3.920   4.026  18.685  0.00  0.00    +0.000 A 
BRANCH  24  25
ATOM     25  C   UNL     1       5.278   4.588  18.930  0.00  0.00    +0.000 C 
ATOM     26  O   UNL     1       5.455   5.526  19.695  0.00  0.00    +0.000 OA
BRANCH  25  27
ATOM     27  O   UNL     1       6.303   3.974  18.313  0.00  0.00    +0.000 OA
ATOM     28  H   UNL     1       6.747   4.488  17.616  0.00  0.00    +0.000 HD
ENDBRANCH  25  27
ENDBRANCH  24  25
ENDBRANCH   8  19
TORSDOF 6
ENDMDL
MODEL 8
REMARK VINA RESULT:      -8.0      2.093      2.912
REMARK  Name = 
REMARK  6 active torsions:
REMARK  status: ('A' for Active; 'I' for Inactive)
REMARK    1  A    between atoms: C_4  and  C_5
REMARK    2  A    between atoms: C_10  and  C_11
REMARK    3  A    between atoms: C_11  and  O_13
REMARK    4  A    between atoms: C_17  and  C_18
REMARK    5  A    between atoms: C_23  and  C_24
REMARK    6  A    between atoms: C_24  and  O_26
REMARK                            x       y       z     vdW  Elec       q    Type
REMARK                         _______ _______ _______ _____ _____    ______ ____
ROOT
ATOM      1  O   UNL     1       1.401   7.550  20.931  0.00  0.00    +0.000 OA
ATOM      2  C   UNL     1       1.714   8.002  19.848  0.00  0.00    +0.000 C 
ATOM      3  C   UNL     1       1.486   9.384  19.366  0.00  0.00    +0.000 C 
ATOM      4  C   UNL     1       0.800  10.242  20.130  0.00  0.00    +0.000 C 
ATOM      5  C   UNL     1       2.081   9.546  18.001  0.00  0.00    +0.000 C 
ATOM      6  C   UNL     1       2.486   8.139  17.546  0.00  0.00    +0.000 C 
ATOM      7  C   UNL     1       2.425   7.281  18.770  0.00  0.00    +0.000 C 
ATOM      8  C   UNL     1       2.969   6.088  19.039  0.00  0.00    +0.000 C 
ENDROOT
BRANCH   4   9
ATOM      9  C   UNL     1       0.402  11.583  19.699  0.00  0.00    +0.000 A 
ATOM     10  C   UNL     1       1.158  12.625  20.269  0.00  0.00    +0.000 A 
ATOM     11  C   UNL     1       0.892  13.959  19.970  0.00  0.00    +0.000 A 
ATOM     12  C   UNL     1      -0.134  14.274  19.089  0.00  0.00    +0.000 A 
ATOM     13  C   UNL     1      -0.898  13.255  18.518  0.00  0.00    +0.000 A 
ATOM     14  C   UNL     1      -0.647  11.902  18.814  0.00  0.00    +0.000 A 
BRANCH  14  15
ATOM     15  C   UNL     1      -1.585  10.927  18.187  0.00  0.00    +0.000 C 
ATOM     16  O   UNL     1      -2.748  10.832  18.547  0.00  0.00    +0.000 OA
BRANCH  15  17
ATOM     17  O   UNL     1      -1.096  10.201  17.161  0.00  0.00    +0.000 OA
ATOM     18  H   UNL     1      -1.163   9.238  17.256  0.00  0.00    +0.000 HD
ENDBRANCH  15  17
ENDBRANCH  14  15
ENDBRANCH   4   9
BRANCH   8  19
ATOM     19  C   UNL     1       3.879   5.380  18.140  0.00  0.00    +0.000 A 
ATOM     20  C   UNL     1       5.111   6.034  17.938  0.00  0.00    +0.000 A 
ATOM     21  C   UNL     1       6.090   5.490  17.111  0.00  0.00    +0.000 A 
ATOM     22  C   UNL     1       5.859   4.279  16.475  0.00  0.00    +0.000 A 
ATOM     23  C   UNL     1       4.640   3.622  16.653  0.00  0.00    +0.000 A 
ATOM     24  C   UNL     1       3.635   4.161  17.482  0.00  0.00    +0.000 A 
BRANCH  24  25
ATOM     25  C   UNL     1       2.361   3.389  17.527  0.00  0.00    +0.000 C 
ATOM     26  O   UNL     1       2.343   2.197  17.798  0.00  0.00    +0.000 OA
BRANCH  25  27
ATOM     27  O   UNL     1       1.230   4.083  17.309  0.00  0.00    +0.000 OA
ATOM     28  H   UNL     1       0.400   3.605  17.483  0.00  0.00    +0.000 HD
ENDBRANCH  25  27
ENDBRANCH  24  25
ENDBRANCH   8  19
TORSDOF 6
ENDMDL
MODEL 9
REMARK VINA RESULT:      -7.9      2.062      8.315
REMARK  Name = 
REMARK  6 active torsions:
REMARK  status: ('A' for Active; 'I' for Inactive)
REMARK    1  A    between atoms: C_4  and  C_5
REMARK    2  A    between atoms: C_10  and  C_11
REMARK    3  A    between atoms: C_11  and  O_13
REMARK    4  A    between atoms: C_17  and  C_18
REMARK    5  A    between atoms: C_23  and  C_24
REMARK    6  A    between atoms: C_24  and  O_26
REMARK                            x       y       z     vdW  Elec       q    Type
REMARK                         _______ _______ _______ _____ _____    ______ ____
ROOT
ATOM      1  O   UNL     1       1.454   7.033  20.802  0.00  0.00    +0.000 OA
ATOM      2  C   UNL     1       1.699   7.724  19.833  0.00  0.00    +0.000 C 
ATOM      3  C   UNL     1       2.484   7.329  18.641  0.00  0.00    +0.000 C 
ATOM      4  C   UNL     1       3.071   6.127  18.608  0.00  0.00    +0.000 C 
ATOM      5  C   UNL     1       2.494   8.452  17.650  0.00  0.00    +0.000 C 
ATOM      6  C   UNL     1       1.881   9.658  18.371  0.00  0.00    +0.000 C 
ATOM      7  C   UNL     1       1.243   9.112  19.609  0.00  0.00    +0.000 C 
ATOM      8  C   UNL     1       0.311   9.626  20.422  0.00  0.00    +0.000 C 
ENDROOT
BRANCH   4   9
ATOM      9  C   UNL     1       3.976   5.688  17.544  0.00  0.00    +0.000 A 
ATOM     10  C   UNL     1       4.753   6.717  16.981  0.00  0.00    +0.000 A 
ATOM     11  C   UNL     1       5.652   6.463  15.948  0.00  0.00    +0.000 A 
ATOM     12  C   UNL     1       5.794   5.169  15.464  0.00  0.00    +0.000 A 
ATOM     13  C   UNL     1       5.028   4.136  16.007  0.00  0.00    +0.000 A 
ATOM     14  C   UNL     1       4.110   4.377  17.047  0.00  0.00    +0.000 A 
BRANCH  14  15
ATOM     15  C   UNL     1       3.312   3.194  17.480  0.00  0.00    +0.000 C 
ATOM     16  O   UNL     1       2.146   3.049  17.146  0.00  0.00    +0.000 OA
BRANCH  15  17
ATOM     17  O   UNL     1       3.965   2.266  18.208  0.00  0.00    +0.000 OA
ATOM     18  H   UNL     1       3.412   1.570  18.598  0.00  0.00    +0.000 HD
ENDBRANCH  15  17
ENDBRANCH  14  15
ENDBRANCH   4   9
BRANCH   8  19
ATOM     19  C   UNL     1      -0.383  10.890  20.179  0.00  0.00    +0.000 A 
ATOM     20  C   UNL     1      -0.061  11.909  21.097  0.00  0.00    +0.000 A 
ATOM     21  C   UNL     1      -0.635  13.174  21.003  0.00  0.00    +0.000 A 
ATOM     22  C   UNL     1      -1.537  13.447  19.985  0.00  0.00    +0.000 A 
ATOM     23  C   UNL     1      -1.878  12.446  19.073  0.00  0.00    +0.000 A 
ATOM     24  C   UNL     1      -1.312  11.158  19.156  0.00  0.00    +0.000 A 
BRANCH  24  25
ATOM     25  C   UNL     1      -1.817  10.171  18.160  0.00  0.00    +0.000 C 
ATOM     26  O   UNL     1      -2.885   9.596  18.313  0.00  0.00    +0.000 OA
BRANCH  25  27
ATOM     27  O   UNL     1      -1.065   9.991  17.059  0.00  0.00    +0.000 OA
ATOM     28  H   UNL     1      -1.532  10.078  16.210  0.00  0.00    +0.000 HD
ENDBRANCH  25  27
ENDBRANCH  24  25
ENDBRANCH   8  19
TORSDOF 6
ENDMDL
