MODEL 1
REMARK VINA RESULT:      -6.8      0.000      0.000
REMARK  Name = 
REMARK  4 active torsions:
REMARK  status: ('A' for Active; 'I' for Inactive)
REMARK    1  A    between atoms: C_1  and  C_2
REMARK    2  A    between atoms: C_2  and  C_3
REMARK    3  A    between atoms: C_2  and  N_4
REMARK    4  A    between atoms: C_6  and  C_7
REMARK                            x       y       z     vdW  Elec       q    Type
REMARK                         _______ _______ _______ _____ _____    ______ ____
ROOT
ATOM      1  C   UNL     1       3.896   6.035  17.599  0.00  0.00    +0.000 A 
ATOM      2  C   UNL     1       4.776   7.072  17.859  0.00  0.00    +0.000 A 
ATOM      3  C   UNL     1       5.969   7.055  17.196  0.00  0.00    +0.000 A 
ATOM      4  N   UNL     1       6.292   6.100  16.320  0.00  0.00    +0.000 NA
ATOM      5  C   UNL     1       5.394   5.139  16.070  0.00  0.00    +0.000 A 
ATOM      6  N   UNL     1       5.629   4.184  15.085  0.00  0.00    +0.000 N 
ATOM      7  C   UNL     1       6.456   4.382  14.035  0.00  0.00    +0.000 A 
ATOM      8  N   UNL     1       7.450   5.242  13.959  0.00  0.00    +0.000 NA
ATOM      9  C   UNL     1       8.000   5.264  12.700  0.00  0.00    +0.000 A 
ATOM     10  C   UNL     1       7.454   4.376  11.807  0.00  0.00    +0.000 A 
ATOM     11  S   UNL     1       6.219   3.472  12.578  0.00  0.00    +0.000 S 
ATOM     12  N   UNL     1       4.208   5.062  16.705  0.00  0.00    +0.000 NA
ATOM     13  H   UNL     1       4.813   3.604  14.973  0.00  0.00    +0.000 HD
ENDROOT
BRANCH   1  16
ATOM     14  N   UNL     1       2.382   4.134  19.402  0.00  0.00    +0.000 NA
ATOM     15  C   UNL     1       1.707   4.540  18.137  0.00  0.00    +0.000 C 
ATOM     16  C   UNL     1       2.461   5.900  18.256  0.00  0.00    +0.000 C 
ATOM     17  C   UNL     1       2.401   5.580  19.778  0.00  0.00    +0.000 C 
BRANCH  14  19
ATOM     18  C   UNL     1       1.107   2.039  19.606  0.00  0.00    +0.000 C 
ATOM     19  C   UNL     1       1.516   3.350  20.289  0.00  0.00    +0.000 C 
ATOM     20  C   UNL     1       2.298   3.011  21.563  0.00  0.00    +0.000 C 
ENDBRANCH  14  19
ENDBRANCH   1  16
TORSDOF 2
ENDMDL
MODEL 2
REMARK VINA RESULT:      -6.7      3.888      5.444
REMARK  Name = 
REMARK  4 active torsions:
REMARK  status: ('A' for Active; 'I' for Inactive)
REMARK    1  A    between atoms: C_1  and  C_2
REMARK    2  A    between atoms: C_2  and  C_3
REMARK    3  A    between atoms: C_2  and  N_4
REMARK    4  A    between atoms: C_6  and  C_7
REMARK                            x       y       z     vdW  Elec       q    Type
REMARK                         _______ _______ _______ _____ _____    ______ ____
ROOT
ATOM      1  C   UNL     1       6.207   6.063  17.452  0.00  0.00    +0.000 A 
ATOM      2  C   UNL     1       6.784   5.407  18.526  0.00  0.00    +0.000 A 
ATOM      3  C   UNL     1       7.839   6.023  19.137  0.00  0.00    +0.000 A 
ATOM      4  N   UNL     1       8.304   7.212  18.744  0.00  0.00    +0.000 NA
ATOM      5  C   UNL     1       7.690   7.828  17.726  0.00  0.00    +0.000 A 
ATOM      6  N   UNL     1       8.058   9.116  17.347  0.00  0.00    +0.000 N 
ATOM      7  C   UNL     1       8.654   9.997  18.180  0.00  0.00    +0.000 A 
ATOM      8  N   UNL     1       9.346   9.721  19.265  0.00  0.00    +0.000 NA
ATOM      9  C   UNL     1       9.703  10.864  19.939  0.00  0.00    +0.000 A 
ATOM     10  C   UNL     1       9.320  12.039  19.341  0.00  0.00    +0.000 A 
ATOM     11  S   UNL     1       8.500  11.697  17.875  0.00  0.00    +0.000 S 
ATOM     12  N   UNL     1       6.665   7.276  17.047  0.00  0.00    +0.000 NA
ATOM     13  H   UNL     1       7.431   9.452  16.633  0.00  0.00    +0.000 HD
ENDROOT
BRANCH   1  16
ATOM     14  N   UNL     1       3.994   4.023  17.765  0.00  0.00    +0.000 NA
ATOM     15  C   UNL     1       4.780   3.972  16.500  0.00  0.00    +0.000 C 
ATOM     16  C   UNL     1       4.964   5.514  16.637  0.00  0.00    +0.000 C 
ATOM     17  C   UNL     1       3.606   5.416  17.390  0.00  0.00    +0.000 C 
BRANCH  14  19
ATOM     18  C   UNL     1       3.276   1.709  18.197  0.00  0.00    +0.000 C 
ATOM     19  C   UNL     1       2.842   3.114  17.762  0.00  0.00    +0.000 C 
ATOM     20  C   UNL     1       1.805   3.636  18.764  0.00  0.00    +0.000 C 
ENDBRANCH  14  19
ENDBRANCH   1  16
TORSDOF 2
ENDMDL
MODEL 3
REMARK VINA RESULT:      -6.1      5.373      7.733
REMARK  Name = 
REMARK  4 active torsions:
REMARK  status: ('A' for Active; 'I' for Inactive)
REMARK    1  A    between atoms: C_1  and  C_2
REMARK    2  A    between atoms: C_2  and  C_3
REMARK    3  A    between atoms: C_2  and  N_4
REMARK    4  A    between atoms: C_6  and  C_7
REMARK                            x       y       z     vdW  Elec       q    Type
REMARK                         _______ _______ _______ _____ _____    ______ ____
ROOT
ATOM      1  C   UNL     1       1.186   9.361  19.282  0.00  0.00    +0.000 A 
ATOM      2  C   UNL     1       1.708   9.317  18.001  0.00  0.00    +0.000 A 
ATOM      3  C   UNL     1       2.484   8.240  17.682  0.00  0.00    +0.000 A 
ATOM      4  N   UNL     1       2.733   7.251  18.545  0.00  0.00    +0.000 NA
ATOM      5  C   UNL     1       2.175   7.316  19.760  0.00  0.00    +0.000 A 
ATOM      6  N   UNL     1       2.306   6.263  20.661  0.00  0.00    +0.000 N 
ATOM      7  C   UNL     1       2.545   4.987  20.288  0.00  0.00    +0.000 A 
ATOM      8  N   UNL     1       3.092   4.579  19.162  0.00  0.00    +0.000 NA
ATOM      9  C   UNL     1       3.069   3.209  19.059  0.00  0.00    +0.000 A 
ATOM     10  C   UNL     1       2.540   2.550  20.141  0.00  0.00    +0.000 A 
ATOM     11  S   UNL     1       2.072   3.688  21.334  0.00  0.00    +0.000 S 
ATOM     12  N   UNL     1       1.425   8.359  20.168  0.00  0.00    +0.000 NA
ATOM     13  H   UNL     1       1.748   6.445  21.480  0.00  0.00    +0.000 HD
ENDROOT
BRANCH   1  16
ATOM     14  N   UNL     1       1.300  12.344  19.778  0.00  0.00    +0.000 NA
ATOM     15  C   UNL     1       0.810  11.495  20.901  0.00  0.00    +0.000 C 
ATOM     16  C   UNL     1       0.249  10.518  19.822  0.00  0.00    +0.000 C 
ATOM     17  C   UNL     1       0.158  11.818  18.970  0.00  0.00    +0.000 C 
BRANCH  14  19
ATOM     18  C   UNL     1       2.113  14.200  21.174  0.00  0.00    +0.000 C 
ATOM     19  C   UNL     1       1.165  13.781  20.044  0.00  0.00    +0.000 C 
ATOM     20  C   UNL     1       1.548  14.551  18.775  0.00  0.00    +0.000 C 
ENDBRANCH  14  19
ENDBRANCH   1  16
TORSDOF 2
ENDMDL
MODEL 4
REMARK VINA RESULT:      -6.1      5.528      8.053
REMARK  Name = 
REMARK  4 active torsions:
REMARK  status: ('A' for Active; 'I' for Inactive)
REMARK    1  A    between atoms: C_1  and  C_2
REMARK    2  A    between atoms: C_2  and  C_3
REMARK    3  A    between atoms: C_2  and  N_4
REMARK    4  A    between atoms: C_6  and  C_7
REMARK                            x       y       z     vdW  Elec       q    Type
REMARK                         _______ _______ _______ _____ _____    ______ ____
ROOT
ATOM      1  C   UNL     1       2.424   7.521  19.128  0.00  0.00    +0.000 A 
ATOM      2  C   UNL     1       2.617   8.302  18.003  0.00  0.00    +0.000 A 
ATOM      3  C   UNL     1       1.844   9.421  17.883  0.00  0.00    +0.000 A 
ATOM      4  N   UNL     1       0.945   9.777  18.805  0.00  0.00    +0.000 NA
ATOM      5  C   UNL     1       0.821   9.012  19.897  0.00  0.00    +0.000 A 
ATOM      6  N   UNL     1      -0.018   9.393  20.941  0.00  0.00    +0.000 N 
ATOM      7  C   UNL     1      -0.374  10.673  21.183  0.00  0.00    +0.000 A 
ATOM      8  N   UNL     1      -0.377  11.672  20.325  0.00  0.00    +0.000 NA
ATOM      9  C   UNL     1      -0.676  12.863  20.941  0.00  0.00    +0.000 A 
ATOM     10  C   UNL     1      -0.953  12.775  22.283  0.00  0.00    +0.000 A 
ATOM     11  S   UNL     1      -0.851  11.138  22.784  0.00  0.00    +0.000 S 
ATOM     12  N   UNL     1       1.519   7.874  20.077  0.00  0.00    +0.000 NA
ATOM     13  H   UNL     1       0.086   8.752  21.711  0.00  0.00    +0.000 HD
ENDROOT
BRANCH   1  16
ATOM     14  N   UNL     1       2.110   4.522  18.865  0.00  0.00    +0.000 NA
ATOM     15  C   UNL     1       2.525   5.039  20.200  0.00  0.00    +0.000 C 
ATOM     16  C   UNL     1       3.242   6.202  19.447  0.00  0.00    +0.000 C 
ATOM     17  C   UNL     1       3.353   5.141  18.313  0.00  0.00    +0.000 C 
BRANCH  14  19
ATOM     18  C   UNL     1       0.748   2.481  19.040  0.00  0.00    +0.000 C 
ATOM     19  C   UNL     1       2.144   3.058  18.781  0.00  0.00    +0.000 C 
ATOM     20  C   UNL     1       2.582   2.660  17.367  0.00  0.00    +0.000 C 
ENDBRANCH  14  19
ENDBRANCH   1  16
TORSDOF 2
ENDMDL
MODEL 5
REMARK VINA RESULT:      -6.0      5.414      7.749
REMARK  Name = 
REMARK  4 active torsions:
REMARK  status: ('A' for Active; 'I' for Inactive)
REMARK    1  A    between atoms: C_1  and  C_2
REMARK    2  A    between atoms: C_2  and  C_3
REMARK    3  A    between atoms: C_2  and  N_4
REMARK    4  A    between atoms: C_6  and  C_7
REMARK                            x       y       z     vdW  Elec       q    Type
REMARK                         _______ _______ _______ _____ _____    ______ ____
ROOT
ATOM      1  C   UNL     1       1.940   7.949  19.227  0.00  0.00    +0.000 A 
ATOM      2  C   UNL     1       1.703   8.242  20.559  0.00  0.00    +0.000 A 
ATOM      3  C   UNL     1       0.822   9.250  20.826  0.00  0.00    +0.000 A 
ATOM      4  N   UNL     1       0.192   9.930  19.864  0.00  0.00    +0.000 NA
ATOM      5  C   UNL     1       0.422   9.585  18.591  0.00  0.00    +0.000 A 
ATOM      6  N   UNL     1      -0.289  10.181  17.553  0.00  0.00    +0.000 N 
ATOM      7  C   UNL     1      -1.509  10.739  17.708  0.00  0.00    +0.000 A 
ATOM      8  N   UNL     1      -2.038  11.194  18.824  0.00  0.00    +0.000 NA
ATOM      9  C   UNL     1      -3.344  11.580  18.642  0.00  0.00    +0.000 A 
ATOM     10  C   UNL     1      -3.814  11.465  17.357  0.00  0.00    +0.000 A 
ATOM     11  S   UNL     1      -2.569  10.868  16.341  0.00  0.00    +0.000 S 
ATOM     12  N   UNL     1       1.301   8.626  18.238  0.00  0.00    +0.000 NA
ATOM     13  H   UNL     1      -0.053   9.735  16.680  0.00  0.00    +0.000 HD
ENDROOT
BRANCH   1  16
ATOM     14  N   UNL     1       2.144   4.931  19.325  0.00  0.00    +0.000 NA
ATOM     15  C   UNL     1       3.352   5.699  19.740  0.00  0.00    +0.000 C 
ATOM     16  C   UNL     1       2.910   6.800  18.728  0.00  0.00    +0.000 C 
ATOM     17  C   UNL     1       2.264   5.592  17.990  0.00  0.00    +0.000 C 
BRANCH  14  19
ATOM     18  C   UNL     1       2.548   2.896  20.649  0.00  0.00    +0.000 C 
ATOM     19  C   UNL     1       2.383   3.486  19.242  0.00  0.00    +0.000 C 
ATOM     20  C   UNL     1       1.170   2.826  18.576  0.00  0.00    +0.000 C 
ENDBRANCH  14  19
ENDBRANCH   1  16
TORSDOF 2
ENDMDL
MODEL 6
REMARK VINA RESULT:      -6.0      4.870      6.842
REMARK  Name = 
REMARK  4 active torsions:
REMARK  status: ('A' for Active; 'I' for Inactive)
REMARK    1  A    between atoms: C_1  and  C_2
REMARK    2  A    between atoms: C_2  and  C_3
REMARK    3  A    between atoms: C_2  and  N_4
REMARK    4  A    between atoms: C_6  and  C_7
REMARK                            x       y       z     vdW  Elec       q    Type
REMARK                         _______ _______ _______ _____ _____    ______ ____
ROOT
ATOM      1  C   UNL     1       1.651   8.702  19.462  0.00  0.00    +0.000 A 
ATOM      2  C   UNL     1       2.038   8.911  18.150  0.00  0.00    +0.000 A 
ATOM      3  C   UNL     1       2.818   7.951  17.571  0.00  0.00    +0.000 A 
ATOM      4  N   UNL     1       3.194   6.843  18.217  0.00  0.00    +0.000 NA
ATOM      5  C   UNL     1       2.763   6.665  19.472  0.00  0.00    +0.000 A 
ATOM      6  N   UNL     1       3.028   5.481  20.154  0.00  0.00    +0.000 N 
ATOM      7  C   UNL     1       3.277   4.305  19.538  0.00  0.00    +0.000 A 
ATOM      8  N   UNL     1       3.719   4.129  18.310  0.00  0.00    +0.000 NA
ATOM      9  C   UNL     1       3.739   2.799  17.968  0.00  0.00    +0.000 A 
ATOM     10  C   UNL     1       3.352   1.933  18.960  0.00  0.00    +0.000 A 
ATOM     11  S   UNL     1       2.966   2.819  20.376  0.00  0.00    +0.000 S 
ATOM     12  N   UNL     1       2.019   7.577  20.129  0.00  0.00    +0.000 NA
ATOM     13  H   UNL     1       2.552   5.486  21.042  0.00  0.00    +0.000 HD
ENDROOT
BRANCH   1  16
ATOM     14  N   UNL     1      -0.129  11.101  18.976  0.00  0.00    +0.000 NA
ATOM     15  C   UNL     1       0.888  11.228  20.058  0.00  0.00    +0.000 C 
ATOM     16  C   UNL     1       0.731   9.693  20.287  0.00  0.00    +0.000 C 
ATOM     17  C   UNL     1      -0.704   9.953  19.742  0.00  0.00    +0.000 C 
BRANCH  14  19
ATOM     18  C   UNL     1      -0.340  13.472  18.353  0.00  0.00    +0.000 C 
ATOM     19  C   UNL     1      -1.054  12.239  18.920  0.00  0.00    +0.000 C 
ATOM     20  C   UNL     1      -2.217  11.878  17.989  0.00  0.00    +0.000 C 
ENDBRANCH  14  19
ENDBRANCH   1  16
TORSDOF 2
ENDMDL
MODEL 7
REMARK VINA RESULT:      -6.0      5.478      7.548
REMARK  Name = 
REMARK  4 active torsions:
REMARK  status: ('A' for Active; 'I' for Inactive)
REMARK    1  A    between atoms: C_1  and  C_2
REMARK    2  A    between atoms: C_2  and  C_3
REMARK    3  A    between atoms: C_2  and  N_4
REMARK    4  A    between atoms: C_6  and  C_7
REMARK                            x       y       z     vdW  Elec       q    Type
REMARK                         _______ _______ _______ _____ _____    ______ ____
ROOT
ATOM      1  C   UNL     1       2.240   7.266  19.466  0.00  0.00    +0.000 A 
ATOM      2  C   UNL     1       2.699   7.558  18.194  0.00  0.00    +0.000 A 
ATOM      3  C   UNL     1       2.310   8.748  17.651  0.00  0.00    +0.000 A 
ATOM      4  N   UNL     1       1.533   9.617  18.303  0.00  0.00    +0.000 NA
ATOM      5  C   UNL     1       1.144   9.310  19.547  0.00  0.00    +0.000 A 
ATOM      6  N   UNL     1       0.429  10.224  20.316  0.00  0.00    +0.000 N 
ATOM      7  C   UNL     1       0.474  11.560  20.120  0.00  0.00    +0.000 A 
ATOM      8  N   UNL     1       0.804  12.189  19.013  0.00  0.00    +0.000 NA
ATOM      9  C   UNL     1       0.863  13.549  19.205  0.00  0.00    +0.000 A 
ATOM     10  C   UNL     1       0.529  13.976  20.466  0.00  0.00    +0.000 A 
ATOM     11  S   UNL     1       0.109  12.628  21.437  0.00  0.00    +0.000 S 
ATOM     12  N   UNL     1       1.454   8.142  20.144  0.00  0.00    +0.000 NA
ATOM     13  H   UNL     1       0.306   9.861  21.248  0.00  0.00    +0.000 HD
ENDROOT
BRANCH   1  16
ATOM     14  N   UNL     1       2.098   4.265  19.096  0.00  0.00    +0.000 NA
ATOM     15  C   UNL     1       1.537   4.812  20.363  0.00  0.00    +0.000 C 
ATOM     16  C   UNL     1       2.604   5.945  20.263  0.00  0.00    +0.000 C 
ATOM     17  C   UNL     1       3.411   4.853  19.501  0.00  0.00    +0.000 C 
BRANCH  14  19
ATOM     18  C   UNL     1       0.725   2.232  18.905  0.00  0.00    +0.000 C 
ATOM     19  C   UNL     1       2.140   2.799  19.072  0.00  0.00    +0.000 C 
ATOM     20  C   UNL     1       2.988   2.353  17.875  0.00  0.00    +0.000 C 
ENDBRANCH  14  19
ENDBRANCH   1  16
TORSDOF 2
ENDMDL
MODEL 8
REMARK VINA RESULT:      -6.0      5.053      7.066
REMARK  Name = 
REMARK  4 active torsions:
REMARK  status: ('A' for Active; 'I' for Inactive)
REMARK    1  A    between atoms: C_1  and  C_2
REMARK    2  A    between atoms: C_2  and  C_3
REMARK    3  A    between atoms: C_2  and  N_4
REMARK    4  A    between atoms: C_6  and  C_7
REMARK                            x       y       z     vdW  Elec       q    Type
REMARK                         _______ _______ _______ _____ _____    ______ ____
ROOT
ATOM      1  C   UNL     1       1.359   8.752  19.576  0.00  0.00    +0.000 A 
ATOM      2  C   UNL     1       1.780   9.012  18.283  0.00  0.00    +0.000 A 
ATOM      3  C   UNL     1       2.638   8.114  17.716  0.00  0.00    +0.000 A 
ATOM      4  N   UNL     1       3.057   7.018  18.354  0.00  0.00    +0.000 NA
ATOM      5  C   UNL     1       2.592   6.786  19.588  0.00  0.00    +0.000 A 
ATOM      6  N   UNL     1       2.903   5.605  20.256  0.00  0.00    +0.000 N 
ATOM      7  C   UNL     1       3.246   4.460  19.627  0.00  0.00    +0.000 A 
ATOM      8  N   UNL     1       3.743   4.339  18.414  0.00  0.00    +0.000 NA
ATOM      9  C   UNL     1       3.857   3.020  18.046  0.00  0.00    +0.000 A 
ATOM     10  C   UNL     1       3.487   2.111  19.006  0.00  0.00    +0.000 A 
ATOM     11  S   UNL     1       2.996   2.940  20.423  0.00  0.00    +0.000 S 
ATOM     12  N   UNL     1       1.770   7.637  20.234  0.00  0.00    +0.000 NA
ATOM     13  H   UNL     1       2.396   5.562  21.125  0.00  0.00    +0.000 HD
ENDROOT
BRANCH   1  16
ATOM     14  N   UNL     1       0.538  11.661  19.729  0.00  0.00    +0.000 NA
ATOM     15  C   UNL     1       0.880  10.991  21.016  0.00  0.00    +0.000 C 
ATOM     16  C   UNL     1       0.350   9.667  20.385  0.00  0.00    +0.000 C 
ATOM     17  C   UNL     1      -0.543  10.643  19.563  0.00  0.00    +0.000 C 
BRANCH  14  19
ATOM     18  C   UNL     1       1.027  13.909  20.603  0.00  0.00    +0.000 C 
ATOM     19  C   UNL     1      -0.006  13.011  19.911  0.00  0.00    +0.000 C 
ATOM     20  C   UNL     1      -0.320  13.602  18.532  0.00  0.00    +0.000 C 
ENDBRANCH  14  19
ENDBRANCH   1  16
TORSDOF 2
ENDMDL
MODEL 9
REMARK VINA RESULT:      -5.9      3.852      7.591
REMARK  Name = 
REMARK  4 active torsions:
REMARK  status: ('A' for Active; 'I' for Inactive)
REMARK    1  A    between atoms: C_1  and  C_2
REMARK    2  A    between atoms: C_2  and  C_3
REMARK    3  A    between atoms: C_2  and  N_4
REMARK    4  A    between atoms: C_6  and  C_7
REMARK                            x       y       z     vdW  Elec       q    Type
REMARK                         _______ _______ _______ _____ _____    ______ ____
ROOT
ATOM      1  C   UNL     1       2.631   4.542  18.734  0.00  0.00    +0.000 A 
ATOM      2  C   UNL     1       1.951   3.732  19.626  0.00  0.00    +0.000 A 
ATOM      3  C   UNL     1       1.395   4.337  20.716  0.00  0.00    +0.000 A 
ATOM      4  N   UNL     1       1.477   5.654  20.928  0.00  0.00    +0.000 NA
ATOM      5  C   UNL     1       2.110   6.404  20.018  0.00  0.00    +0.000 A 
ATOM      6  N   UNL     1       2.130   7.791  20.128  0.00  0.00    +0.000 N 
ATOM      7  C   UNL     1       1.195   8.500  20.798  0.00  0.00    +0.000 A 
ATOM      8  N   UNL     1       0.408   8.066  21.759  0.00  0.00    +0.000 NA
ATOM      9  C   UNL     1      -0.509   9.021  22.129  0.00  0.00    +0.000 A 
ATOM     10  C   UNL     1      -0.396  10.223  21.477  0.00  0.00    +0.000 A 
ATOM     11  S   UNL     1       0.915  10.158  20.374  0.00  0.00    +0.000 S 
ATOM     12  N   UNL     1       2.717   5.883  18.933  0.00  0.00    +0.000 NA
ATOM     13  H   UNL     1       2.567   8.191  19.313  0.00  0.00    +0.000 HD
ENDROOT
BRANCH   1  16
ATOM     14  N   UNL     1       5.380   4.463  17.470  0.00  0.00    +0.000 NA
ATOM     15  C   UNL     1       4.267   4.984  16.626  0.00  0.00    +0.000 C 
ATOM     16  C   UNL     1       3.321   4.021  17.406  0.00  0.00    +0.000 C 
ATOM     17  C   UNL     1       4.620   3.179  17.561  0.00  0.00    +0.000 C 
BRANCH  14  19
ATOM     18  C   UNL     1       6.724   5.345  15.607  0.00  0.00    +0.000 C 
ATOM     19  C   UNL     1       6.636   4.303  16.729  0.00  0.00    +0.000 C 
ATOM     20  C   UNL     1       7.805   4.528  17.695  0.00  0.00    +0.000 C 
ENDBRANCH  14  19
ENDBRANCH   1  16
TORSDOF 2
ENDMDL
