MODEL 1
REMARK VINA RESULT:      -9.6      0.000      0.000
REMARK  Name = 
REMARK  6 active torsions:
REMARK  status: ('A' for Active; 'I' for Inactive)
REMARK    1  A    between atoms: C_2  and  O_3
REMARK    2  A    between atoms: C_2  and  C_4
REMARK    3  A    between atoms: C_7  and  C_8
REMARK    4  A    between atoms: C_9  and  C_10
REMARK    5  A    between atoms: C_13  and  O_14
REMARK    6  A    between atoms: C_15  and  C_16
REMARK                            x       y       z     vdW  Elec       q    Type
REMARK                         _______ _______ _______ _____ _____    ______ ____
ROOT
ATOM      1  C   UNL     1       1.899   5.721  20.497  0.00  0.00    +0.000 A 
ATOM      2  C   UNL     1       1.737   4.463  21.076  0.00  0.00    +0.000 A 
ATOM      3  C   UNL     1       2.586   3.416  20.724  0.00  0.00    +0.000 A 
ATOM      4  C   UNL     1       3.617   3.626  19.801  0.00  0.00    +0.000 A 
ATOM      5  C   UNL     1       3.826   4.878  19.194  0.00  0.00    +0.000 A 
ATOM      6  C   UNL     1       2.931   5.909  19.564  0.00  0.00    +0.000 A 
ENDROOT
BRANCH   5   7
ATOM      7  C   UNL     1       4.991   5.152  18.214  0.00  0.00    +0.000 C 
ATOM      8  C   UNL     1       6.357   5.242  18.957  0.00  0.00    +0.000 C 
ATOM      9  C   UNL     1       7.509   5.543  17.978  0.00  0.00    +0.000 C 
ATOM     10  C   UNL     1       7.607   4.416  16.943  0.00  0.00    +0.000 C 
ATOM     11  C   UNL     1       6.297   4.323  16.153  0.00  0.00    +0.000 C 
ATOM     12  C   UNL     1       6.019   5.651  15.439  0.00  0.00    +0.000 C 
ATOM     13  C   UNL     1       5.913   6.782  16.470  0.00  0.00    +0.000 C 
ATOM     14  C   UNL     1       7.232   6.873  17.256  0.00  0.00    +0.000 C 
ATOM     15  C   UNL     1       4.757   6.487  17.444  0.00  0.00    +0.000 C 
ATOM     16  C   UNL     1       5.146   4.033  17.128  0.00  0.00    +0.000 C 
ENDBRANCH   5   7
BRANCH   1  18
ATOM     17  C   UNL     1       1.363   8.142  20.821  0.00  0.00    +0.000 C 
ATOM     18  C   UNL     1       1.076   6.839  20.981  0.00  0.00    +0.000 C 
BRANCH  17  22
ATOM     19  C   UNL     1      -1.043  11.247  22.543  0.00  0.00    +0.000 A 
ATOM     20  C   UNL     1      -0.811  10.056  23.238  0.00  0.00    +0.000 A 
ATOM     21  C   UNL     1      -0.019   9.053  22.669  0.00  0.00    +0.000 A 
ATOM     22  C   UNL     1       0.549   9.226  21.397  0.00  0.00    +0.000 A 
ATOM     23  C   UNL     1       0.345  10.443  20.731  0.00  0.00    +0.000 A 
ATOM     24  C   UNL     1      -0.444  11.450  21.296  0.00  0.00    +0.000 A 
BRANCH  19  26
ATOM     25  O   UNL     1      -1.475  13.408  23.434  0.00  0.00    +0.000 OA
ATOM     26  C   UNL     1      -1.884  12.289  23.180  0.00  0.00    +0.000 C 
BRANCH  26  27
ATOM     27  O   UNL     1      -3.130  11.868  23.486  0.00  0.00    +0.000 OA
ATOM     28  H   UNL     1      -3.188  10.945  23.796  0.00  0.00    +0.000 HD
ENDBRANCH  26  27
ENDBRANCH  19  26
ENDBRANCH  17  22
ENDBRANCH   1  18
BRANCH   4  29
ATOM     29  O   UNL     1       4.444   2.575  19.513  0.00  0.00    +0.000 OA
ATOM     30  H   UNL     1       4.789   2.201  20.339  0.00  0.00    +0.000 HD
ENDBRANCH   4  29
TORSDOF 6
ENDMDL
MODEL 2
REMARK VINA RESULT:      -9.6      0.189      1.702
REMARK  Name = 
REMARK  6 active torsions:
REMARK  status: ('A' for Active; 'I' for Inactive)
REMARK    1  A    between atoms: C_2  and  O_3
REMARK    2  A    between atoms: C_2  and  C_4
REMARK    3  A    between atoms: C_7  and  C_8
REMARK    4  A    between atoms: C_9  and  C_10
REMARK    5  A    between atoms: C_13  and  O_14
REMARK    6  A    between atoms: C_15  and  C_16
REMARK                            x       y       z     vdW  Elec       q    Type
REMARK                         _______ _______ _______ _____ _____    ______ ____
ROOT
ATOM      1  C   UNL     1       1.926   5.639  20.524  0.00  0.00    +0.000 A 
ATOM      2  C   UNL     1       1.775   4.366  21.071  0.00  0.00    +0.000 A 
ATOM      3  C   UNL     1       2.646   3.340  20.707  0.00  0.00    +0.000 A 
ATOM      4  C   UNL     1       3.687   3.588  19.806  0.00  0.00    +0.000 A 
ATOM      5  C   UNL     1       3.887   4.857  19.233  0.00  0.00    +0.000 A 
ATOM      6  C   UNL     1       2.970   5.866  19.613  0.00  0.00    +0.000 A 
ENDROOT
BRANCH   5   7
ATOM      7  C   UNL     1       5.063   5.173  18.279  0.00  0.00    +0.000 C 
ATOM      8  C   UNL     1       5.211   4.088  17.171  0.00  0.00    +0.000 C 
ATOM      9  C   UNL     1       6.401   4.394  16.242  0.00  0.00    +0.000 C 
ATOM     10  C   UNL     1       6.177   5.745  15.553  0.00  0.00    +0.000 C 
ATOM     11  C   UNL     1       6.072   6.853  16.607  0.00  0.00    +0.000 C 
ATOM     12  C   UNL     1       7.360   6.911  17.437  0.00  0.00    +0.000 C 
ATOM     13  C   UNL     1       7.587   5.563  18.135  0.00  0.00    +0.000 C 
ATOM     14  C   UNL     1       7.695   4.457  17.072  0.00  0.00    +0.000 C 
ATOM     15  C   UNL     1       6.403   5.260  19.071  0.00  0.00    +0.000 C 
ATOM     16  C   UNL     1       4.893   6.544  17.540  0.00  0.00    +0.000 C 
ENDBRANCH   5   7
BRANCH   1  18
ATOM     17  C   UNL     1       1.307   8.044  20.828  0.00  0.00    +0.000 C 
ATOM     18  C   UNL     1       1.079   6.733  21.022  0.00  0.00    +0.000 C 
BRANCH  17  22
ATOM     19  C   UNL     1      -1.100  11.181  22.488  0.00  0.00    +0.000 A 
ATOM     20  C   UNL     1      -0.758  11.186  21.131  0.00  0.00    +0.000 A 
ATOM     21  C   UNL     1       0.021  10.153  20.600  0.00  0.00    +0.000 A 
ATOM     22  C   UNL     1       0.473   9.105  21.417  0.00  0.00    +0.000 A 
ATOM     23  C   UNL     1       0.085   9.091  22.765  0.00  0.00    +0.000 A 
ATOM     24  C   UNL     1      -0.696  10.119  23.300  0.00  0.00    +0.000 A 
BRANCH  19  26
ATOM     25  O   UNL     1      -1.532  13.438  23.097  0.00  0.00    +0.000 OA
ATOM     26  C   UNL     1      -1.932  12.290  23.014  0.00  0.00    +0.000 C 
BRANCH  26  27
ATOM     27  O   UNL     1      -3.156  11.900  23.429  0.00  0.00    +0.000 OA
ATOM     28  H   UNL     1      -3.288  11.916  24.394  0.00  0.00    +0.000 HD
ENDBRANCH  26  27
ENDBRANCH  19  26
ENDBRANCH  17  22
ENDBRANCH   1  18
BRANCH   4  29
ATOM     29  O   UNL     1       4.535   2.557  19.507  0.00  0.00    +0.000 OA
ATOM     30  H   UNL     1       4.055   1.716  19.571  0.00  0.00    +0.000 HD
ENDBRANCH   4  29
TORSDOF 6
ENDMDL
MODEL 3
REMARK VINA RESULT:      -9.5      0.248      1.109
REMARK  Name = 
REMARK  6 active torsions:
REMARK  status: ('A' for Active; 'I' for Inactive)
REMARK    1  A    between atoms: C_2  and  O_3
REMARK    2  A    between atoms: C_2  and  C_4
REMARK    3  A    between atoms: C_7  and  C_8
REMARK    4  A    between atoms: C_9  and  C_10
REMARK    5  A    between atoms: C_13  and  O_14
REMARK    6  A    between atoms: C_15  and  C_16
REMARK                            x       y       z     vdW  Elec       q    Type
REMARK                         _______ _______ _______ _____ _____    ______ ____
ROOT
ATOM      1  C   UNL     1       1.908   5.700  20.526  0.00  0.00    +0.000 A 
ATOM      2  C   UNL     1       1.711   4.424  21.052  0.00  0.00    +0.000 A 
ATOM      3  C   UNL     1       2.520   3.366  20.641  0.00  0.00    +0.000 A 
ATOM      4  C   UNL     1       3.544   3.582  19.713  0.00  0.00    +0.000 A 
ATOM      5  C   UNL     1       3.788   4.852  19.159  0.00  0.00    +0.000 A 
ATOM      6  C   UNL     1       2.934   5.895  19.588  0.00  0.00    +0.000 A 
ENDROOT
BRANCH   5   7
ATOM      7  C   UNL     1       4.949   5.131  18.175  0.00  0.00    +0.000 C 
ATOM      8  C   UNL     1       6.321   5.194  18.910  0.00  0.00    +0.000 C 
ATOM      9  C   UNL     1       7.468   5.500  17.927  0.00  0.00    +0.000 C 
ATOM     10  C   UNL     1       7.547   4.390  16.873  0.00  0.00    +0.000 C 
ATOM     11  C   UNL     1       6.231   4.323  16.091  0.00  0.00    +0.000 C 
ATOM     12  C   UNL     1       5.961   5.665  15.401  0.00  0.00    +0.000 C 
ATOM     13  C   UNL     1       5.874   6.780  16.452  0.00  0.00    +0.000 C 
ATOM     14  C   UNL     1       7.200   6.844  17.229  0.00  0.00    +0.000 C 
ATOM     15  C   UNL     1       4.722   6.481  17.429  0.00  0.00    +0.000 C 
ATOM     16  C   UNL     1       5.084   4.029  17.070  0.00  0.00    +0.000 C 
ENDBRANCH   5   7
BRANCH   1  18
ATOM     17  C   UNL     1       1.298   8.116  20.746  0.00  0.00    +0.000 C 
ATOM     18  C   UNL     1       1.130   6.823  21.072  0.00  0.00    +0.000 C 
BRANCH  17  22
ATOM     19  C   UNL     1      -0.840  11.362  22.559  0.00  0.00    +0.000 A 
ATOM     20  C   UNL     1      -0.198  11.530  21.327  0.00  0.00    +0.000 A 
ATOM     21  C   UNL     1       0.491  10.461  20.743  0.00  0.00    +0.000 A 
ATOM     22  C   UNL     1       0.549   9.213  21.382  0.00  0.00    +0.000 A 
ATOM     23  C   UNL     1      -0.137   9.047  22.594  0.00  0.00    +0.000 A 
ATOM     24  C   UNL     1      -0.828  10.111  23.181  0.00  0.00    +0.000 A 
BRANCH  19  26
ATOM     25  O   UNL     1      -2.779  12.574  23.207  0.00  0.00    +0.000 OA
ATOM     26  C   UNL     1      -1.564  12.515  23.145  0.00  0.00    +0.000 C 
BRANCH  26  27
ATOM     27  O   UNL     1      -0.751  13.508  23.566  0.00  0.00    +0.000 OA
ATOM     28  H   UNL     1      -0.416  13.408  24.476  0.00  0.00    +0.000 HD
ENDBRANCH  26  27
ENDBRANCH  19  26
ENDBRANCH  17  22
ENDBRANCH   1  18
BRANCH   4  29
ATOM     29  O   UNL     1       4.332   2.518  19.367  0.00  0.00    +0.000 OA
ATOM     30  H   UNL     1       4.433   1.930  20.132  0.00  0.00    +0.000 HD
ENDBRANCH   4  29
TORSDOF 6
ENDMDL
MODEL 4
REMARK VINA RESULT:      -9.5      0.137      1.531
REMARK  Name = 
REMARK  6 active torsions:
REMARK  status: ('A' for Active; 'I' for Inactive)
REMARK    1  A    between atoms: C_2  and  O_3
REMARK    2  A    between atoms: C_2  and  C_4
REMARK    3  A    between atoms: C_7  and  C_8
REMARK    4  A    between atoms: C_9  and  C_10
REMARK    5  A    between atoms: C_13  and  O_14
REMARK    6  A    between atoms: C_15  and  C_16
REMARK                            x       y       z     vdW  Elec       q    Type
REMARK                         _______ _______ _______ _____ _____    ______ ____
ROOT
ATOM      1  C   UNL     1       1.900   5.713  20.539  0.00  0.00    +0.000 A 
ATOM      2  C   UNL     1       1.705   4.440  21.071  0.00  0.00    +0.000 A 
ATOM      3  C   UNL     1       2.535   3.387  20.690  0.00  0.00    +0.000 A 
ATOM      4  C   UNL     1       3.580   3.608  19.786  0.00  0.00    +0.000 A 
ATOM      5  C   UNL     1       3.823   4.876  19.227  0.00  0.00    +0.000 A 
ATOM      6  C   UNL     1       2.946   5.913  19.625  0.00  0.00    +0.000 A 
ENDROOT
BRANCH   5   7
ATOM      7  C   UNL     1       5.005   5.160  18.270  0.00  0.00    +0.000 C 
ATOM      8  C   UNL     1       5.202   4.006  17.243  0.00  0.00    +0.000 C 
ATOM      9  C   UNL     1       6.399   4.284  16.312  0.00  0.00    +0.000 C 
ATOM     10  C   UNL     1       6.146   5.576  15.527  0.00  0.00    +0.000 C 
ATOM     11  C   UNL     1       5.993   6.751  16.500  0.00  0.00    +0.000 C 
ATOM     12  C   UNL     1       7.264   6.904  17.343  0.00  0.00    +0.000 C 
ATOM     13  C   UNL     1       7.519   5.616  18.136  0.00  0.00    +0.000 C 
ATOM     14  C   UNL     1       7.676   4.442  17.154  0.00  0.00    +0.000 C 
ATOM     15  C   UNL     1       6.329   5.342  19.073  0.00  0.00    +0.000 C 
ATOM     16  C   UNL     1       4.808   6.472  17.436  0.00  0.00    +0.000 C 
ENDBRANCH   5   7
BRANCH   1  18
ATOM     17  C   UNL     1       1.240   8.120  20.704  0.00  0.00    +0.000 C 
ATOM     18  C   UNL     1       1.095   6.831  21.055  0.00  0.00    +0.000 C 
BRANCH  17  22
ATOM     19  C   UNL     1      -1.050  11.259  22.519  0.00  0.00    +0.000 A 
ATOM     20  C   UNL     1      -0.771  10.082  23.221  0.00  0.00    +0.000 A 
ATOM     21  C   UNL     1      -0.017   9.068  22.621  0.00  0.00    +0.000 A 
ATOM     22  C   UNL     1       0.464   9.216  21.311  0.00  0.00    +0.000 A 
ATOM     23  C   UNL     1       0.214  10.419  20.636  0.00  0.00    +0.000 A 
ATOM     24  C   UNL     1      -0.536  11.436  21.232  0.00  0.00    +0.000 A 
BRANCH  19  26
ATOM     25  O   UNL     1      -3.013  12.159  23.513  0.00  0.00    +0.000 OA
ATOM     26  C   UNL     1      -1.849  12.314  23.190  0.00  0.00    +0.000 C 
BRANCH  26  27
ATOM     27  O   UNL     1      -1.176  13.470  23.369  0.00  0.00    +0.000 OA
ATOM     28  H   UNL     1      -1.402  13.956  24.184  0.00  0.00    +0.000 HD
ENDBRANCH  26  27
ENDBRANCH  19  26
ENDBRANCH  17  22
ENDBRANCH   1  18
BRANCH   4  29
ATOM     29  O   UNL     1       4.389   2.550  19.469  0.00  0.00    +0.000 OA
ATOM     30  H   UNL     1       3.914   1.949  18.874  0.00  0.00    +0.000 HD
ENDBRANCH   4  29
TORSDOF 6
ENDMDL
MODEL 5
REMARK VINA RESULT:      -9.5      0.172      1.700
REMARK  Name = 
REMARK  6 active torsions:
REMARK  status: ('A' for Active; 'I' for Inactive)
REMARK    1  A    between atoms: C_2  and  O_3
REMARK    2  A    between atoms: C_2  and  C_4
REMARK    3  A    between atoms: C_7  and  C_8
REMARK    4  A    between atoms: C_9  and  C_10
REMARK    5  A    between atoms: C_13  and  O_14
REMARK    6  A    between atoms: C_15  and  C_16
REMARK                            x       y       z     vdW  Elec       q    Type
REMARK                         _______ _______ _______ _____ _____    ______ ____
ROOT
ATOM      1  C   UNL     1       1.925   5.744  20.561  0.00  0.00    +0.000 A 
ATOM      2  C   UNL     1       1.720   4.464  21.072  0.00  0.00    +0.000 A 
ATOM      3  C   UNL     1       2.535   3.409  20.666  0.00  0.00    +0.000 A 
ATOM      4  C   UNL     1       3.575   3.632  19.758  0.00  0.00    +0.000 A 
ATOM      5  C   UNL     1       3.828   4.907  19.218  0.00  0.00    +0.000 A 
ATOM      6  C   UNL     1       2.967   5.947  19.641  0.00  0.00    +0.000 A 
ENDROOT
BRANCH   5   7
ATOM      7  C   UNL     1       5.005   5.194  18.257  0.00  0.00    +0.000 C 
ATOM      8  C   UNL     1       4.808   6.538  17.494  0.00  0.00    +0.000 C 
ATOM      9  C   UNL     1       5.971   6.803  16.517  0.00  0.00    +0.000 C 
ATOM     10  C   UNL     1       7.286   6.893  17.301  0.00  0.00    +0.000 C 
ATOM     11  C   UNL     1       7.544   5.571  18.033  0.00  0.00    +0.000 C 
ATOM     12  C   UNL     1       7.629   4.420  17.023  0.00  0.00    +0.000 C 
ATOM     13  C   UNL     1       6.313   4.321  16.239  0.00  0.00    +0.000 C 
ATOM     14  C   UNL     1       6.062   5.649  15.505  0.00  0.00    +0.000 C 
ATOM     15  C   UNL     1       5.152   4.047  17.212  0.00  0.00    +0.000 C 
ATOM     16  C   UNL     1       6.382   5.300  18.998  0.00  0.00    +0.000 C 
ENDBRANCH   5   7
BRANCH   1  18
ATOM     17  C   UNL     1       1.281   8.153  20.757  0.00  0.00    +0.000 C 
ATOM     18  C   UNL     1       1.138   6.862  21.102  0.00  0.00    +0.000 C 
BRANCH  17  22
ATOM     19  C   UNL     1      -0.880  11.390  22.556  0.00  0.00    +0.000 A 
ATOM     20  C   UNL     1      -0.251  11.554  21.318  0.00  0.00    +0.000 A 
ATOM     21  C   UNL     1       0.445  10.488  20.737  0.00  0.00    +0.000 A 
ATOM     22  C   UNL     1       0.525   9.248  21.389  0.00  0.00    +0.000 A 
ATOM     23  C   UNL     1      -0.148   9.085  22.608  0.00  0.00    +0.000 A 
ATOM     24  C   UNL     1      -0.847  10.146  23.191  0.00  0.00    +0.000 A 
BRANCH  19  26
ATOM     25  O   UNL     1      -1.089  13.619  23.355  0.00  0.00    +0.000 OA
ATOM     26  C   UNL     1      -1.613  12.541  23.138  0.00  0.00    +0.000 C 
BRANCH  26  27
ATOM     27  O   UNL     1      -2.900  12.267  23.441  0.00  0.00    +0.000 OA
ATOM     28  H   UNL     1      -3.026  11.590  24.130  0.00  0.00    +0.000 HD
ENDBRANCH  26  27
ENDBRANCH  19  26
ENDBRANCH  17  22
ENDBRANCH   1  18
BRANCH   4  29
ATOM     29  O   UNL     1       4.368   2.571  19.416  0.00  0.00    +0.000 OA
ATOM     30  H   UNL     1       4.333   2.439  18.455  0.00  0.00    +0.000 HD
ENDBRANCH   4  29
TORSDOF 6
ENDMDL
MODEL 6
REMARK VINA RESULT:      -9.4      0.392      1.490
REMARK  Name = 
REMARK  6 active torsions:
REMARK  status: ('A' for Active; 'I' for Inactive)
REMARK    1  A    between atoms: C_2  and  O_3
REMARK    2  A    between atoms: C_2  and  C_4
REMARK    3  A    between atoms: C_7  and  C_8
REMARK    4  A    between atoms: C_9  and  C_10
REMARK    5  A    between atoms: C_13  and  O_14
REMARK    6  A    between atoms: C_15  and  C_16
REMARK                            x       y       z     vdW  Elec       q    Type
REMARK                         _______ _______ _______ _____ _____    ______ ____
ROOT
ATOM      1  C   UNL     1       1.947   5.674  20.489  0.00  0.00    +0.000 A 
ATOM      2  C   UNL     1       1.852   4.436  21.123  0.00  0.00    +0.000 A 
ATOM      3  C   UNL     1       2.674   3.383  20.728  0.00  0.00    +0.000 A 
ATOM      4  C   UNL     1       3.612   3.567  19.706  0.00  0.00    +0.000 A 
ATOM      5  C   UNL     1       3.752   4.799  19.040  0.00  0.00    +0.000 A 
ATOM      6  C   UNL     1       2.886   5.837  19.458  0.00  0.00    +0.000 A 
ENDROOT
BRANCH   5   7
ATOM      7  C   UNL     1       4.818   5.047  17.947  0.00  0.00    +0.000 C 
ATOM      8  C   UNL     1       4.752   6.505  17.401  0.00  0.00    +0.000 C 
ATOM      9  C   UNL     1       5.798   6.736  16.293  0.00  0.00    +0.000 C 
ATOM     10  C   UNL     1       7.203   6.508  16.862  0.00  0.00    +0.000 C 
ATOM     11  C   UNL     1       7.329   5.067  17.370  0.00  0.00    +0.000 C 
ATOM     12  C   UNL     1       7.076   4.082  16.222  0.00  0.00    +0.000 C 
ATOM     13  C   UNL     1       5.668   4.301  15.652  0.00  0.00    +0.000 C 
ATOM     14  C   UNL     1       5.550   5.747  15.141  0.00  0.00    +0.000 C 
ATOM     15  C   UNL     1       4.621   4.061  16.756  0.00  0.00    +0.000 C 
ATOM     16  C   UNL     1       6.280   4.831  18.466  0.00  0.00    +0.000 C 
ENDBRANCH   5   7
BRANCH   1  18
ATOM     17  C   UNL     1       1.362   8.097  20.703  0.00  0.00    +0.000 C 
ATOM     18  C   UNL     1       1.162   6.803  21.010  0.00  0.00    +0.000 C 
BRANCH  17  22
ATOM     19  C   UNL     1      -0.892  11.256  22.527  0.00  0.00    +0.000 A 
ATOM     20  C   UNL     1      -0.791  10.005  23.143  0.00  0.00    +0.000 A 
ATOM     21  C   UNL     1      -0.047   8.984  22.542  0.00  0.00    +0.000 A 
ATOM     22  C   UNL     1       0.602   9.200  21.316  0.00  0.00    +0.000 A 
ATOM     23  C   UNL     1       0.529  10.473  20.733  0.00  0.00    +0.000 A 
ATOM     24  C   UNL     1      -0.211  11.497  21.331  0.00  0.00    +0.000 A 
BRANCH  19  26
ATOM     25  O   UNL     1      -2.824  12.141  23.593  0.00  0.00    +0.000 OA
ATOM     26  C   UNL     1      -1.685  12.316  23.197  0.00  0.00    +0.000 C 
BRANCH  26  27
ATOM     27  O   UNL     1      -1.042  13.499  23.288  0.00  0.00    +0.000 OA
ATOM     28  H   UNL     1      -1.354  14.084  24.003  0.00  0.00    +0.000 HD
ENDBRANCH  26  27
ENDBRANCH  19  26
ENDBRANCH  17  22
ENDBRANCH   1  18
BRANCH   4  29
ATOM     29  O   UNL     1       4.419   2.512  19.377  0.00  0.00    +0.000 OA
ATOM     30  H   UNL     1       5.280   2.847  19.079  0.00  0.00    +0.000 HD
ENDBRANCH   4  29
TORSDOF 6
ENDMDL
MODEL 7
REMARK VINA RESULT:      -9.3      4.936      7.745
REMARK  Name = 
REMARK  6 active torsions:
REMARK  status: ('A' for Active; 'I' for Inactive)
REMARK    1  A    between atoms: C_2  and  O_3
REMARK    2  A    between atoms: C_2  and  C_4
REMARK    3  A    between atoms: C_7  and  C_8
REMARK    4  A    between atoms: C_9  and  C_10
REMARK    5  A    between atoms: C_13  and  O_14
REMARK    6  A    between atoms: C_15  and  C_16
REMARK                            x       y       z     vdW  Elec       q    Type
REMARK                         _______ _______ _______ _____ _____    ______ ____
ROOT
ATOM      1  C   UNL     1       6.689   6.568  17.364  0.00  0.00    +0.000 A 
ATOM      2  C   UNL     1       7.214   5.771  16.349  0.00  0.00    +0.000 A 
ATOM      3  C   UNL     1       6.689   4.501  16.115  0.00  0.00    +0.000 A 
ATOM      4  C   UNL     1       5.620   4.028  16.885  0.00  0.00    +0.000 A 
ATOM      5  C   UNL     1       5.051   4.798  17.916  0.00  0.00    +0.000 A 
ATOM      6  C   UNL     1       5.624   6.072  18.134  0.00  0.00    +0.000 A 
ENDROOT
BRANCH   5   7
ATOM      7  C   UNL     1       3.833   4.323  18.744  0.00  0.00    +0.000 C 
ATOM      8  C   UNL     1       3.424   5.376  19.817  0.00  0.00    +0.000 C 
ATOM      9  C   UNL     1       2.228   4.884  20.656  0.00  0.00    +0.000 C 
ATOM     10  C   UNL     1       1.022   4.650  19.739  0.00  0.00    +0.000 C 
ATOM     11  C   UNL     1       1.366   3.583  18.693  0.00  0.00    +0.000 C 
ATOM     12  C   UNL     1       1.743   2.269  19.388  0.00  0.00    +0.000 C 
ATOM     13  C   UNL     1       2.954   2.495  20.303  0.00  0.00    +0.000 C 
ATOM     14  C   UNL     1       2.601   3.563  21.351  0.00  0.00    +0.000 C 
ATOM     15  C   UNL     1       4.152   2.978  19.464  0.00  0.00    +0.000 C 
ATOM     16  C   UNL     1       2.563   4.066  17.863  0.00  0.00    +0.000 C 
ENDBRANCH   5   7
BRANCH   1  18
ATOM     17  C   UNL     1       8.251   8.329  18.210  0.00  0.00    +0.000 C 
ATOM     18  C   UNL     1       7.171   7.951  17.506  0.00  0.00    +0.000 C 
BRANCH  17  22
ATOM     19  C   UNL     1       9.384  12.441  18.660  0.00  0.00    +0.000 A 
ATOM     20  C   UNL     1       8.495  12.052  17.652  0.00  0.00    +0.000 A 
ATOM     21  C   UNL     1       8.127  10.709  17.520  0.00  0.00    +0.000 A 
ATOM     22  C   UNL     1       8.646   9.737  18.390  0.00  0.00    +0.000 A 
ATOM     23  C   UNL     1       9.501  10.148  19.422  0.00  0.00    +0.000 A 
ATOM     24  C   UNL     1       9.870  11.489  19.561  0.00  0.00    +0.000 A 
BRANCH  19  26
ATOM     25  O   UNL     1       9.874  14.444  19.842  0.00  0.00    +0.000 OA
ATOM     26  C   UNL     1       9.747  13.874  18.773  0.00  0.00    +0.000 C 
BRANCH  26  27
ATOM     27  O   UNL     1       9.884  14.494  17.581  0.00  0.00    +0.000 OA
ATOM     28  H   UNL     1       9.467  15.374  17.524  0.00  0.00    +0.000 HD
ENDBRANCH  26  27
ENDBRANCH  19  26
ENDBRANCH  17  22
ENDBRANCH   1  18
BRANCH   4  29
ATOM     29  O   UNL     1       5.119   2.789  16.594  0.00  0.00    +0.000 OA
ATOM     30  H   UNL     1       4.941   2.729  15.642  0.00  0.00    +0.000 HD
ENDBRANCH   4  29
TORSDOF 6
ENDMDL
MODEL 8
REMARK VINA RESULT:      -9.2      5.078      7.728
REMARK  Name = 
REMARK  6 active torsions:
REMARK  status: ('A' for Active; 'I' for Inactive)
REMARK    1  A    between atoms: C_2  and  O_3
REMARK    2  A    between atoms: C_2  and  C_4
REMARK    3  A    between atoms: C_7  and  C_8
REMARK    4  A    between atoms: C_9  and  C_10
REMARK    5  A    between atoms: C_13  and  O_14
REMARK    6  A    between atoms: C_15  and  C_16
REMARK                            x       y       z     vdW  Elec       q    Type
REMARK                         _______ _______ _______ _____ _____    ______ ____
ROOT
ATOM      1  C   UNL     1       6.781   6.673  17.411  0.00  0.00    +0.000 A 
ATOM      2  C   UNL     1       7.327   5.949  16.353  0.00  0.00    +0.000 A 
ATOM      3  C   UNL     1       6.833   4.684  16.042  0.00  0.00    +0.000 A 
ATOM      4  C   UNL     1       5.774   4.141  16.778  0.00  0.00    +0.000 A 
ATOM      5  C   UNL     1       5.183   4.835  17.850  0.00  0.00    +0.000 A 
ATOM      6  C   UNL     1       5.726   6.108  18.146  0.00  0.00    +0.000 A 
ENDROOT
BRANCH   5   7
ATOM      7  C   UNL     1       3.975   4.284  18.644  0.00  0.00    +0.000 C 
ATOM      8  C   UNL     1       4.316   2.936  19.345  0.00  0.00    +0.000 C 
ATOM      9  C   UNL     1       3.100   2.379  20.111  0.00  0.00    +0.000 C 
ATOM     10  C   UNL     1       2.675   3.380  21.191  0.00  0.00    +0.000 C 
ATOM     11  C   UNL     1       2.283   4.711  20.540  0.00  0.00    +0.000 C 
ATOM     12  C   UNL     1       1.125   4.495  19.559  0.00  0.00    +0.000 C 
ATOM     13  C   UNL     1       1.546   3.499  18.470  0.00  0.00    +0.000 C 
ATOM     14  C   UNL     1       1.933   2.165  19.131  0.00  0.00    +0.000 C 
ATOM     15  C   UNL     1       2.756   4.058  17.699  0.00  0.00    +0.000 C 
ATOM     16  C   UNL     1       3.491   5.262  19.768  0.00  0.00    +0.000 C 
ENDBRANCH   5   7
BRANCH   1  18
ATOM     17  C   UNL     1       8.389   8.412  18.216  0.00  0.00    +0.000 C 
ATOM     18  C   UNL     1       7.230   8.055  17.636  0.00  0.00    +0.000 C 
BRANCH  17  22
ATOM     19  C   UNL     1       9.455  12.501  18.951  0.00  0.00    +0.000 A 
ATOM     20  C   UNL     1       8.736  12.145  17.804  0.00  0.00    +0.000 A 
ATOM     21  C   UNL     1       8.388  10.809  17.579  0.00  0.00    +0.000 A 
ATOM     22  C   UNL     1       8.757   9.811  18.494  0.00  0.00    +0.000 A 
ATOM     23  C   UNL     1       9.437  10.188  19.661  0.00  0.00    +0.000 A 
ATOM     24  C   UNL     1       9.785  11.522  19.892  0.00  0.00    +0.000 A 
BRANCH  19  26
ATOM     25  O   UNL     1       9.600  14.788  18.319  0.00  0.00    +0.000 OA
ATOM     26  C   UNL     1       9.801  13.927  19.158  0.00  0.00    +0.000 C 
BRANCH  26  27
ATOM     27  O   UNL     1      10.396  14.174  20.345  0.00  0.00    +0.000 OA
ATOM     28  H   UNL     1      10.204  13.523  21.045  0.00  0.00    +0.000 HD
ENDBRANCH  26  27
ENDBRANCH  19  26
ENDBRANCH  17  22
ENDBRANCH   1  18
BRANCH   4  29
ATOM     29  O   UNL     1       5.302   2.910  16.412  0.00  0.00    +0.000 OA
ATOM     30  H   UNL     1       6.038   2.278  16.389  0.00  0.00    +0.000 HD
ENDBRANCH   4  29
TORSDOF 6
ENDMDL
MODEL 9
REMARK VINA RESULT:      -9.2      4.868      7.743
REMARK  Name = 
REMARK  6 active torsions:
REMARK  status: ('A' for Active; 'I' for Inactive)
REMARK    1  A    between atoms: C_2  and  O_3
REMARK    2  A    between atoms: C_2  and  C_4
REMARK    3  A    between atoms: C_7  and  C_8
REMARK    4  A    between atoms: C_9  and  C_10
REMARK    5  A    between atoms: C_13  and  O_14
REMARK    6  A    between atoms: C_15  and  C_16
REMARK                            x       y       z     vdW  Elec       q    Type
REMARK                         _______ _______ _______ _____ _____    ______ ____
ROOT
ATOM      1  C   UNL     1       6.752   6.666  17.410  0.00  0.00    +0.000 A 
ATOM      2  C   UNL     1       7.320   5.924  16.377  0.00  0.00    +0.000 A 
ATOM      3  C   UNL     1       6.826   4.657  16.071  0.00  0.00    +0.000 A 
ATOM      4  C   UNL     1       5.745   4.131  16.788  0.00  0.00    +0.000 A 
ATOM      5  C   UNL     1       5.132   4.845  17.835  0.00  0.00    +0.000 A 
ATOM      6  C   UNL     1       5.676   6.118  18.126  0.00  0.00    +0.000 A 
ENDROOT
BRANCH   5   7
ATOM      7  C   UNL     1       3.901   4.312  18.606  0.00  0.00    +0.000 C 
ATOM      8  C   UNL     1       2.650   4.203  17.684  0.00  0.00    +0.000 C 
ATOM      9  C   UNL     1       1.421   3.699  18.466  0.00  0.00    +0.000 C 
ATOM     10  C   UNL     1       1.714   2.305  19.033  0.00  0.00    +0.000 C 
ATOM     11  C   UNL     1       2.912   2.374  19.986  0.00  0.00    +0.000 C 
ATOM     12  C   UNL     1       2.613   3.342  21.137  0.00  0.00    +0.000 C 
ATOM     13  C   UNL     1       2.326   4.742  20.576  0.00  0.00    +0.000 C 
ATOM     14  C   UNL     1       1.120   4.665  19.624  0.00  0.00    +0.000 C 
ATOM     15  C   UNL     1       3.556   5.250  19.802  0.00  0.00    +0.000 C 
ATOM     16  C   UNL     1       4.135   2.886  19.212  0.00  0.00    +0.000 C 
ENDBRANCH   5   7
BRANCH   1  18
ATOM     17  C   UNL     1       8.363   8.407  18.205  0.00  0.00    +0.000 C 
ATOM     18  C   UNL     1       7.204   8.049  17.626  0.00  0.00    +0.000 C 
BRANCH  17  22
ATOM     19  C   UNL     1       9.435  12.498  18.913  0.00  0.00    +0.000 A 
ATOM     20  C   UNL     1       8.683  12.142  17.789  0.00  0.00    +0.000 A 
ATOM     21  C   UNL     1       8.333  10.805  17.573  0.00  0.00    +0.000 A 
ATOM     22  C   UNL     1       8.734   9.807  18.474  0.00  0.00    +0.000 A 
ATOM     23  C   UNL     1       9.449  10.185  19.620  0.00  0.00    +0.000 A 
ATOM     24  C   UNL     1       9.799  11.520  19.842  0.00  0.00    +0.000 A 
BRANCH  19  26
ATOM     25  O   UNL     1       8.982  14.755  19.506  0.00  0.00    +0.000 OA
ATOM     26  C   UNL     1       9.783  13.926  19.113  0.00  0.00    +0.000 C 
BRANCH  26  27
ATOM     27  O   UNL     1      11.056  14.226  18.779  0.00  0.00    +0.000 OA
ATOM     28  H   UNL     1      11.156  14.983  18.173  0.00  0.00    +0.000 HD
ENDBRANCH  26  27
ENDBRANCH  19  26
ENDBRANCH  17  22
ENDBRANCH   1  18
BRANCH   4  29
ATOM     29  O   UNL     1       5.275   2.898  16.429  0.00  0.00    +0.000 OA
ATOM     30  H   UNL     1       5.715   2.218  16.963  0.00  0.00    +0.000 HD
ENDBRANCH   4  29
TORSDOF 6
ENDMDL
