MODEL 1
REMARK VINA RESULT:      -9.3      0.000      0.000
REMARK  Name = 
REMARK  8 active torsions:
REMARK  status: ('A' for Active; 'I' for Inactive)
REMARK    1  A    between atoms: C_1  and  C_2
REMARK    2  A    between atoms: C_2  and  C_24
REMARK    3  A    between atoms: C_3  and  C_5
REMARK    4  A    between atoms: N_7  and  C_8
REMARK    5  A    between atoms: C_11  and  C_12
REMARK    6  A    between atoms: C_17  and  S_18
REMARK    7  A    between atoms: S_18  and  N_19
REMARK    8  A    between atoms: C_28  and  N_29
REMARK                            x       y       z     vdW  Elec       q    Type
REMARK                         _______ _______ _______ _____ _____    ______ ____
ROOT
ATOM      1  C   UNL     1       1.266   8.448  19.997  0.00  0.00    +0.000 A 
ATOM      2  C   UNL     1       1.737   8.827  18.746  0.00  0.00    +0.000 A 
ATOM      3  C   UNL     1       2.543   7.971  17.988  0.00  0.00    +0.000 A 
ATOM      4  C   UNL     1       2.982   6.725  18.471  0.00  0.00    +0.000 A 
ATOM      5  C   UNL     1       2.583   6.418  19.781  0.00  0.00    +0.000 A 
ATOM      6  C   UNL     1       1.708   7.238  20.519  0.00  0.00    +0.000 A 
ENDROOT
BRANCH   4   7
ATOM      7  C   UNL     1       3.849   5.856  17.615  0.00  0.00    +0.000 A 
ATOM      8  C   UNL     1       4.904   6.494  16.902  0.00  0.00    +0.000 A 
ATOM      9  C   UNL     1       5.731   5.825  15.995  0.00  0.00    +0.000 A 
ATOM     10  C   UNL     1       5.562   4.469  15.787  0.00  0.00    +0.000 A 
ATOM     11  C   UNL     1       4.566   3.793  16.484  0.00  0.00    +0.000 A 
ATOM     12  C   UNL     1       3.708   4.464  17.383  0.00  0.00    +0.000 A 
BRANCH  12  13
ATOM     13  S   UNL     1       2.427   3.486  18.135  0.00  0.00    +0.000 S 
ATOM     14  O   UNL     1       2.732   3.285  19.534  0.00  0.00    +0.000 OA
ATOM     15  O   UNL     1       1.138   3.921  17.655  0.00  0.00    +0.000 OA
BRANCH  13  16
ATOM     16  N   UNL     1       2.614   1.931  17.502  0.00  0.00    +0.000 NA
ATOM     17  H   UNL     1       1.792   1.387  17.772  0.00  0.00    +0.000 HD
ATOM     18  H   UNL     1       2.754   1.998  16.493  0.00  0.00    +0.000 HD
ENDBRANCH  13  16
ENDBRANCH  12  13
ENDBRANCH   4   7
BRANCH   1  21
ATOM     19  C   UNL     1       0.696   9.841  21.963  0.00  0.00    +0.000 C 
ATOM     20  O   UNL     1       1.784   9.789  22.516  0.00  0.00    +0.000 OA
ATOM     21  N   UNL     1       0.376   9.236  20.760  0.00  0.00    +0.000 N 
ATOM     22  H   UNL     1      -0.536   9.427  20.366  0.00  0.00    +0.000 HD
BRANCH  19  25
ATOM     23  C   UNL     1      -1.920  12.529  23.029  0.00  0.00    +0.000 C 
ATOM     24  C   UNL     1      -0.900  11.768  22.235  0.00  0.00    +0.000 C 
ATOM     25  C   UNL     1      -0.451  10.555  22.600  0.00  0.00    +0.000 C 
ATOM     26  F   UNL     1      -0.989   9.916  23.665  0.00  0.00    +0.000 F 
BRANCH  24  27
ATOM     27  C   UNL     1      -0.434  12.481  21.027  0.00  0.00    +0.000 A 
ATOM     28  C   UNL     1       0.606  13.411  21.107  0.00  0.00    +0.000 A 
ATOM     29  C   UNL     1       1.024  14.090  19.963  0.00  0.00    +0.000 A 
ATOM     30  C   UNL     1       0.391  13.855  18.741  0.00  0.00    +0.000 A 
ATOM     31  C   UNL     1      -0.669  12.952  18.646  0.00  0.00    +0.000 A 
ATOM     32  C   UNL     1      -1.037  12.225  19.784  0.00  0.00    +0.000 A 
BRANCH  31  33
ATOM     33  N   UNL     1      -1.196  12.618  17.391  0.00  0.00    +0.000 N 
ATOM     34  H   UNL     1      -1.723  13.369  16.956  0.00  0.00    +0.000 HD
ATOM     35  H   UNL     1      -1.685  11.731  17.366  0.00  0.00    +0.000 HD
ENDBRANCH  31  33
ENDBRANCH  24  27
ENDBRANCH  19  25
ENDBRANCH   1  21
TORSDOF 7
ENDMDL
MODEL 2
REMARK VINA RESULT:      -8.7      0.959      1.298
REMARK  Name = 
REMARK  8 active torsions:
REMARK  status: ('A' for Active; 'I' for Inactive)
REMARK    1  A    between atoms: C_1  and  C_2
REMARK    2  A    between atoms: C_2  and  C_24
REMARK    3  A    between atoms: C_3  and  C_5
REMARK    4  A    between atoms: N_7  and  C_8
REMARK    5  A    between atoms: C_11  and  C_12
REMARK    6  A    between atoms: C_17  and  S_18
REMARK    7  A    between atoms: S_18  and  N_19
REMARK    8  A    between atoms: C_28  and  N_29
REMARK                            x       y       z     vdW  Elec       q    Type
REMARK                         _______ _______ _______ _____ _____    ______ ____
ROOT
ATOM      1  C   UNL     1       1.260   8.572  19.898  0.00  0.00    +0.000 A 
ATOM      2  C   UNL     1       1.688   8.891  18.614  0.00  0.00    +0.000 A 
ATOM      3  C   UNL     1       2.487   8.010  17.880  0.00  0.00    +0.000 A 
ATOM      4  C   UNL     1       2.962   6.799  18.415  0.00  0.00    +0.000 A 
ATOM      5  C   UNL     1       2.606   6.556  19.750  0.00  0.00    +0.000 A 
ATOM      6  C   UNL     1       1.739   7.399  20.469  0.00  0.00    +0.000 A 
ENDROOT
BRANCH   4   7
ATOM      7  C   UNL     1       3.820   5.900  17.580  0.00  0.00    +0.000 A 
ATOM      8  C   UNL     1       4.883   6.508  16.853  0.00  0.00    +0.000 A 
ATOM      9  C   UNL     1       5.704   5.808  15.964  0.00  0.00    +0.000 A 
ATOM     10  C   UNL     1       5.519   4.450  15.788  0.00  0.00    +0.000 A 
ATOM     11  C   UNL     1       4.514   3.802  16.499  0.00  0.00    +0.000 A 
ATOM     12  C   UNL     1       3.663   4.505  17.381  0.00  0.00    +0.000 A 
BRANCH  12  13
ATOM     13  S   UNL     1       2.370   3.559  18.154  0.00  0.00    +0.000 S 
ATOM     14  O   UNL     1       2.655   3.417  19.564  0.00  0.00    +0.000 OA
ATOM     15  O   UNL     1       1.089   3.975  17.637  0.00  0.00    +0.000 OA
BRANCH  13  16
ATOM     16  N   UNL     1       2.564   1.979  17.589  0.00  0.00    +0.000 NA
ATOM     17  H   UNL     1       1.649   1.525  17.623  0.00  0.00    +0.000 HD
ATOM     18  H   UNL     1       2.979   2.009  16.656  0.00  0.00    +0.000 HD
ENDBRANCH  13  16
ENDBRANCH  12  13
ENDBRANCH   4   7
BRANCH   1  21
ATOM     19  C   UNL     1       0.651   9.892  21.901  0.00  0.00    +0.000 C 
ATOM     20  O   UNL     1       1.688   9.721  22.526  0.00  0.00    +0.000 OA
ATOM     21  N   UNL     1       0.379   9.385  20.643  0.00  0.00    +0.000 N 
ATOM     22  H   UNL     1      -0.484   9.671  20.199  0.00  0.00    +0.000 HD
BRANCH  19  25
ATOM     23  C   UNL     1      -1.860  12.704  22.895  0.00  0.00    +0.000 C 
ATOM     24  C   UNL     1      -0.849  11.899  22.134  0.00  0.00    +0.000 C 
ATOM     25  C   UNL     1      -0.481  10.659  22.500  0.00  0.00    +0.000 C 
ATOM     26  F   UNL     1      -1.099  10.037  23.531  0.00  0.00    +0.000 F 
BRANCH  24  27
ATOM     27  C   UNL     1      -0.293  12.601  20.959  0.00  0.00    +0.000 A 
ATOM     28  C   UNL     1      -0.968  12.583  19.734  0.00  0.00    +0.000 A 
ATOM     29  C   UNL     1      -0.424  13.234  18.628  0.00  0.00    +0.000 A 
ATOM     30  C   UNL     1       0.804  13.889  18.737  0.00  0.00    +0.000 A 
ATOM     31  C   UNL     1       1.508  13.894  19.943  0.00  0.00    +0.000 A 
ATOM     32  C   UNL     1       0.923  13.296  21.065  0.00  0.00    +0.000 A 
BRANCH  31  33
ATOM     33  N   UNL     1       2.663  14.676  20.078  0.00  0.00    +0.000 N 
ATOM     34  H   UNL     1       2.562  15.445  20.734  0.00  0.00    +0.000 HD
ATOM     35  H   UNL     1       3.077  14.965  19.199  0.00  0.00    +0.000 HD
ENDBRANCH  31  33
ENDBRANCH  24  27
ENDBRANCH  19  25
ENDBRANCH   1  21
TORSDOF 7
ENDMDL
MODEL 3
REMARK VINA RESULT:      -8.7      3.584      8.997
REMARK  Name = 
REMARK  8 active torsions:
REMARK  status: ('A' for Active; 'I' for Inactive)
REMARK    1  A    between atoms: C_1  and  C_2
REMARK    2  A    between atoms: C_2  and  C_24
REMARK    3  A    between atoms: C_3  and  C_5
REMARK    4  A    between atoms: N_7  and  C_8
REMARK    5  A    between atoms: C_11  and  C_12
REMARK    6  A    between atoms: C_17  and  S_18
REMARK    7  A    between atoms: S_18  and  N_19
REMARK    8  A    between atoms: C_28  and  N_29
REMARK                            x       y       z     vdW  Elec       q    Type
REMARK                         _______ _______ _______ _____ _____    ______ ____
ROOT
ATOM      1  C   UNL     1       2.492   7.127  18.417  0.00  0.00    +0.000 A 
ATOM      2  C   UNL     1       2.210   6.837  19.747  0.00  0.00    +0.000 A 
ATOM      3  C   UNL     1       1.473   7.723  20.538  0.00  0.00    +0.000 A 
ATOM      4  C   UNL     1       1.043   8.976  20.067  0.00  0.00    +0.000 A 
ATOM      5  C   UNL     1       1.437   9.289  18.757  0.00  0.00    +0.000 A 
ATOM      6  C   UNL     1       2.111   8.372  17.928  0.00  0.00    +0.000 A 
ENDROOT
BRANCH   4   7
ATOM      7  C   UNL     1       0.261   9.884  20.965  0.00  0.00    +0.000 A 
ATOM      8  C   UNL     1       0.204   9.538  22.345  0.00  0.00    +0.000 A 
ATOM      9  C   UNL     1      -0.562  10.240  23.281  0.00  0.00    +0.000 A 
ATOM     10  C   UNL     1      -1.283  11.349  22.881  0.00  0.00    +0.000 A 
ATOM     11  C   UNL     1      -1.234  11.747  21.549  0.00  0.00    +0.000 A 
ATOM     12  C   UNL     1      -0.483  11.030  20.590  0.00  0.00    +0.000 A 
BRANCH  12  13
ATOM     13  S   UNL     1      -0.587  11.607  18.911  0.00  0.00    +0.000 S 
ATOM     14  O   UNL     1       0.646  12.272  18.553  0.00  0.00    +0.000 OA
ATOM     15  O   UNL     1      -1.219  10.603  18.091  0.00  0.00    +0.000 OA
BRANCH  13  16
ATOM     16  N   UNL     1      -1.688  12.889  18.939  0.00  0.00    +0.000 NA
ATOM     17  H   UNL     1      -1.346  13.603  18.293  0.00  0.00    +0.000 HD
ATOM     18  H   UNL     1      -2.617  12.533  18.711  0.00  0.00    +0.000 HD
ENDBRANCH  13  16
ENDBRANCH  12  13
ENDBRANCH   4   7
BRANCH   1  21
ATOM     19  C   UNL     1       3.485   4.925  17.879  0.00  0.00    +0.000 C 
ATOM     20  O   UNL     1       3.243   4.376  18.944  0.00  0.00    +0.000 OA
ATOM     21  N   UNL     1       3.152   6.227  17.552  0.00  0.00    +0.000 N 
ATOM     22  H   UNL     1       3.334   6.535  16.605  0.00  0.00    +0.000 HD
BRANCH  19  25
ATOM     23  C   UNL     1       6.178   3.867  15.264  0.00  0.00    +0.000 C 
ATOM     24  C   UNL     1       5.521   4.468  16.472  0.00  0.00    +0.000 C 
ATOM     25  C   UNL     1       4.246   4.211  16.810  0.00  0.00    +0.000 C 
ATOM     26  F   UNL     1       3.523   3.300  16.119  0.00  0.00    +0.000 F 
BRANCH  24  27
ATOM     27  C   UNL     1       6.403   5.372  17.240  0.00  0.00    +0.000 A 
ATOM     28  C   UNL     1       6.632   6.681  16.806  0.00  0.00    +0.000 A 
ATOM     29  C   UNL     1       7.480   7.518  17.530  0.00  0.00    +0.000 A 
ATOM     30  C   UNL     1       8.116   7.043  18.679  0.00  0.00    +0.000 A 
ATOM     31  C   UNL     1       7.924   5.730  19.113  0.00  0.00    +0.000 A 
ATOM     32  C   UNL     1       7.019   4.919  18.418  0.00  0.00    +0.000 A 
BRANCH  31  33
ATOM     33  N   UNL     1       8.449   5.313  20.343  0.00  0.00    +0.000 N 
ATOM     34  H   UNL     1       7.758   5.257  21.085  0.00  0.00    +0.000 HD
ATOM     35  H   UNL     1       9.288   5.806  20.627  0.00  0.00    +0.000 HD
ENDBRANCH  31  33
ENDBRANCH  24  27
ENDBRANCH  19  25
ENDBRANCH   1  21
TORSDOF 7
ENDMDL
MODEL 4
REMARK VINA RESULT:      -8.7      2.471      3.393
REMARK  Name = 
REMARK  8 active torsions:
REMARK  status: ('A' for Active; 'I' for Inactive)
REMARK    1  A    between atoms: C_1  and  C_2
REMARK    2  A    between atoms: C_2  and  C_24
REMARK    3  A    between atoms: C_3  and  C_5
REMARK    4  A    between atoms: N_7  and  C_8
REMARK    5  A    between atoms: C_11  and  C_12
REMARK    6  A    between atoms: C_17  and  S_18
REMARK    7  A    between atoms: S_18  and  N_19
REMARK    8  A    between atoms: C_28  and  N_29
REMARK                            x       y       z     vdW  Elec       q    Type
REMARK                         _______ _______ _______ _____ _____    ______ ____
ROOT
ATOM      1  C   UNL     1       1.683   8.880  19.388  0.00  0.00    +0.000 A 
ATOM      2  C   UNL     1       1.706   7.876  20.349  0.00  0.00    +0.000 A 
ATOM      3  C   UNL     1       2.050   6.564  20.014  0.00  0.00    +0.000 A 
ATOM      4  C   UNL     1       2.317   6.169  18.690  0.00  0.00    +0.000 A 
ATOM      5  C   UNL     1       2.177   7.178  17.726  0.00  0.00    +0.000 A 
ATOM      6  C   UNL     1       1.907   8.518  18.065  0.00  0.00    +0.000 A 
ENDROOT
BRANCH   4   7
ATOM      7  C   UNL     1       2.674   4.745  18.394  0.00  0.00    +0.000 A 
ATOM      8  C   UNL     1       1.604   3.809  18.322  0.00  0.00    +0.000 A 
ATOM      9  C   UNL     1       1.797   2.436  18.145  0.00  0.00    +0.000 A 
ATOM     10  C   UNL     1       3.077   1.939  17.995  0.00  0.00    +0.000 A 
ATOM     11  C   UNL     1       4.155   2.817  18.026  0.00  0.00    +0.000 A 
ATOM     12  C   UNL     1       3.974   4.203  18.229  0.00  0.00    +0.000 A 
BRANCH  12  13
ATOM     13  S   UNL     1       5.451   5.189  18.330  0.00  0.00    +0.000 S 
ATOM     14  O   UNL     1       5.488   6.117  17.222  0.00  0.00    +0.000 OA
ATOM     15  O   UNL     1       5.685   5.573  19.701  0.00  0.00    +0.000 OA
BRANCH  13  16
ATOM     16  N   UNL     1       6.722   4.139  17.960  0.00  0.00    +0.000 NA
ATOM     17  H   UNL     1       6.492   3.225  18.356  0.00  0.00    +0.000 HD
ATOM     18  H   UNL     1       6.861   4.130  16.948  0.00  0.00    +0.000 HD
ENDBRANCH  13  16
ENDBRANCH  12  13
ENDBRANCH   4   7
BRANCH   1  21
ATOM     19  C   UNL     1       0.350  10.690  20.425  0.00  0.00    +0.000 C 
ATOM     20  O   UNL     1      -0.518   9.986  20.919  0.00  0.00    +0.000 OA
ATOM     21  N   UNL     1       1.432  10.236  19.691  0.00  0.00    +0.000 N 
ATOM     22  H   UNL     1       2.126  10.916  19.409  0.00  0.00    +0.000 HD
BRANCH  19  25
ATOM     23  C   UNL     1      -0.516  14.453  19.881  0.00  0.00    +0.000 C 
ATOM     24  C   UNL     1      -0.609  12.956  19.895  0.00  0.00    +0.000 C 
ATOM     25  C   UNL     1       0.280  12.178  20.537  0.00  0.00    +0.000 C 
ATOM     26  F   UNL     1       1.253  12.731  21.297  0.00  0.00    +0.000 F 
BRANCH  24  27
ATOM     27  C   UNL     1      -1.757  12.425  19.132  0.00  0.00    +0.000 A 
ATOM     28  C   UNL     1      -3.023  12.338  19.719  0.00  0.00    +0.000 A 
ATOM     29  C   UNL     1      -4.094  11.818  18.993  0.00  0.00    +0.000 A 
ATOM     30  C   UNL     1      -3.899  11.367  17.687  0.00  0.00    +0.000 A 
ATOM     31  C   UNL     1      -2.637  11.417  17.092  0.00  0.00    +0.000 A 
ATOM     32  C   UNL     1      -1.583  12.002  17.803  0.00  0.00    +0.000 A 
BRANCH  31  33
ATOM     33  N   UNL     1      -2.487  11.098  15.737  0.00  0.00    +0.000 N 
ATOM     34  H   UNL     1      -2.701  11.868  15.110  0.00  0.00    +0.000 HD
ATOM     35  H   UNL     1      -2.933  10.232  15.459  0.00  0.00    +0.000 HD
ENDBRANCH  31  33
ENDBRANCH  24  27
ENDBRANCH  19  25
ENDBRANCH   1  21
TORSDOF 7
ENDMDL
MODEL 5
REMARK VINA RESULT:      -8.6      0.923      1.307
REMARK  Name = 
REMARK  8 active torsions:
REMARK  status: ('A' for Active; 'I' for Inactive)
REMARK    1  A    between atoms: C_1  and  C_2
REMARK    2  A    between atoms: C_2  and  C_24
REMARK    3  A    between atoms: C_3  and  C_5
REMARK    4  A    between atoms: N_7  and  C_8
REMARK    5  A    between atoms: C_11  and  C_12
REMARK    6  A    between atoms: C_17  and  S_18
REMARK    7  A    between atoms: S_18  and  N_19
REMARK    8  A    between atoms: C_28  and  N_29
REMARK                            x       y       z     vdW  Elec       q    Type
REMARK                         _______ _______ _______ _____ _____    ______ ____
ROOT
ATOM      1  C   UNL     1       1.644   8.469  20.184  0.00  0.00    +0.000 A 
ATOM      2  C   UNL     1       2.123   7.227  20.585  0.00  0.00    +0.000 A 
ATOM      3  C   UNL     1       2.837   6.410  19.703  0.00  0.00    +0.000 A 
ATOM      4  C   UNL     1       3.046   6.755  18.356  0.00  0.00    +0.000 A 
ATOM      5  C   UNL     1       2.454   7.961  17.950  0.00  0.00    +0.000 A 
ATOM      6  C   UNL     1       1.802   8.826  18.849  0.00  0.00    +0.000 A 
ENDROOT
BRANCH   4   7
ATOM      7  C   UNL     1       3.814   5.835  17.459  0.00  0.00    +0.000 A 
ATOM      8  C   UNL     1       4.830   6.416  16.649  0.00  0.00    +0.000 A 
ATOM      9  C   UNL     1       5.562   5.695  15.701  0.00  0.00    +0.000 A 
ATOM     10  C   UNL     1       5.332   4.341  15.545  0.00  0.00    +0.000 A 
ATOM     11  C   UNL     1       4.371   3.719  16.335  0.00  0.00    +0.000 A 
ATOM     12  C   UNL     1       3.609   4.443  17.279  0.00  0.00    +0.000 A 
BRANCH  12  13
ATOM     13  S   UNL     1       2.359   3.530  18.155  0.00  0.00    +0.000 S 
ATOM     14  O   UNL     1       2.739   3.404  19.544  0.00  0.00    +0.000 OA
ATOM     15  O   UNL     1       1.051   3.958  17.721  0.00  0.00    +0.000 OA
BRANCH  13  16
ATOM     16  N   UNL     1       2.490   1.939  17.603  0.00  0.00    +0.000 NA
ATOM     17  H   UNL     1       1.959   1.870  16.732  0.00  0.00    +0.000 HD
ATOM     18  H   UNL     1       3.478   1.701  17.507  0.00  0.00    +0.000 HD
ENDBRANCH  13  16
ENDBRANCH  12  13
ENDBRANCH   4   7
BRANCH   1  21
ATOM     19  C   UNL     1      -0.229   9.140  21.657  0.00  0.00    +0.000 C 
ATOM     20  O   UNL     1      -0.907   8.133  21.522  0.00  0.00    +0.000 OA
ATOM     21  N   UNL     1       0.999   9.368  21.060  0.00  0.00    +0.000 N 
ATOM     22  H   UNL     1       1.499  10.208  21.321  0.00  0.00    +0.000 HD
BRANCH  19  25
ATOM     23  C   UNL     1      -1.175  12.697  22.943  0.00  0.00    +0.000 C 
ATOM     24  C   UNL     1      -0.870  11.544  22.033  0.00  0.00    +0.000 C 
ATOM     25  C   UNL     1      -0.720  10.286  22.479  0.00  0.00    +0.000 C 
ATOM     26  F   UNL     1      -0.946   9.987  23.780  0.00  0.00    +0.000 F 
BRANCH  24  27
ATOM     27  C   UNL     1      -0.742  11.927  20.612  0.00  0.00    +0.000 A 
ATOM     28  C   UNL     1       0.440  12.499  20.133  0.00  0.00    +0.000 A 
ATOM     29  C   UNL     1       0.543  12.872  18.793  0.00  0.00    +0.000 A 
ATOM     30  C   UNL     1      -0.542  12.691  17.933  0.00  0.00    +0.000 A 
ATOM     31  C   UNL     1      -1.742  12.148  18.398  0.00  0.00    +0.000 A 
ATOM     32  C   UNL     1      -1.812  11.715  19.727  0.00  0.00    +0.000 A 
BRANCH  31  33
ATOM     33  N   UNL     1      -2.767  11.838  17.495  0.00  0.00    +0.000 N 
ATOM     34  H   UNL     1      -2.812  10.853  17.251  0.00  0.00    +0.000 HD
ATOM     35  H   UNL     1      -2.808  12.444  16.684  0.00  0.00    +0.000 HD
ENDBRANCH  31  33
ENDBRANCH  24  27
ENDBRANCH  19  25
ENDBRANCH   1  21
TORSDOF 7
ENDMDL
MODEL 6
REMARK VINA RESULT:      -8.5      3.394      8.588
REMARK  Name = 
REMARK  8 active torsions:
REMARK  status: ('A' for Active; 'I' for Inactive)
REMARK    1  A    between atoms: C_1  and  C_2
REMARK    2  A    between atoms: C_2  and  C_24
REMARK    3  A    between atoms: C_3  and  C_5
REMARK    4  A    between atoms: N_7  and  C_8
REMARK    5  A    between atoms: C_11  and  C_12
REMARK    6  A    between atoms: C_17  and  S_18
REMARK    7  A    between atoms: S_18  and  N_19
REMARK    8  A    between atoms: C_28  and  N_29
REMARK                            x       y       z     vdW  Elec       q    Type
REMARK                         _______ _______ _______ _____ _____    ______ ____
ROOT
ATOM      1  C   UNL     1       2.130   7.565  19.620  0.00  0.00    +0.000 A 
ATOM      2  C   UNL     1       2.325   8.199  18.398  0.00  0.00    +0.000 A 
ATOM      3  C   UNL     1       1.916   9.521  18.198  0.00  0.00    +0.000 A 
ATOM      4  C   UNL     1       1.224  10.253  19.179  0.00  0.00    +0.000 A 
ATOM      5  C   UNL     1       0.942   9.550  20.360  0.00  0.00    +0.000 A 
ATOM      6  C   UNL     1       1.419   8.248  20.600  0.00  0.00    +0.000 A 
ENDROOT
BRANCH   4   7
ATOM      7  C   UNL     1       0.806  11.664  18.902  0.00  0.00    +0.000 A 
ATOM      8  C   UNL     1       1.760  12.687  19.167  0.00  0.00    +0.000 A 
ATOM      9  C   UNL     1       1.477  14.051  19.043  0.00  0.00    +0.000 A 
ATOM     10  C   UNL     1       0.228  14.453  18.610  0.00  0.00    +0.000 A 
ATOM     11  C   UNL     1      -0.729  13.491  18.307  0.00  0.00    +0.000 A 
ATOM     12  C   UNL     1      -0.462  12.112  18.452  0.00  0.00    +0.000 A 
BRANCH  12  13
ATOM     13  S   UNL     1      -1.810  11.004  18.110  0.00  0.00    +0.000 S 
ATOM     14  O   UNL     1      -1.387  10.012  17.147  0.00  0.00    +0.000 OA
ATOM     15  O   UNL     1      -2.498  10.681  19.336  0.00  0.00    +0.000 OA
BRANCH  13  16
ATOM     16  N   UNL     1      -2.927  11.910  17.222  0.00  0.00    +0.000 NA
ATOM     17  H   UNL     1      -2.416  12.673  16.773  0.00  0.00    +0.000 HD
ATOM     18  H   UNL     1      -3.410  11.292  16.569  0.00  0.00    +0.000 HD
ENDBRANCH  13  16
ENDBRANCH  12  13
ENDBRANCH   4   7
BRANCH   1  21
ATOM     19  C   UNL     1       2.357   5.151  19.121  0.00  0.00    +0.000 C 
ATOM     20  O   UNL     1       1.711   5.141  18.084  0.00  0.00    +0.000 OA
ATOM     21  N   UNL     1       2.606   6.266  19.901  0.00  0.00    +0.000 N 
ATOM     22  H   UNL     1       3.227   6.156  20.693  0.00  0.00    +0.000 HD
BRANCH  19  25
ATOM     23  C   UNL     1       4.546   1.998  19.807  0.00  0.00    +0.000 C 
ATOM     24  C   UNL     1       4.114   3.367  19.372  0.00  0.00    +0.000 C 
ATOM     25  C   UNL     1       2.914   3.885  19.684  0.00  0.00    +0.000 C 
ATOM     26  F   UNL     1       2.072   3.218  20.508  0.00  0.00    +0.000 F 
BRANCH  24  27
ATOM     27  C   UNL     1       5.125   4.081  18.565  0.00  0.00    +0.000 A 
ATOM     28  C   UNL     1       5.131   3.969  17.171  0.00  0.00    +0.000 A 
ATOM     29  C   UNL     1       6.101   4.633  16.422  0.00  0.00    +0.000 A 
ATOM     30  C   UNL     1       7.080   5.395  17.064  0.00  0.00    +0.000 A 
ATOM     31  C   UNL     1       7.110   5.495  18.456  0.00  0.00    +0.000 A 
ATOM     32  C   UNL     1       6.092   4.881  19.196  0.00  0.00    +0.000 A 
BRANCH  31  33
ATOM     33  N   UNL     1       8.004   6.377  19.076  0.00  0.00    +0.000 N 
ATOM     34  H   UNL     1       7.640   7.319  19.185  0.00  0.00    +0.000 HD
ATOM     35  H   UNL     1       8.941   6.362  18.691  0.00  0.00    +0.000 HD
ENDBRANCH  31  33
ENDBRANCH  24  27
ENDBRANCH  19  25
ENDBRANCH   1  21
TORSDOF 7
ENDMDL
MODEL 7
REMARK VINA RESULT:      -8.5      3.278      8.521
REMARK  Name = 
REMARK  8 active torsions:
REMARK  status: ('A' for Active; 'I' for Inactive)
REMARK    1  A    between atoms: C_1  and  C_2
REMARK    2  A    between atoms: C_2  and  C_24
REMARK    3  A    between atoms: C_3  and  C_5
REMARK    4  A    between atoms: N_7  and  C_8
REMARK    5  A    between atoms: C_11  and  C_12
REMARK    6  A    between atoms: C_17  and  S_18
REMARK    7  A    between atoms: S_18  and  N_19
REMARK    8  A    between atoms: C_28  and  N_29
REMARK                            x       y       z     vdW  Elec       q    Type
REMARK                         _______ _______ _______ _____ _____    ______ ____
ROOT
ATOM      1  C   UNL     1       2.108   7.607  19.616  0.00  0.00    +0.000 A 
ATOM      2  C   UNL     1       2.353   8.279  18.423  0.00  0.00    +0.000 A 
ATOM      3  C   UNL     1       1.944   9.604  18.244  0.00  0.00    +0.000 A 
ATOM      4  C   UNL     1       1.205  10.303  19.215  0.00  0.00    +0.000 A 
ATOM      5  C   UNL     1       0.876   9.564  20.361  0.00  0.00    +0.000 A 
ATOM      6  C   UNL     1       1.350   8.257  20.583  0.00  0.00    +0.000 A 
ENDROOT
BRANCH   4   7
ATOM      7  C   UNL     1       0.791  11.719  18.961  0.00  0.00    +0.000 A 
ATOM      8  C   UNL     1       1.692  12.742  19.371  0.00  0.00    +0.000 A 
ATOM      9  C   UNL     1       1.398  14.106  19.282  0.00  0.00    +0.000 A 
ATOM     10  C   UNL     1       0.193  14.511  18.740  0.00  0.00    +0.000 A 
ATOM     11  C   UNL     1      -0.709  13.550  18.294  0.00  0.00    +0.000 A 
ATOM     12  C   UNL     1      -0.432  12.169  18.403  0.00  0.00    +0.000 A 
BRANCH  12  13
ATOM     13  S   UNL     1      -1.716  11.060  17.870  0.00  0.00    +0.000 S 
ATOM     14  O   UNL     1      -1.126   9.816  17.431  0.00  0.00    +0.000 OA
ATOM     15  O   UNL     1      -2.832  11.135  18.781  0.00  0.00    +0.000 OA
BRANCH  13  16
ATOM     16  N   UNL     1      -2.303  11.707  16.424  0.00  0.00    +0.000 NA
ATOM     17  H   UNL     1      -2.197  10.992  15.701  0.00  0.00    +0.000 HD
ATOM     18  H   UNL     1      -3.266  12.015  16.565  0.00  0.00    +0.000 HD
ENDBRANCH  13  16
ENDBRANCH  12  13
ENDBRANCH   4   7
BRANCH   1  21
ATOM     19  C   UNL     1       2.357   5.207  19.066  0.00  0.00    +0.000 C 
ATOM     20  O   UNL     1       1.743   5.221  18.009  0.00  0.00    +0.000 OA
ATOM     21  N   UNL     1       2.580   6.303  19.880  0.00  0.00    +0.000 N 
ATOM     22  H   UNL     1       3.177   6.176  20.687  0.00  0.00    +0.000 HD
BRANCH  19  25
ATOM     23  C   UNL     1       4.545   2.054  19.753  0.00  0.00    +0.000 C 
ATOM     24  C   UNL     1       4.120   3.432  19.341  0.00  0.00    +0.000 C 
ATOM     25  C   UNL     1       2.901   3.929  19.614  0.00  0.00    +0.000 C 
ATOM     26  F   UNL     1       2.030   3.229  20.378  0.00  0.00    +0.000 F 
BRANCH  24  27
ATOM     27  C   UNL     1       5.159   4.179  18.603  0.00  0.00    +0.000 A 
ATOM     28  C   UNL     1       6.018   5.055  19.273  0.00  0.00    +0.000 A 
ATOM     29  C   UNL     1       6.982   5.767  18.562  0.00  0.00    +0.000 A 
ATOM     30  C   UNL     1       7.079   5.620  17.177  0.00  0.00    +0.000 A 
ATOM     31  C   UNL     1       6.212   4.773  16.485  0.00  0.00    +0.000 A 
ATOM     32  C   UNL     1       5.292   4.011  17.214  0.00  0.00    +0.000 A 
BRANCH  31  33
ATOM     33  N   UNL     1       6.415   4.524  15.121  0.00  0.00    +0.000 N 
ATOM     34  H   UNL     1       7.093   5.143  14.689  0.00  0.00    +0.000 HD
ATOM     35  H   UNL     1       5.562   4.441  14.580  0.00  0.00    +0.000 HD
ENDBRANCH  31  33
ENDBRANCH  24  27
ENDBRANCH  19  25
ENDBRANCH   1  21
TORSDOF 7
ENDMDL
MODEL 8
REMARK VINA RESULT:      -8.5      3.621      9.096
REMARK  Name = 
REMARK  8 active torsions:
REMARK  status: ('A' for Active; 'I' for Inactive)
REMARK    1  A    between atoms: C_1  and  C_2
REMARK    2  A    between atoms: C_2  and  C_24
REMARK    3  A    between atoms: C_3  and  C_5
REMARK    4  A    between atoms: N_7  and  C_8
REMARK    5  A    between atoms: C_11  and  C_12
REMARK    6  A    between atoms: C_17  and  S_18
REMARK    7  A    between atoms: S_18  and  N_19
REMARK    8  A    between atoms: C_28  and  N_29
REMARK                            x       y       z     vdW  Elec       q    Type
REMARK                         _______ _______ _______ _____ _____    ______ ____
ROOT
ATOM      1  C   UNL     1       2.057   7.669  18.732  0.00  0.00    +0.000 A 
ATOM      2  C   UNL     1       2.027   7.592  20.120  0.00  0.00    +0.000 A 
ATOM      3  C   UNL     1       1.396   8.578  20.884  0.00  0.00    +0.000 A 
ATOM      4  C   UNL     1       0.828   9.729  20.309  0.00  0.00    +0.000 A 
ATOM      5  C   UNL     1       0.972   9.835  18.917  0.00  0.00    +0.000 A 
ATOM      6  C   UNL     1       1.536   8.810  18.133  0.00  0.00    +0.000 A 
ENDROOT
BRANCH   4   7
ATOM      7  C   UNL     1       0.171  10.753  21.181  0.00  0.00    +0.000 A 
ATOM      8  C   UNL     1      -0.562  10.275  22.304  0.00  0.00    +0.000 A 
ATOM      9  C   UNL     1      -1.300  11.107  23.150  0.00  0.00    +0.000 A 
ATOM     10  C   UNL     1      -1.310  12.471  22.929  0.00  0.00    +0.000 A 
ATOM     11  C   UNL     1      -0.583  12.993  21.863  0.00  0.00    +0.000 A 
ATOM     12  C   UNL     1       0.146  12.158  20.988  0.00  0.00    +0.000 A 
BRANCH  12  13
ATOM     13  S   UNL     1       0.955  12.958  19.621  0.00  0.00    +0.000 S 
ATOM     14  O   UNL     1       2.377  12.708  19.689  0.00  0.00    +0.000 OA
ATOM     15  O   UNL     1       0.171  12.783  18.423  0.00  0.00    +0.000 OA
BRANCH  13  16
ATOM     16  N   UNL     1       0.868  14.613  19.949  0.00  0.00    +0.000 NA
ATOM     17  H   UNL     1       0.710  15.095  19.061  0.00  0.00    +0.000 HD
ATOM     18  H   UNL     1       0.139  14.775  20.645  0.00  0.00    +0.000 HD
ENDBRANCH  13  16
ENDBRANCH  12  13
ENDBRANCH   4   7
BRANCH   1  21
ATOM     19  C   UNL     1       3.183   5.492  18.384  0.00  0.00    +0.000 C 
ATOM     20  O   UNL     1       3.292   5.179  19.561  0.00  0.00    +0.000 OA
ATOM     21  N   UNL     1       2.600   6.655  17.913  0.00  0.00    +0.000 N 
ATOM     22  H   UNL     1       2.496   6.756  16.912  0.00  0.00    +0.000 HD
BRANCH  19  25
ATOM     23  C   UNL     1       5.466   3.938  15.632  0.00  0.00    +0.000 C 
ATOM     24  C   UNL     1       5.005   4.692  16.844  0.00  0.00    +0.000 C 
ATOM     25  C   UNL     1       3.746   4.622  17.309  0.00  0.00    +0.000 C 
ATOM     26  F   UNL     1       2.855   3.770  16.751  0.00  0.00    +0.000 F 
BRANCH  24  27
ATOM     27  C   UNL     1       6.059   5.520  17.464  0.00  0.00    +0.000 A 
ATOM     28  C   UNL     1       6.365   6.785  16.953  0.00  0.00    +0.000 A 
ATOM     29  C   UNL     1       7.374   7.549  17.537  0.00  0.00    +0.000 A 
ATOM     30  C   UNL     1       8.093   7.044  18.621  0.00  0.00    +0.000 A 
ATOM     31  C   UNL     1       7.825   5.772  19.129  0.00  0.00    +0.000 A 
ATOM     32  C   UNL     1       6.765   5.040  18.580  0.00  0.00    +0.000 A 
BRANCH  31  33
ATOM     33  N   UNL     1       8.451   5.339  20.305  0.00  0.00    +0.000 N 
ATOM     34  H   UNL     1       8.395   4.336  20.452  0.00  0.00    +0.000 HD
ATOM     35  H   UNL     1       8.202   5.870  21.131  0.00  0.00    +0.000 HD
ENDBRANCH  31  33
ENDBRANCH  24  27
ENDBRANCH  19  25
ENDBRANCH   1  21
TORSDOF 7
ENDMDL
MODEL 9
REMARK VINA RESULT:      -8.4      1.046      1.643
REMARK  Name = 
REMARK  8 active torsions:
REMARK  status: ('A' for Active; 'I' for Inactive)
REMARK    1  A    between atoms: C_1  and  C_2
REMARK    2  A    between atoms: C_2  and  C_24
REMARK    3  A    between atoms: C_3  and  C_5
REMARK    4  A    between atoms: N_7  and  C_8
REMARK    5  A    between atoms: C_11  and  C_12
REMARK    6  A    between atoms: C_17  and  S_18
REMARK    7  A    between atoms: S_18  and  N_19
REMARK    8  A    between atoms: C_28  and  N_29
REMARK                            x       y       z     vdW  Elec       q    Type
REMARK                         _______ _______ _______ _____ _____    ______ ____
ROOT
ATOM      1  C   UNL     1       1.655   8.433  20.204  0.00  0.00    +0.000 A 
ATOM      2  C   UNL     1       2.133   7.190  20.602  0.00  0.00    +0.000 A 
ATOM      3  C   UNL     1       2.841   6.372  19.717  0.00  0.00    +0.000 A 
ATOM      4  C   UNL     1       3.045   6.718  18.368  0.00  0.00    +0.000 A 
ATOM      5  C   UNL     1       2.455   7.926  17.967  0.00  0.00    +0.000 A 
ATOM      6  C   UNL     1       1.808   8.792  18.869  0.00  0.00    +0.000 A 
ENDROOT
BRANCH   4   7
ATOM      7  C   UNL     1       3.807   5.796  17.468  0.00  0.00    +0.000 A 
ATOM      8  C   UNL     1       4.853   6.368  16.689  0.00  0.00    +0.000 A 
ATOM      9  C   UNL     1       5.585   5.648  15.740  0.00  0.00    +0.000 A 
ATOM     10  C   UNL     1       5.324   4.304  15.552  0.00  0.00    +0.000 A 
ATOM     11  C   UNL     1       4.333   3.691  16.311  0.00  0.00    +0.000 A 
ATOM     12  C   UNL     1       3.571   4.415  17.255  0.00  0.00    +0.000 A 
BRANCH  12  13
ATOM     13  S   UNL     1       2.282   3.516  18.088  0.00  0.00    +0.000 S 
ATOM     14  O   UNL     1       2.661   3.294  19.465  0.00  0.00    +0.000 OA
ATOM     15  O   UNL     1       0.994   4.032  17.689  0.00  0.00    +0.000 OA
BRANCH  13  16
ATOM     16  N   UNL     1       2.331   1.954  17.447  0.00  0.00    +0.000 NA
ATOM     17  H   UNL     1       1.727   1.364  18.025  0.00  0.00    +0.000 HD
ATOM     18  H   UNL     1       2.058   1.990  16.464  0.00  0.00    +0.000 HD
ENDBRANCH  13  16
ENDBRANCH  12  13
ENDBRANCH   4   7
BRANCH   1  21
ATOM     19  C   UNL     1      -0.204   9.103  21.694  0.00  0.00    +0.000 C 
ATOM     20  O   UNL     1      -0.881   8.093  21.570  0.00  0.00    +0.000 OA
ATOM     21  N   UNL     1       1.016   9.334  21.083  0.00  0.00    +0.000 N 
ATOM     22  H   UNL     1       1.516  10.176  21.336  0.00  0.00    +0.000 HD
BRANCH  19  25
ATOM     23  C   UNL     1      -1.236  12.650  22.942  0.00  0.00    +0.000 C 
ATOM     24  C   UNL     1      -0.941  11.484  22.047  0.00  0.00    +0.000 C 
ATOM     25  C   UNL     1      -0.691  10.250  22.518  0.00  0.00    +0.000 C 
ATOM     26  F   UNL     1      -0.801   9.986  23.840  0.00  0.00    +0.000 F 
BRANCH  24  27
ATOM     27  C   UNL     1      -0.942  11.824  20.609  0.00  0.00    +0.000 A 
ATOM     28  C   UNL     1      -2.093  11.646  19.836  0.00  0.00    +0.000 A 
ATOM     29  C   UNL     1      -2.075  11.954  18.476  0.00  0.00    +0.000 A 
ATOM     30  C   UNL     1      -0.902  12.422  17.881  0.00  0.00    +0.000 A 
ATOM     31  C   UNL     1       0.267  12.578  18.629  0.00  0.00    +0.000 A 
ATOM     32  C   UNL     1       0.221  12.331  20.006  0.00  0.00    +0.000 A 
BRANCH  31  33
ATOM     33  N   UNL     1       1.391  13.184  18.054  0.00  0.00    +0.000 N 
ATOM     34  H   UNL     1       2.100  12.525  17.749  0.00  0.00    +0.000 HD
ATOM     35  H   UNL     1       1.777  13.949  18.596  0.00  0.00    +0.000 HD
ENDBRANCH  31  33
ENDBRANCH  24  27
ENDBRANCH  19  25
ENDBRANCH   1  21
TORSDOF 7
ENDMDL
