MODEL 1
REMARK VINA RESULT:      -9.0      0.000      0.000
REMARK  Name = 
REMARK  4 active torsions:
REMARK  status: ('A' for Active; 'I' for Inactive)
REMARK    1  A    between atoms: C_4  and  C_5
REMARK    2  A    between atoms: C_4  and  C_22
REMARK    3  A    between atoms: C_7  and  N_8
REMARK    4  A    between atoms: C_9  and  C_11
REMARK                            x       y       z     vdW  Elec       q    Type
REMARK                         _______ _______ _______ _____ _____    ______ ____
ROOT
ATOM      1  C   UNL     1       3.678   5.286  18.959  0.00  0.00    +0.000 A 
ATOM      2  C   UNL     1       3.174   6.602  18.841  0.00  0.00    +0.000 A 
ATOM      3  C   UNL     1       2.177   7.130  19.673  0.00  0.00    +0.000 A 
ATOM      4  C   UNL     1       1.671   6.324  20.690  0.00  0.00    +0.000 A 
ATOM      5  C   UNL     1       2.136   5.012  20.830  0.00  0.00    +0.000 A 
ATOM      6  C   UNL     1       3.126   4.510  19.978  0.00  0.00    +0.000 A 
ATOM      7  F   UNL     1       3.536   3.255  20.197  0.00  0.00    +0.000 F 
ENDROOT
BRANCH   1  11
ATOM      8  N   UNL     1       7.986   5.349  19.773  0.00  0.00    +0.000 N 
ATOM      9  C   UNL     1       6.916   5.493  18.961  0.00  0.00    +0.000 C 
ATOM     10  N   UNL     1       6.024   4.583  18.831  0.00  0.00    +0.000 NA
ATOM     11  C   UNL     1       4.811   4.822  18.008  0.00  0.00    +0.000 C 
ATOM     12  C   UNL     1       5.023   5.895  16.956  0.00  0.00    +0.000 C 
ATOM     13  C   UNL     1       6.247   5.962  16.061  0.00  0.00    +0.000 C 
ATOM     14  C   UNL     1       6.081   6.917  17.207  0.00  0.00    +0.000 C 
ATOM     15  O   UNL     1       6.956   6.684  18.318  0.00  0.00    +0.000 OA
ATOM     16  H   UNL     1       8.224   4.384  19.962  0.00  0.00    +0.000 HD
ATOM     17  H   UNL     1       8.765   5.953  19.552  0.00  0.00    +0.000 HD
BRANCH  11  18
ATOM     18  C   UNL     1       4.503   3.482  17.258  0.00  0.00    +0.000 C 
ATOM     19  F   UNL     1       5.382   3.288  16.232  0.00  0.00    +0.000 F 
ATOM     20  F   UNL     1       3.273   3.519  16.672  0.00  0.00    +0.000 F 
ENDBRANCH  11  18
ENDBRANCH   1  11
BRANCH   3  21
ATOM     21  N   UNL     1       1.694   8.450  19.514  0.00  0.00    +0.000 N 
ATOM     22  C   UNL     1       1.777   9.205  18.347  0.00  0.00    +0.000 C 
ATOM     23  O   UNL     1       2.223   8.835  17.268  0.00  0.00    +0.000 OA
ATOM     24  H   UNL     1       1.177   8.878  20.277  0.00  0.00    +0.000 HD
BRANCH  22  25
ATOM     25  C   UNL     1       1.207  10.586  18.429  0.00  0.00    +0.000 A 
ATOM     26  C   UNL     1      -0.164  10.743  18.655  0.00  0.00    +0.000 A 
ATOM     27  C   UNL     1      -0.675  12.029  18.811  0.00  0.00    +0.000 A 
ATOM     28  C   UNL     1       0.193  13.109  18.731  0.00  0.00    +0.000 A 
ATOM     29 CL   UNL     1      -0.384  14.710  18.947  0.00  0.00    +0.000 Cl
ATOM     30  C   UNL     1       1.542  12.863  18.487  0.00  0.00    +0.000 A 
ATOM     31  N   UNL     1       2.080  11.624  18.331  0.00  0.00    +0.000 NA
ENDBRANCH  22  25
ENDBRANCH   3  21
TORSDOF 4
ENDMDL
MODEL 2
REMARK VINA RESULT:      -8.8      1.925      2.238
REMARK  Name = 
REMARK  4 active torsions:
REMARK  status: ('A' for Active; 'I' for Inactive)
REMARK    1  A    between atoms: C_4  and  C_5
REMARK    2  A    between atoms: C_4  and  C_22
REMARK    3  A    between atoms: C_7  and  N_8
REMARK    4  A    between atoms: C_9  and  C_11
REMARK                            x       y       z     vdW  Elec       q    Type
REMARK                         _______ _______ _______ _____ _____    ______ ____
ROOT
ATOM      1  C   UNL     1       3.827   4.330  19.050  0.00  0.00    +0.000 A 
ATOM      2  C   UNL     1       3.158   5.493  19.499  0.00  0.00    +0.000 A 
ATOM      3  C   UNL     1       2.281   5.511  20.593  0.00  0.00    +0.000 A 
ATOM      4  C   UNL     1       2.076   4.325  21.293  0.00  0.00    +0.000 A 
ATOM      5  C   UNL     1       2.710   3.152  20.872  0.00  0.00    +0.000 A 
ATOM      6  C   UNL     1       3.573   3.163  19.770  0.00  0.00    +0.000 A 
ATOM      7  F   UNL     1       4.162   2.005  19.449  0.00  0.00    +0.000 F 
ENDROOT
BRANCH   1  11
ATOM      8  N   UNL     1       8.108   5.261  19.228  0.00  0.00    +0.000 N 
ATOM      9  C   UNL     1       6.885   5.340  18.658  0.00  0.00    +0.000 C 
ATOM     10  N   UNL     1       6.187   4.302  18.384  0.00  0.00    +0.000 NA
ATOM     11  C   UNL     1       4.806   4.437  17.853  0.00  0.00    +0.000 C 
ATOM     12  C   UNL     1       4.575   5.767  17.160  0.00  0.00    +0.000 C 
ATOM     13  C   UNL     1       5.546   6.376  16.166  0.00  0.00    +0.000 C 
ATOM     14  C   UNL     1       5.435   6.919  17.561  0.00  0.00    +0.000 C 
ATOM     15  O   UNL     1       6.551   6.628  18.412  0.00  0.00    +0.000 OA
ATOM     16  H   UNL     1       8.569   4.373  19.077  0.00  0.00    +0.000 HD
ATOM     17  H   UNL     1       8.686   6.079  19.095  0.00  0.00    +0.000 HD
BRANCH  11  18
ATOM     18  C   UNL     1       4.623   3.310  16.780  0.00  0.00    +0.000 C 
ATOM     19  F   UNL     1       5.708   3.247  15.954  0.00  0.00    +0.000 F 
ATOM     20  F   UNL     1       3.568   3.579  15.961  0.00  0.00    +0.000 F 
ENDBRANCH  11  18
ENDBRANCH   1  11
BRANCH   3  21
ATOM     21  N   UNL     1       1.625   6.695  21.003  0.00  0.00    +0.000 N 
ATOM     22  C   UNL     1       1.617   7.898  20.302  0.00  0.00    +0.000 C 
ATOM     23  O   UNL     1       2.121   8.108  19.206  0.00  0.00    +0.000 OA
ATOM     24  H   UNL     1       1.046   6.671  21.837  0.00  0.00    +0.000 HD
BRANCH  22  25
ATOM     25  C   UNL     1       0.863   9.017  20.948  0.00  0.00    +0.000 A 
ATOM     26  C   UNL     1       0.359   8.840  22.240  0.00  0.00    +0.000 A 
ATOM     27  C   UNL     1      -0.272   9.911  22.867  0.00  0.00    +0.000 A 
ATOM     28  C   UNL     1      -0.382  11.116  22.187  0.00  0.00    +0.000 A 
ATOM     29 CL   UNL     1      -1.122  12.473  22.928  0.00  0.00    +0.000 Cl
ATOM     30  C   UNL     1       0.134  11.200  20.895  0.00  0.00    +0.000 A 
ATOM     31  N   UNL     1       0.758  10.179  20.249  0.00  0.00    +0.000 NA
ENDBRANCH  22  25
ENDBRANCH   3  21
TORSDOF 4
ENDMDL
MODEL 3
REMARK VINA RESULT:      -8.8      1.390      1.425
REMARK  Name = 
REMARK  4 active torsions:
REMARK  status: ('A' for Active; 'I' for Inactive)
REMARK    1  A    between atoms: C_4  and  C_5
REMARK    2  A    between atoms: C_4  and  C_22
REMARK    3  A    between atoms: C_7  and  N_8
REMARK    4  A    between atoms: C_9  and  C_11
REMARK                            x       y       z     vdW  Elec       q    Type
REMARK                         _______ _______ _______ _____ _____    ______ ____
ROOT
ATOM      1  C   UNL     1       3.742   5.138  18.965  0.00  0.00    +0.000 A 
ATOM      2  C   UNL     1       3.195   6.442  18.937  0.00  0.00    +0.000 A 
ATOM      3  C   UNL     1       2.195   6.883  19.815  0.00  0.00    +0.000 A 
ATOM      4  C   UNL     1       1.730   5.998  20.785  0.00  0.00    +0.000 A 
ATOM      5  C   UNL     1       2.238   4.697  20.835  0.00  0.00    +0.000 A 
ATOM      6  C   UNL     1       3.230   4.281  19.939  0.00  0.00    +0.000 A 
ATOM      7  F   UNL     1       3.682   3.029  20.073  0.00  0.00    +0.000 F 
ENDROOT
BRANCH   1  11
ATOM      8  N   UNL     1       8.059   5.338  19.705  0.00  0.00    +0.000 N 
ATOM      9  C   UNL     1       6.968   5.480  18.921  0.00  0.00    +0.000 C 
ATOM     10  N   UNL     1       6.112   4.541  18.759  0.00  0.00    +0.000 NA
ATOM     11  C   UNL     1       4.874   4.772  17.971  0.00  0.00    +0.000 C 
ATOM     12  C   UNL     1       5.022   5.906  16.973  0.00  0.00    +0.000 C 
ATOM     13  C   UNL     1       6.224   6.071  16.062  0.00  0.00    +0.000 C 
ATOM     14  C   UNL     1       6.041   6.957  17.260  0.00  0.00    +0.000 C 
ATOM     15  O   UNL     1       6.947   6.703  18.342  0.00  0.00    +0.000 OA
ATOM     16  H   UNL     1       8.340   4.375  19.839  0.00  0.00    +0.000 HD
ATOM     17  H   UNL     1       8.808   5.985  19.504  0.00  0.00    +0.000 HD
BRANCH  11  18
ATOM     18  C   UNL     1       4.606   3.461  17.156  0.00  0.00    +0.000 C 
ATOM     19  F   UNL     1       5.438   3.382  16.077  0.00  0.00    +0.000 F 
ATOM     20  F   UNL     1       3.347   3.455  16.636  0.00  0.00    +0.000 F 
ENDBRANCH  11  18
ENDBRANCH   1  11
BRANCH   3  21
ATOM     21  N   UNL     1       1.669   8.195  19.746  0.00  0.00    +0.000 N 
ATOM     22  C   UNL     1       1.229   8.947  20.833  0.00  0.00    +0.000 C 
ATOM     23  O   UNL     1       1.278   8.623  22.012  0.00  0.00    +0.000 OA
ATOM     24  H   UNL     1       1.667   8.676  18.851  0.00  0.00    +0.000 HD
BRANCH  22  25
ATOM     25  C   UNL     1       0.698  10.307  20.504  0.00  0.00    +0.000 A 
ATOM     26  C   UNL     1      -0.237  10.440  19.473  0.00  0.00    +0.000 A 
ATOM     27  C   UNL     1      -0.787  11.694  19.225  0.00  0.00    +0.000 A 
ATOM     28  C   UNL     1      -0.386  12.769  20.007  0.00  0.00    +0.000 A 
ATOM     29 CL   UNL     1      -1.059  14.327  19.761  0.00  0.00    +0.000 Cl
ATOM     30  C   UNL     1       0.563  12.550  21.003  0.00  0.00    +0.000 A 
ATOM     31  N   UNL     1       1.123  11.341  21.277  0.00  0.00    +0.000 NA
ENDBRANCH  22  25
ENDBRANCH   3  21
TORSDOF 4
ENDMDL
MODEL 4
REMARK VINA RESULT:      -8.7      2.134      3.631
REMARK  Name = 
REMARK  4 active torsions:
REMARK  status: ('A' for Active; 'I' for Inactive)
REMARK    1  A    between atoms: C_4  and  C_5
REMARK    2  A    between atoms: C_4  and  C_22
REMARK    3  A    between atoms: C_7  and  N_8
REMARK    4  A    between atoms: C_9  and  C_11
REMARK                            x       y       z     vdW  Elec       q    Type
REMARK                         _______ _______ _______ _____ _____    ______ ____
ROOT
ATOM      1  C   UNL     1       3.155   5.329  18.593  0.00  0.00    +0.000 A 
ATOM      2  C   UNL     1       2.590   6.625  18.635  0.00  0.00    +0.000 A 
ATOM      3  C   UNL     1       3.055   7.700  17.864  0.00  0.00    +0.000 A 
ATOM      4  C   UNL     1       4.114   7.475  16.988  0.00  0.00    +0.000 A 
ATOM      5  C   UNL     1       4.706   6.210  16.928  0.00  0.00    +0.000 A 
ATOM      6  C   UNL     1       4.227   5.158  17.717  0.00  0.00    +0.000 A 
ATOM      7  F   UNL     1       4.830   3.972  17.579  0.00  0.00    +0.000 F 
ENDROOT
BRANCH   1  11
ATOM      8  N   UNL     1       5.121   1.646  19.931  0.00  0.00    +0.000 N 
ATOM      9  C   UNL     1       4.053   2.341  19.482  0.00  0.00    +0.000 C 
ATOM     10  N   UNL     1       3.647   3.416  20.047  0.00  0.00    +0.000 NA
ATOM     11  C   UNL     1       2.533   4.206  19.461  0.00  0.00    +0.000 C 
ATOM     12  C   UNL     1       1.624   3.367  18.582  0.00  0.00    +0.000 C 
ATOM     13  C   UNL     1       1.103   1.997  18.978  0.00  0.00    +0.000 C 
ATOM     14  C   UNL     1       2.197   2.137  17.960  0.00  0.00    +0.000 C 
ATOM     15  O   UNL     1       3.496   1.729  18.411  0.00  0.00    +0.000 OA
ATOM     16  H   UNL     1       5.329   1.807  20.908  0.00  0.00    +0.000 HD
ATOM     17  H   UNL     1       5.148   0.680  19.635  0.00  0.00    +0.000 HD
BRANCH  11  18
ATOM     18  C   UNL     1       1.673   4.731  20.660  0.00  0.00    +0.000 C 
ATOM     19  F   UNL     1       1.834   3.935  21.758  0.00  0.00    +0.000 F 
ATOM     20  F   UNL     1       0.343   4.676  20.372  0.00  0.00    +0.000 F 
ENDBRANCH  11  18
ENDBRANCH   1  11
BRANCH   3  21
ATOM     21  N   UNL     1       2.467   8.984  17.944  0.00  0.00    +0.000 N 
ATOM     22  C   UNL     1       1.595   9.412  18.942  0.00  0.00    +0.000 C 
ATOM     23  O   UNL     1       1.244   8.776  19.927  0.00  0.00    +0.000 OA
ATOM     24  H   UNL     1       2.743   9.693  17.270  0.00  0.00    +0.000 HD
BRANCH  22  25
ATOM     25  C   UNL     1       1.091  10.815  18.801  0.00  0.00    +0.000 A 
ATOM     26  C   UNL     1      -0.256  11.082  19.065  0.00  0.00    +0.000 A 
ATOM     27  C   UNL     1      -0.701  12.400  19.010  0.00  0.00    +0.000 A 
ATOM     28  C   UNL     1       0.207  13.401  18.692  0.00  0.00    +0.000 A 
ATOM     29 CL   UNL     1      -0.286  15.043  18.643  0.00  0.00    +0.000 Cl
ATOM     30  C   UNL     1       1.527  13.044  18.428  0.00  0.00    +0.000 A 
ATOM     31  N   UNL     1       2.001  11.770  18.472  0.00  0.00    +0.000 NA
ENDBRANCH  22  25
ENDBRANCH   3  21
TORSDOF 4
ENDMDL
MODEL 5
REMARK VINA RESULT:      -8.7      4.265      6.103
REMARK  Name = 
REMARK  4 active torsions:
REMARK  status: ('A' for Active; 'I' for Inactive)
REMARK    1  A    between atoms: C_4  and  C_5
REMARK    2  A    between atoms: C_4  and  C_22
REMARK    3  A    between atoms: C_7  and  N_8
REMARK    4  A    between atoms: C_9  and  C_11
REMARK                            x       y       z     vdW  Elec       q    Type
REMARK                         _______ _______ _______ _____ _____    ______ ____
ROOT
ATOM      1  C   UNL     1       4.882   4.985  17.563  0.00  0.00    +0.000 A 
ATOM      2  C   UNL     1       5.476   6.251  17.773  0.00  0.00    +0.000 A 
ATOM      3  C   UNL     1       6.554   6.738  17.020  0.00  0.00    +0.000 A 
ATOM      4  C   UNL     1       7.051   5.943  15.990  0.00  0.00    +0.000 A 
ATOM      5  C   UNL     1       6.497   4.680  15.759  0.00  0.00    +0.000 A 
ATOM      6  C   UNL     1       5.428   4.217  16.535  0.00  0.00    +0.000 A 
ATOM      7  F   UNL     1       4.937   3.010  16.232  0.00  0.00    +0.000 F 
ENDROOT
BRANCH   1  11
ATOM      8  N   UNL     1       4.810   1.885  20.664  0.00  0.00    +0.000 N 
ATOM      9  C   UNL     1       4.258   2.570  19.638  0.00  0.00    +0.000 C 
ATOM     10  N   UNL     1       4.190   3.849  19.623  0.00  0.00    +0.000 NA
ATOM     11  C   UNL     1       3.668   4.566  18.432  0.00  0.00    +0.000 C 
ATOM     12  C   UNL     1       2.749   3.703  17.588  0.00  0.00    +0.000 C 
ATOM     13  C   UNL     1       1.643   2.840  18.167  0.00  0.00    +0.000 C 
ATOM     14  C   UNL     1       2.917   2.222  17.668  0.00  0.00    +0.000 C 
ATOM     15  O   UNL     1       3.787   1.724  18.693  0.00  0.00    +0.000 OA
ATOM     16  H   UNL     1       4.816   2.397  21.537  0.00  0.00    +0.000 HD
ATOM     17  H   UNL     1       4.520   0.920  20.728  0.00  0.00    +0.000 HD
BRANCH  11  18
ATOM     18  C   UNL     1       2.823   5.772  18.965  0.00  0.00    +0.000 C 
ATOM     19  F   UNL     1       1.990   5.373  19.971  0.00  0.00    +0.000 F 
ATOM     20  F   UNL     1       2.001   6.262  17.996  0.00  0.00    +0.000 F 
ENDBRANCH  11  18
ENDBRANCH   1  11
BRANCH   3  21
ATOM     21  N   UNL     1       7.125   8.008  17.270  0.00  0.00    +0.000 N 
ATOM     22  C   UNL     1       8.095   8.282  18.231  0.00  0.00    +0.000 C 
ATOM     23  O   UNL     1       8.642   7.472  18.967  0.00  0.00    +0.000 OA
ATOM     24  H   UNL     1       6.877   8.785  16.664  0.00  0.00    +0.000 HD
BRANCH  22  25
ATOM     25  C   UNL     1       8.533   9.710  18.318  0.00  0.00    +0.000 A 
ATOM     26  C   UNL     1       9.563  10.053  19.199  0.00  0.00    +0.000 A 
ATOM     27  C   UNL     1      10.020  11.368  19.217  0.00  0.00    +0.000 A 
ATOM     28  C   UNL     1       9.436  12.292  18.363  0.00  0.00    +0.000 A 
ATOM     29 CL   UNL     1       9.986  13.916  18.325  0.00  0.00    +0.000 Cl
ATOM     30  C   UNL     1       8.403  11.869  17.528  0.00  0.00    +0.000 A 
ATOM     31  N   UNL     1       7.929  10.595  17.480  0.00  0.00    +0.000 NA
ENDBRANCH  22  25
ENDBRANCH   3  21
TORSDOF 4
ENDMDL
MODEL 6
REMARK VINA RESULT:      -8.7      2.799      4.054
REMARK  Name = 
REMARK  4 active torsions:
REMARK  status: ('A' for Active; 'I' for Inactive)
REMARK    1  A    between atoms: C_4  and  C_5
REMARK    2  A    between atoms: C_4  and  C_22
REMARK    3  A    between atoms: C_7  and  N_8
REMARK    4  A    between atoms: C_9  and  C_11
REMARK                            x       y       z     vdW  Elec       q    Type
REMARK                         _______ _______ _______ _____ _____    ______ ____
ROOT
ATOM      1  C   UNL     1       2.521   6.539  18.977  0.00  0.00    +0.000 A 
ATOM      2  C   UNL     1       1.616   7.427  19.602  0.00  0.00    +0.000 A 
ATOM      3  C   UNL     1       1.453   8.767  19.221  0.00  0.00    +0.000 A 
ATOM      4  C   UNL     1       2.205   9.243  18.149  0.00  0.00    +0.000 A 
ATOM      5  C   UNL     1       3.119   8.398  17.514  0.00  0.00    +0.000 A 
ATOM      6  C   UNL     1       3.267   7.068  17.924  0.00  0.00    +0.000 A 
ATOM      7  F   UNL     1       4.142   6.317  17.245  0.00  0.00    +0.000 F 
ENDROOT
BRANCH   1  11
ATOM      8  N   UNL     1       6.003   3.879  18.826  0.00  0.00    +0.000 N 
ATOM      9  C   UNL     1       4.679   4.130  18.725  0.00  0.00    +0.000 C 
ATOM     10  N   UNL     1       4.019   4.718  19.651  0.00  0.00    +0.000 NA
ATOM     11  C   UNL     1       2.588   5.067  19.458  0.00  0.00    +0.000 C 
ATOM     12  C   UNL     1       1.911   4.191  18.419  0.00  0.00    +0.000 C 
ATOM     13  C   UNL     1       2.062   2.682  18.366  0.00  0.00    +0.000 C 
ATOM     14  C   UNL     1       2.768   3.560  17.374  0.00  0.00    +0.000 C 
ATOM     15  O   UNL     1       4.187   3.655  17.557  0.00  0.00    +0.000 OA
ATOM     16  H   UNL     1       6.337   3.840  19.780  0.00  0.00    +0.000 HD
ATOM     17  H   UNL     1       6.339   3.144  18.219  0.00  0.00    +0.000 HD
BRANCH  11  18
ATOM     18  C   UNL     1       1.872   4.812  20.827  0.00  0.00    +0.000 C 
ATOM     19  F   UNL     1       2.478   3.797  21.510  0.00  0.00    +0.000 F 
ATOM     20  F   UNL     1       0.588   4.398  20.640  0.00  0.00    +0.000 F 
ENDBRANCH  11  18
ENDBRANCH   1  11
BRANCH   3  21
ATOM     21  N   UNL     1       0.542   9.625  19.880  0.00  0.00    +0.000 N 
ATOM     22  C   UNL     1       0.619  10.012  21.215  0.00  0.00    +0.000 C 
ATOM     23  O   UNL     1       1.505   9.722  22.009  0.00  0.00    +0.000 OA
ATOM     24  H   UNL     1      -0.197  10.065  19.339  0.00  0.00    +0.000 HD
BRANCH  22  25
ATOM     25  C   UNL     1      -0.474  10.917  21.690  0.00  0.00    +0.000 A 
ATOM     26  C   UNL     1      -1.156  11.705  20.758  0.00  0.00    +0.000 A 
ATOM     27  C   UNL     1      -2.224  12.485  21.193  0.00  0.00    +0.000 A 
ATOM     28  C   UNL     1      -2.572  12.454  22.536  0.00  0.00    +0.000 A 
ATOM     29 CL   UNL     1      -3.901  13.373  23.115  0.00  0.00    +0.000 Cl
ATOM     30  C   UNL     1      -1.828  11.653  23.400  0.00  0.00    +0.000 A 
ATOM     31  N   UNL     1      -0.780  10.877  23.014  0.00  0.00    +0.000 NA
ENDBRANCH  22  25
ENDBRANCH   3  21
TORSDOF 4
ENDMDL
MODEL 7
REMARK VINA RESULT:      -8.7      2.642      3.905
REMARK  Name = 
REMARK  4 active torsions:
REMARK  status: ('A' for Active; 'I' for Inactive)
REMARK    1  A    between atoms: C_4  and  C_5
REMARK    2  A    between atoms: C_4  and  C_22
REMARK    3  A    between atoms: C_7  and  N_8
REMARK    4  A    between atoms: C_9  and  C_11
REMARK                            x       y       z     vdW  Elec       q    Type
REMARK                         _______ _______ _______ _____ _____    ______ ____
ROOT
ATOM      1  C   UNL     1       2.508   6.353  19.025  0.00  0.00    +0.000 A 
ATOM      2  C   UNL     1       1.760   7.285  19.781  0.00  0.00    +0.000 A 
ATOM      3  C   UNL     1       1.631   8.639  19.438  0.00  0.00    +0.000 A 
ATOM      4  C   UNL     1       2.251   9.086  18.274  0.00  0.00    +0.000 A 
ATOM      5  C   UNL     1       3.009   8.196  17.507  0.00  0.00    +0.000 A 
ATOM      6  C   UNL     1       3.128   6.852  17.880  0.00  0.00    +0.000 A 
ATOM      7  F   UNL     1       3.847   6.061  17.076  0.00  0.00    +0.000 F 
ENDROOT
BRANCH   1  11
ATOM      8  N   UNL     1       5.933   3.625  18.798  0.00  0.00    +0.000 N 
ATOM      9  C   UNL     1       4.614   3.905  18.712  0.00  0.00    +0.000 C 
ATOM     10  N   UNL     1       3.973   4.490  19.654  0.00  0.00    +0.000 NA
ATOM     11  C   UNL     1       2.548   4.871  19.479  0.00  0.00    +0.000 C 
ATOM     12  C   UNL     1       1.845   4.029  18.430  0.00  0.00    +0.000 C 
ATOM     13  C   UNL     1       1.964   2.518  18.349  0.00  0.00    +0.000 C 
ATOM     14  C   UNL     1       2.681   3.399  17.367  0.00  0.00    +0.000 C 
ATOM     15  O   UNL     1       4.103   3.461  17.540  0.00  0.00    +0.000 OA
ATOM     16  H   UNL     1       6.274   3.562  19.749  0.00  0.00    +0.000 HD
ATOM     17  H   UNL     1       6.249   2.894  18.175  0.00  0.00    +0.000 HD
BRANCH  11  18
ATOM     18  C   UNL     1       1.838   4.606  20.849  0.00  0.00    +0.000 C 
ATOM     19  F   UNL     1       2.506   3.656  21.566  0.00  0.00    +0.000 F 
ATOM     20  F   UNL     1       0.587   4.099  20.664  0.00  0.00    +0.000 F 
ENDBRANCH  11  18
ENDBRANCH   1  11
BRANCH   3  21
ATOM     21  N   UNL     1       0.881   9.540  20.229  0.00  0.00    +0.000 N 
ATOM     22  C   UNL     1      -0.274  10.203  19.823  0.00  0.00    +0.000 C 
ATOM     23  O   UNL     1      -0.851  10.074  18.751  0.00  0.00    +0.000 OA
ATOM     24  H   UNL     1       1.145   9.676  21.201  0.00  0.00    +0.000 HD
BRANCH  22  25
ATOM     25  C   UNL     1      -0.882  11.121  20.836  0.00  0.00    +0.000 A 
ATOM     26  C   UNL     1      -0.790  10.793  22.192  0.00  0.00    +0.000 A 
ATOM     27  C   UNL     1      -1.287  11.689  23.134  0.00  0.00    +0.000 A 
ATOM     28  C   UNL     1      -1.860  12.874  22.695  0.00  0.00    +0.000 A 
ATOM     29 CL   UNL     1      -2.458  14.024  23.818  0.00  0.00    +0.000 Cl
ATOM     30  C   UNL     1      -1.926  13.114  21.324  0.00  0.00    +0.000 A 
ATOM     31  N   UNL     1      -1.452  12.266  20.373  0.00  0.00    +0.000 NA
ENDBRANCH  22  25
ENDBRANCH   3  21
TORSDOF 4
ENDMDL
MODEL 8
REMARK VINA RESULT:      -8.5      1.225      1.341
REMARK  Name = 
REMARK  4 active torsions:
REMARK  status: ('A' for Active; 'I' for Inactive)
REMARK    1  A    between atoms: C_4  and  C_5
REMARK    2  A    between atoms: C_4  and  C_22
REMARK    3  A    between atoms: C_7  and  N_8
REMARK    4  A    between atoms: C_9  and  C_11
REMARK                            x       y       z     vdW  Elec       q    Type
REMARK                         _______ _______ _______ _____ _____    ______ ____
ROOT
ATOM      1  C   UNL     1       3.323   5.495  18.850  0.00  0.00    +0.000 A 
ATOM      2  C   UNL     1       2.881   6.828  18.683  0.00  0.00    +0.000 A 
ATOM      3  C   UNL     1       1.977   7.460  19.548  0.00  0.00    +0.000 A 
ATOM      4  C   UNL     1       1.508   6.747  20.649  0.00  0.00    +0.000 A 
ATOM      5  C   UNL     1       1.914   5.423  20.840  0.00  0.00    +0.000 A 
ATOM      6  C   UNL     1       2.810   4.814  19.953  0.00  0.00    +0.000 A 
ATOM      7  F   UNL     1       3.170   3.554  20.224  0.00  0.00    +0.000 F 
ENDROOT
BRANCH   1  11
ATOM      8  N   UNL     1       7.646   5.103  19.468  0.00  0.00    +0.000 N 
ATOM      9  C   UNL     1       6.561   5.358  18.704  0.00  0.00    +0.000 C 
ATOM     10  N   UNL     1       5.574   4.547  18.622  0.00  0.00    +0.000 NA
ATOM     11  C   UNL     1       4.356   4.911  17.852  0.00  0.00    +0.000 C 
ATOM     12  C   UNL     1       4.633   5.953  16.783  0.00  0.00    +0.000 C 
ATOM     13  C   UNL     1       5.815   5.887  15.833  0.00  0.00    +0.000 C 
ATOM     14  C   UNL     1       5.803   6.858  16.979  0.00  0.00    +0.000 C 
ATOM     15  O   UNL     1       6.698   6.535  18.051  0.00  0.00    +0.000 OA
ATOM     16  H   UNL     1       7.790   4.119  19.654  0.00  0.00    +0.000 HD
ATOM     17  H   UNL     1       8.474   5.621  19.208  0.00  0.00    +0.000 HD
BRANCH  11  18
ATOM     18  C   UNL     1       3.874   3.609  17.127  0.00  0.00    +0.000 C 
ATOM     19  F   UNL     1       2.515   3.604  16.992  0.00  0.00    +0.000 F 
ATOM     20  F   UNL     1       4.163   2.501  17.864  0.00  0.00    +0.000 F 
ENDBRANCH  11  18
ENDBRANCH   1  11
BRANCH   3  21
ATOM     21  N   UNL     1       1.553   8.793  19.338  0.00  0.00    +0.000 N 
ATOM     22  C   UNL     1       1.092   9.659  20.326  0.00  0.00    +0.000 C 
ATOM     23  O   UNL     1       1.033   9.431  21.528  0.00  0.00    +0.000 OA
ATOM     24  H   UNL     1       1.650   9.198  18.411  0.00  0.00    +0.000 HD
BRANCH  22  25
ATOM     25  C   UNL     1       0.684  11.020  19.854  0.00  0.00    +0.000 A 
ATOM     26  C   UNL     1      -0.478  11.598  20.372  0.00  0.00    +0.000 A 
ATOM     27  C   UNL     1      -0.809  12.895  19.989  0.00  0.00    +0.000 A 
ATOM     28  C   UNL     1       0.024  13.566  19.105  0.00  0.00    +0.000 A 
ATOM     29 CL   UNL     1      -0.325  15.177  18.629  0.00  0.00    +0.000 Cl
ATOM     30  C   UNL     1       1.154  12.908  18.625  0.00  0.00    +0.000 A 
ATOM     31  N   UNL     1       1.512  11.644  18.975  0.00  0.00    +0.000 NA
ENDBRANCH  22  25
ENDBRANCH   3  21
TORSDOF 4
ENDMDL
MODEL 9
REMARK VINA RESULT:      -8.5      2.154      3.742
REMARK  Name = 
REMARK  4 active torsions:
REMARK  status: ('A' for Active; 'I' for Inactive)
REMARK    1  A    between atoms: C_4  and  C_5
REMARK    2  A    between atoms: C_4  and  C_22
REMARK    3  A    between atoms: C_7  and  N_8
REMARK    4  A    between atoms: C_9  and  C_11
REMARK                            x       y       z     vdW  Elec       q    Type
REMARK                         _______ _______ _______ _____ _____    ______ ____
ROOT
ATOM      1  C   UNL     1       3.158   5.324  18.571  0.00  0.00    +0.000 A 
ATOM      2  C   UNL     1       2.741   6.661  18.767  0.00  0.00    +0.000 A 
ATOM      3  C   UNL     1       3.215   7.741  18.009  0.00  0.00    +0.000 A 
ATOM      4  C   UNL     1       4.127   7.481  16.989  0.00  0.00    +0.000 A 
ATOM      5  C   UNL     1       4.571   6.173  16.773  0.00  0.00    +0.000 A 
ATOM      6  C   UNL     1       4.088   5.116  17.552  0.00  0.00    +0.000 A 
ATOM      7  F   UNL     1       4.541   3.891  17.263  0.00  0.00    +0.000 F 
ENDROOT
BRANCH   1  11
ATOM      8  N   UNL     1       5.100   1.611  19.862  0.00  0.00    +0.000 N 
ATOM      9  C   UNL     1       4.034   2.321  19.432  0.00  0.00    +0.000 C 
ATOM     10  N   UNL     1       3.649   3.398  20.008  0.00  0.00    +0.000 NA
ATOM     11  C   UNL     1       2.536   4.203  19.443  0.00  0.00    +0.000 C 
ATOM     12  C   UNL     1       1.604   3.379  18.573  0.00  0.00    +0.000 C 
ATOM     13  C   UNL     1       1.072   2.014  18.971  0.00  0.00    +0.000 C 
ATOM     14  C   UNL     1       2.153   2.146  17.937  0.00  0.00    +0.000 C 
ATOM     15  O   UNL     1       3.454   1.720  18.367  0.00  0.00    +0.000 OA
ATOM     16  H   UNL     1       5.324   1.765  20.836  0.00  0.00    +0.000 HD
ATOM     17  H   UNL     1       5.111   0.646  19.561  0.00  0.00    +0.000 HD
BRANCH  11  18
ATOM     18  C   UNL     1       1.700   4.733  20.657  0.00  0.00    +0.000 C 
ATOM     19  F   UNL     1       1.912   3.962  21.764  0.00  0.00    +0.000 F 
ATOM     20  F   UNL     1       0.363   4.641  20.411  0.00  0.00    +0.000 F 
ENDBRANCH  11  18
ENDBRANCH   1  11
BRANCH   3  21
ATOM     21  N   UNL     1       2.779   9.066  18.246  0.00  0.00    +0.000 N 
ATOM     22  C   UNL     1       1.502   9.554  17.986  0.00  0.00    +0.000 C 
ATOM     23  O   UNL     1       0.546   8.913  17.570  0.00  0.00    +0.000 OA
ATOM     24  H   UNL     1       3.411   9.714  18.708  0.00  0.00    +0.000 HD
BRANCH  22  25
ATOM     25  C   UNL     1       1.285  11.000  18.307  0.00  0.00    +0.000 A 
ATOM     26  C   UNL     1       2.339  11.900  18.130  0.00  0.00    +0.000 A 
ATOM     27  C   UNL     1       2.109  13.255  18.353  0.00  0.00    +0.000 A 
ATOM     28  C   UNL     1       0.843  13.663  18.748  0.00  0.00    +0.000 A 
ATOM     29 CL   UNL     1       0.501  15.324  19.006  0.00  0.00    +0.000 Cl
ATOM     30  C   UNL     1      -0.146  12.696  18.918  0.00  0.00    +0.000 A 
ATOM     31  N   UNL     1       0.038  11.365  18.708  0.00  0.00    +0.000 NA
ENDBRANCH  22  25
ENDBRANCH   3  21
TORSDOF 4
ENDMDL
