MODEL 1
REMARK VINA RESULT:      -7.2      0.000      0.000
REMARK  Name = 
REMARK  4 active torsions:
REMARK  status: ('A' for Active; 'I' for Inactive)
REMARK    1  A    between atoms: C_1  and  O_2
REMARK    2  A    between atoms: O_2  and  C_3
REMARK    3  A    between atoms: C_10  and  N_11
REMARK    4  A    between atoms: N_11  and  C_12
REMARK                            x       y       z     vdW  Elec       q    Type
REMARK                         _______ _______ _______ _____ _____    ______ ____
ROOT
ATOM      1  C   UNL     1       6.831   5.099  15.057  0.00  0.00    +0.000 A 
ATOM      2  C   UNL     1       6.287   3.846  14.742  0.00  0.00    +0.000 A 
ATOM      3  C   UNL     1       5.206   3.335  15.475  0.00  0.00    +0.000 A 
ATOM      4  C   UNL     1       4.655   4.070  16.538  0.00  0.00    +0.000 A 
ATOM      5  C   UNL     1       5.189   5.342  16.837  0.00  0.00    +0.000 A 
ATOM      6  C   UNL     1       6.276   5.836  16.111  0.00  0.00    +0.000 A 
ATOM      7  C   UNL     1       4.624   6.212  17.918  0.00  0.00    +0.000 C 
ATOM      8  C   UNL     1       3.240   5.763  18.400  0.00  0.00    +0.000 C 
ATOM      9  C   UNL     1       3.252   4.258  18.661  0.00  0.00    +0.000 C 
ATOM     10  C   UNL     1       3.504   3.497  17.341  0.00  0.00    +0.000 C 
ENDROOT
BRANCH   1  12
ATOM     11  C   UNL     1       8.022   5.428  12.964  0.00  0.00    +0.000 C 
ATOM     12  O   UNL     1       7.879   5.571  14.330  0.00  0.00    +0.000 OA
ENDBRANCH   1  12
BRANCH   8  13
ATOM     13  N   UNL     1       2.933   6.522  19.601  0.00  0.00    +0.000 N 
ATOM     14  H   UNL     1       3.630   6.456  20.361  0.00  0.00    +0.000 HD
BRANCH  13  15
ATOM     15  C   UNL     1       2.108   7.693  19.592  0.00  0.00    +0.000 A 
ATOM     16  C   UNL     1       1.401   8.134  20.732  0.00  0.00    +0.000 A 
ATOM     17  C   UNL     1       0.591   9.272  20.667  0.00  0.00    +0.000 A 
ATOM     18  C   UNL     1       0.464   9.979  19.470  0.00  0.00    +0.000 A 
ATOM     19 CL   UNL     1      -0.565  11.397  19.395  0.00  0.00    +0.000 Cl
ATOM     20  C   UNL     1       1.157   9.554  18.335  0.00  0.00    +0.000 A 
ATOM     21  C   UNL     1       1.979   8.424  18.397  0.00  0.00    +0.000 A 
ENDBRANCH  13  15
ENDBRANCH   8  13
TORSDOF 3
ENDMDL
MODEL 2
REMARK VINA RESULT:      -7.2      3.625      7.125
REMARK  Name = 
REMARK  4 active torsions:
REMARK  status: ('A' for Active; 'I' for Inactive)
REMARK    1  A    between atoms: C_1  and  O_2
REMARK    2  A    between atoms: O_2  and  C_3
REMARK    3  A    between atoms: C_10  and  N_11
REMARK    4  A    between atoms: N_11  and  C_12
REMARK                            x       y       z     vdW  Elec       q    Type
REMARK                         _______ _______ _______ _____ _____    ______ ____
ROOT
ATOM      1  C   UNL     1       1.579   9.187  18.891  0.00  0.00    +0.000 A 
ATOM      2  C   UNL     1       1.114   8.919  20.186  0.00  0.00    +0.000 A 
ATOM      3  C   UNL     1       1.358   7.676  20.786  0.00  0.00    +0.000 A 
ATOM      4  C   UNL     1       2.070   6.679  20.098  0.00  0.00    +0.000 A 
ATOM      5  C   UNL     1       2.559   6.961  18.804  0.00  0.00    +0.000 A 
ATOM      6  C   UNL     1       2.296   8.196  18.208  0.00  0.00    +0.000 A 
ATOM      7  C   UNL     1       3.373   5.973  18.024  0.00  0.00    +0.000 C 
ATOM      8  C   UNL     1       3.911   4.820  18.878  0.00  0.00    +0.000 C 
ATOM      9  C   UNL     1       2.788   4.256  19.746  0.00  0.00    +0.000 C 
ATOM     10  C   UNL     1       2.306   5.330  20.746  0.00  0.00    +0.000 C 
ENDROOT
BRANCH   1  12
ATOM     11  C   UNL     1       0.711  11.456  18.975  0.00  0.00    +0.000 C 
ATOM     12  O   UNL     1       1.328  10.401  18.332  0.00  0.00    +0.000 OA
ENDBRANCH   1  12
BRANCH   8  13
ATOM     13  N   UNL     1       4.450   3.822  17.968  0.00  0.00    +0.000 N 
ATOM     14  H   UNL     1       3.893   2.957  17.875  0.00  0.00    +0.000 HD
BRANCH  13  15
ATOM     15  C   UNL     1       5.303   4.154  16.866  0.00  0.00    +0.000 A 
ATOM     16  C   UNL     1       6.616   4.641  17.042  0.00  0.00    +0.000 A 
ATOM     17  C   UNL     1       7.403   4.972  15.935  0.00  0.00    +0.000 A 
ATOM     18  C   UNL     1       6.894   4.834  14.642  0.00  0.00    +0.000 A 
ATOM     19 CL   UNL     1       7.884   5.266  13.260  0.00  0.00    +0.000 Cl
ATOM     20  C   UNL     1       5.596   4.355  14.454  0.00  0.00    +0.000 A 
ATOM     21  C   UNL     1       4.809   4.010  15.558  0.00  0.00    +0.000 A 
ENDBRANCH  13  15
ENDBRANCH   8  13
TORSDOF 3
ENDMDL
MODEL 3
REMARK VINA RESULT:      -7.1      0.189      1.097
REMARK  Name = 
REMARK  4 active torsions:
REMARK  status: ('A' for Active; 'I' for Inactive)
REMARK    1  A    between atoms: C_1  and  O_2
REMARK    2  A    between atoms: O_2  and  C_3
REMARK    3  A    between atoms: C_10  and  N_11
REMARK    4  A    between atoms: N_11  and  C_12
REMARK                            x       y       z     vdW  Elec       q    Type
REMARK                         _______ _______ _______ _____ _____    ______ ____
ROOT
ATOM      1  C   UNL     1       6.962   5.091  14.975  0.00  0.00    +0.000 A 
ATOM      2  C   UNL     1       6.379   3.863  14.633  0.00  0.00    +0.000 A 
ATOM      3  C   UNL     1       5.254   3.393  15.325  0.00  0.00    +0.000 A 
ATOM      4  C   UNL     1       4.696   4.144  16.373  0.00  0.00    +0.000 A 
ATOM      5  C   UNL     1       5.271   5.392  16.698  0.00  0.00    +0.000 A 
ATOM      6  C   UNL     1       6.402   5.844  16.015  0.00  0.00    +0.000 A 
ATOM      7  C   UNL     1       4.704   6.278  17.765  0.00  0.00    +0.000 C 
ATOM      8  C   UNL     1       3.288   5.884  18.196  0.00  0.00    +0.000 C 
ATOM      9  C   UNL     1       3.228   4.378  18.447  0.00  0.00    +0.000 C 
ATOM     10  C   UNL     1       3.495   3.614  17.131  0.00  0.00    +0.000 C 
ENDROOT
BRANCH   1  12
ATOM     11  C   UNL     1       8.181   5.504  12.913  0.00  0.00    +0.000 C 
ATOM     12  O   UNL     1       8.054   5.523  14.288  0.00  0.00    +0.000 OA
ENDBRANCH   1  12
BRANCH   8  13
ATOM     13  N   UNL     1       2.969   6.648  19.391  0.00  0.00    +0.000 N 
ATOM     14  H   UNL     1       3.681   6.621  20.141  0.00  0.00    +0.000 HD
BRANCH  13  15
ATOM     15  C   UNL     1       2.100   7.786  19.378  0.00  0.00    +0.000 A 
ATOM     16  C   UNL     1       1.872   8.555  18.217  0.00  0.00    +0.000 A 
ATOM     17  C   UNL     1       1.031   9.671  18.259  0.00  0.00    +0.000 A 
ATOM     18  C   UNL     1       0.415  10.044  19.456  0.00  0.00    +0.000 A 
ATOM     19 CL   UNL     1      -0.627  11.454  19.502  0.00  0.00    +0.000 Cl
ATOM     20  C   UNL     1       0.633   9.294  20.613  0.00  0.00    +0.000 A 
ATOM     21  C   UNL     1       1.463   8.168  20.572  0.00  0.00    +0.000 A 
ENDBRANCH  13  15
ENDBRANCH   8  13
TORSDOF 3
ENDMDL
MODEL 4
REMARK VINA RESULT:      -7.0      1.384      2.169
REMARK  Name = 
REMARK  4 active torsions:
REMARK  status: ('A' for Active; 'I' for Inactive)
REMARK    1  A    between atoms: C_1  and  O_2
REMARK    2  A    between atoms: O_2  and  C_3
REMARK    3  A    between atoms: C_10  and  N_11
REMARK    4  A    between atoms: N_11  and  C_12
REMARK                            x       y       z     vdW  Elec       q    Type
REMARK                         _______ _______ _______ _____ _____    ______ ____
ROOT
ATOM      1  C   UNL     1       5.146   5.402  16.351  0.00  0.00    +0.000 A 
ATOM      2  C   UNL     1       4.507   4.161  16.225  0.00  0.00    +0.000 A 
ATOM      3  C   UNL     1       3.483   3.795  17.110  0.00  0.00    +0.000 A 
ATOM      4  C   UNL     1       3.084   4.666  18.138  0.00  0.00    +0.000 A 
ATOM      5  C   UNL     1       3.713   5.925  18.246  0.00  0.00    +0.000 A 
ATOM      6  C   UNL     1       4.743   6.274  17.371  0.00  0.00    +0.000 A 
ATOM      7  C   UNL     1       3.310   6.933  19.280  0.00  0.00    +0.000 C 
ATOM      8  C   UNL     1       1.962   6.622  19.939  0.00  0.00    +0.000 C 
ATOM      9  C   UNL     1       1.921   5.153  20.356  0.00  0.00    +0.000 C 
ATOM     10  C   UNL     1       1.995   4.249  19.105  0.00  0.00    +0.000 C 
ENDROOT
BRANCH   1  12
ATOM     11  C   UNL     1       6.846   4.831  14.709  0.00  0.00    +0.000 C 
ATOM     12  O   UNL     1       6.136   5.733  15.479  0.00  0.00    +0.000 OA
ENDBRANCH   1  12
BRANCH   8  13
ATOM     13  N   UNL     1       1.821   7.515  21.078  0.00  0.00    +0.000 N 
ATOM     14  H   UNL     1       2.620   7.533  21.733  0.00  0.00    +0.000 HD
BRANCH  13  15
ATOM     15  C   UNL     1       0.990   8.682  21.054  0.00  0.00    +0.000 A 
ATOM     16  C   UNL     1       0.358   9.189  22.210  0.00  0.00    +0.000 A 
ATOM     17  C   UNL     1      -0.461  10.319  22.132  0.00  0.00    +0.000 A 
ATOM     18  C   UNL     1      -0.672  10.953  20.905  0.00  0.00    +0.000 A 
ATOM     19 CL   UNL     1      -1.713  12.361  20.814  0.00  0.00    +0.000 Cl
ATOM     20  C   UNL     1      -0.054  10.461  19.753  0.00  0.00    +0.000 A 
ATOM     21  C   UNL     1       0.777   9.338  19.829  0.00  0.00    +0.000 A 
ENDBRANCH  13  15
ENDBRANCH   8  13
TORSDOF 3
ENDMDL
MODEL 5
REMARK VINA RESULT:      -7.0      1.656      2.851
REMARK  Name = 
REMARK  4 active torsions:
REMARK  status: ('A' for Active; 'I' for Inactive)
REMARK    1  A    between atoms: C_1  and  O_2
REMARK    2  A    between atoms: O_2  and  C_3
REMARK    3  A    between atoms: C_10  and  N_11
REMARK    4  A    between atoms: N_11  and  C_12
REMARK                            x       y       z     vdW  Elec       q    Type
REMARK                         _______ _______ _______ _____ _____    ______ ____
ROOT
ATOM      1  C   UNL     1       4.572   4.757  16.572  0.00  0.00    +0.000 A 
ATOM      2  C   UNL     1       3.817   3.577  16.594  0.00  0.00    +0.000 A 
ATOM      3  C   UNL     1       2.823   3.386  17.565  0.00  0.00    +0.000 A 
ATOM      4  C   UNL     1       2.573   4.374  18.532  0.00  0.00    +0.000 A 
ATOM      5  C   UNL     1       3.319   5.572  18.491  0.00  0.00    +0.000 A 
ATOM      6  C   UNL     1       4.317   5.746  17.531  0.00  0.00    +0.000 A 
ATOM      7  C   UNL     1       3.077   6.697  19.452  0.00  0.00    +0.000 C 
ATOM      8  C   UNL     1       1.752   6.573  20.212  0.00  0.00    +0.000 C 
ATOM      9  C   UNL     1       1.605   5.155  20.760  0.00  0.00    +0.000 C 
ATOM     10  C   UNL     1       1.515   4.147  19.593  0.00  0.00    +0.000 C 
ENDROOT
BRANCH   1  12
ATOM     11  C   UNL     1       6.823   4.441  15.710  0.00  0.00    +0.000 C 
ATOM     12  O   UNL     1       5.529   4.916  15.619  0.00  0.00    +0.000 OA
ENDBRANCH   1  12
BRANCH   8  13
ATOM     13  N   UNL     1       1.767   7.568  21.273  0.00  0.00    +0.000 N 
ATOM     14  H   UNL     1       2.654   7.647  21.798  0.00  0.00    +0.000 HD
BRANCH  13  15
ATOM     15  C   UNL     1       0.925   8.726  21.265  0.00  0.00    +0.000 A 
ATOM     16  C   UNL     1       0.694   9.490  20.100  0.00  0.00    +0.000 A 
ATOM     17  C   UNL     1      -0.119  10.626  20.146  0.00  0.00    +0.000 A 
ATOM     18  C   UNL     1      -0.703  11.025  21.350  0.00  0.00    +0.000 A 
ATOM     19 CL   UNL     1      -1.709  12.461  21.402  0.00  0.00    +0.000 Cl
ATOM     20  C   UNL     1      -0.482  10.281  22.511  0.00  0.00    +0.000 A 
ATOM     21  C   UNL     1       0.320   9.135  22.466  0.00  0.00    +0.000 A 
ENDBRANCH  13  15
ENDBRANCH   8  13
TORSDOF 3
ENDMDL
MODEL 6
REMARK VINA RESULT:      -6.9      4.150      8.355
REMARK  Name = 
REMARK  4 active torsions:
REMARK  status: ('A' for Active; 'I' for Inactive)
REMARK    1  A    between atoms: C_1  and  O_2
REMARK    2  A    between atoms: O_2  and  C_3
REMARK    3  A    between atoms: C_10  and  N_11
REMARK    4  A    between atoms: N_11  and  C_12
REMARK                            x       y       z     vdW  Elec       q    Type
REMARK                         _______ _______ _______ _____ _____    ______ ____
ROOT
ATOM      1  C   UNL     1      -0.487  10.576  21.849  0.00  0.00    +0.000 A 
ATOM      2  C   UNL     1      -0.819  11.212  20.645  0.00  0.00    +0.000 A 
ATOM      3  C   UNL     1      -0.263  10.776  19.434  0.00  0.00    +0.000 A 
ATOM      4  C   UNL     1       0.638   9.698  19.410  0.00  0.00    +0.000 A 
ATOM      5  C   UNL     1       0.951   9.044  20.622  0.00  0.00    +0.000 A 
ATOM      6  C   UNL     1       0.404   9.496  21.825  0.00  0.00    +0.000 A 
ATOM      7  C   UNL     1       1.859   7.854  20.676  0.00  0.00    +0.000 C 
ATOM      8  C   UNL     1       2.111   7.217  19.305  0.00  0.00    +0.000 C 
ATOM      9  C   UNL     1       2.459   8.305  18.290  0.00  0.00    +0.000 C 
ATOM     10  C   UNL     1       1.253   9.252  18.099  0.00  0.00    +0.000 C 
ENDROOT
BRANCH   1  12
ATOM     11  C   UNL     1      -2.138  11.855  23.094  0.00  0.00    +0.000 C 
ATOM     12  O   UNL     1      -1.041  11.019  23.009  0.00  0.00    +0.000 OA
ENDBRANCH   1  12
BRANCH   8  13
ATOM     13  N   UNL     1       3.190   6.256  19.465  0.00  0.00    +0.000 N 
ATOM     14  H   UNL     1       3.184   5.722  20.350  0.00  0.00    +0.000 HD
BRANCH  13  15
ATOM     15  C   UNL     1       3.858   5.644  18.355  0.00  0.00    +0.000 A 
ATOM     16  C   UNL     1       3.371   4.479  17.724  0.00  0.00    +0.000 A 
ATOM     17  C   UNL     1       4.071   3.906  16.657  0.00  0.00    +0.000 A 
ATOM     18  C   UNL     1       5.266   4.475  16.212  0.00  0.00    +0.000 A 
ATOM     19 CL   UNL     1       6.144   3.741  14.883  0.00  0.00    +0.000 Cl
ATOM     20  C   UNL     1       5.759   5.627  16.828  0.00  0.00    +0.000 A 
ATOM     21  C   UNL     1       5.056   6.211  17.887  0.00  0.00    +0.000 A 
ENDBRANCH  13  15
ENDBRANCH   8  13
TORSDOF 3
ENDMDL
MODEL 7
REMARK VINA RESULT:      -6.9      4.064      8.119
REMARK  Name = 
REMARK  4 active torsions:
REMARK  status: ('A' for Active; 'I' for Inactive)
REMARK    1  A    between atoms: C_1  and  O_2
REMARK    2  A    between atoms: O_2  and  C_3
REMARK    3  A    between atoms: C_10  and  N_11
REMARK    4  A    between atoms: N_11  and  C_12
REMARK                            x       y       z     vdW  Elec       q    Type
REMARK                         _______ _______ _______ _____ _____    ______ ____
ROOT
ATOM      1  C   UNL     1      -0.122   9.687  21.774  0.00  0.00    +0.000 A 
ATOM      2  C   UNL     1      -0.425  10.486  20.664  0.00  0.00    +0.000 A 
ATOM      3  C   UNL     1       0.160  10.222  19.417  0.00  0.00    +0.000 A 
ATOM      4  C   UNL     1       1.061   9.154  19.264  0.00  0.00    +0.000 A 
ATOM      5  C   UNL     1       1.344   8.336  20.379  0.00  0.00    +0.000 A 
ATOM      6  C   UNL     1       0.769   8.617  21.620  0.00  0.00    +0.000 A 
ATOM      7  C   UNL     1       2.250   7.146  20.287  0.00  0.00    +0.000 C 
ATOM      8  C   UNL     1       2.534   6.707  18.847  0.00  0.00    +0.000 C 
ATOM      9  C   UNL     1       2.907   7.925  18.004  0.00  0.00    +0.000 C 
ATOM     10  C   UNL     1       1.707   8.894  17.918  0.00  0.00    +0.000 C 
ENDROOT
BRANCH   1  12
ATOM     11  C   UNL     1      -1.563  11.020  23.208  0.00  0.00    +0.000 C 
ATOM     12  O   UNL     1      -0.704   9.965  22.972  0.00  0.00    +0.000 OA
ENDBRANCH   1  12
BRANCH   8  13
ATOM     13  N   UNL     1       3.608   5.728  18.896  0.00  0.00    +0.000 N 
ATOM     14  H   UNL     1       3.446   4.919  19.519  0.00  0.00    +0.000 HD
BRANCH  13  15
ATOM     15  C   UNL     1       4.529   5.529  17.818  0.00  0.00    +0.000 A 
ATOM     16  C   UNL     1       5.719   6.279  17.685  0.00  0.00    +0.000 A 
ATOM     17  C   UNL     1       6.576   6.063  16.602  0.00  0.00    +0.000 A 
ATOM     18  C   UNL     1       6.259   5.109  15.632  0.00  0.00    +0.000 A 
ATOM     19 CL   UNL     1       7.334   4.856  14.270  0.00  0.00    +0.000 Cl
ATOM     20  C   UNL     1       5.085   4.362  15.750  0.00  0.00    +0.000 A 
ATOM     21  C   UNL     1       4.231   4.565  16.839  0.00  0.00    +0.000 A 
ENDBRANCH  13  15
ENDBRANCH   8  13
TORSDOF 3
ENDMDL
MODEL 8
REMARK VINA RESULT:      -6.9      1.114      1.858
REMARK  Name = 
REMARK  4 active torsions:
REMARK  status: ('A' for Active; 'I' for Inactive)
REMARK    1  A    between atoms: C_1  and  O_2
REMARK    2  A    between atoms: O_2  and  C_3
REMARK    3  A    between atoms: C_10  and  N_11
REMARK    4  A    between atoms: N_11  and  C_12
REMARK                            x       y       z     vdW  Elec       q    Type
REMARK                         _______ _______ _______ _____ _____    ______ ____
ROOT
ATOM      1  C   UNL     1       5.458   5.365  15.696  0.00  0.00    +0.000 A 
ATOM      2  C   UNL     1       5.076   4.021  15.814  0.00  0.00    +0.000 A 
ATOM      3  C   UNL     1       4.219   3.613  16.845  0.00  0.00    +0.000 A 
ATOM      4  C   UNL     1       3.733   4.544  17.779  0.00  0.00    +0.000 A 
ATOM      5  C   UNL     1       4.100   5.901  17.643  0.00  0.00    +0.000 A 
ATOM      6  C   UNL     1       4.967   6.295  16.621  0.00  0.00    +0.000 A 
ATOM      7  C   UNL     1       3.582   6.964  18.563  0.00  0.00    +0.000 C 
ATOM      8  C   UNL     1       2.380   6.513  19.399  0.00  0.00    +0.000 C 
ATOM      9  C   UNL     1       2.670   5.147  20.018  0.00  0.00    +0.000 C 
ATOM     10  C   UNL     1       2.828   4.088  18.906  0.00  0.00    +0.000 C 
ENDROOT
BRANCH   1  12
ATOM     11  C   UNL     1       7.135   4.879  14.005  0.00  0.00    +0.000 C 
ATOM     12  O   UNL     1       6.290   5.734  14.686  0.00  0.00    +0.000 OA
ENDBRANCH   1  12
BRANCH   8  13
ATOM     13  N   UNL     1       2.150   7.532  20.411  0.00  0.00    +0.000 N 
ATOM     14  H   UNL     1       2.919   7.670  21.088  0.00  0.00    +0.000 HD
BRANCH  13  15
ATOM     15  C   UNL     1       1.270   8.644  20.209  0.00  0.00    +0.000 A 
ATOM     16  C   UNL     1       1.187   9.334  18.980  0.00  0.00    +0.000 A 
ATOM     17  C   UNL     1       0.328  10.428  18.838  0.00  0.00    +0.000 A 
ATOM     18  C   UNL     1      -0.450  10.857  19.916  0.00  0.00    +0.000 A 
ATOM     19 CL   UNL     1      -1.513  12.240  19.732  0.00  0.00    +0.000 Cl
ATOM     20  C   UNL     1      -0.376  10.185  21.137  0.00  0.00    +0.000 A 
ATOM     21  C   UNL     1       0.472   9.082  21.280  0.00  0.00    +0.000 A 
ENDBRANCH  13  15
ENDBRANCH   8  13
TORSDOF 3
ENDMDL
MODEL 9
REMARK VINA RESULT:      -6.9      4.204      8.301
REMARK  Name = 
REMARK  4 active torsions:
REMARK  status: ('A' for Active; 'I' for Inactive)
REMARK    1  A    between atoms: C_1  and  O_2
REMARK    2  A    between atoms: O_2  and  C_3
REMARK    3  A    between atoms: C_10  and  N_11
REMARK    4  A    between atoms: N_11  and  C_12
REMARK                            x       y       z     vdW  Elec       q    Type
REMARK                         _______ _______ _______ _____ _____    ______ ____
ROOT
ATOM      1  C   UNL     1      -0.168  10.797  21.934  0.00  0.00    +0.000 A 
ATOM      2  C   UNL     1      -0.440  11.372  20.686  0.00  0.00    +0.000 A 
ATOM      3  C   UNL     1       0.053  10.788  19.511  0.00  0.00    +0.000 A 
ATOM      4  C   UNL     1       0.829   9.618  19.567  0.00  0.00    +0.000 A 
ATOM      5  C   UNL     1       1.081   9.028  20.825  0.00  0.00    +0.000 A 
ATOM      6  C   UNL     1       0.599   9.626  21.991  0.00  0.00    +0.000 A 
ATOM      7  C   UNL     1       1.854   7.752  20.968  0.00  0.00    +0.000 C 
ATOM      8  C   UNL     1       2.020   6.990  19.649  0.00  0.00    +0.000 C 
ATOM      9  C   UNL     1       2.476   7.953  18.554  0.00  0.00    +0.000 C 
ATOM     10  C   UNL     1       1.379   9.009  18.293  0.00  0.00    +0.000 C 
ENDROOT
BRANCH   1  12
ATOM     11  C   UNL     1      -1.375  12.565  23.086  0.00  0.00    +0.000 C 
ATOM     12  O   UNL     1      -0.659  11.384  23.059  0.00  0.00    +0.000 OA
ENDBRANCH   1  12
BRANCH   8  13
ATOM     13  N   UNL     1       2.989   5.930  19.880  0.00  0.00    +0.000 N 
ATOM     14  H   UNL     1       2.805   5.328  20.699  0.00  0.00    +0.000 HD
BRANCH  13  15
ATOM     15  C   UNL     1       3.780   5.357  18.832  0.00  0.00    +0.000 A 
ATOM     16  C   UNL     1       5.166   5.596  18.708  0.00  0.00    +0.000 A 
ATOM     17  C   UNL     1       5.891   5.031  17.655  0.00  0.00    +0.000 A 
ATOM     18  C   UNL     1       5.249   4.232  16.707  0.00  0.00    +0.000 A 
ATOM     19 CL   UNL     1       6.165   3.540  15.381  0.00  0.00    +0.000 Cl
ATOM     20  C   UNL     1       3.879   3.988  16.816  0.00  0.00    +0.000 A 
ATOM     21  C   UNL     1       3.151   4.541  17.876  0.00  0.00    +0.000 A 
ENDBRANCH  13  15
ENDBRANCH   8  13
TORSDOF 3
ENDMDL
