MODEL 1
REMARK VINA RESULT:      -7.7      0.000      0.000
REMARK  Name = 
REMARK  10 active torsions:
REMARK  status: ('A' for Active; 'I' for Inactive)
REMARK    1  A    between atoms: C_1  and  C_2
REMARK    2  A    between atoms: C_5  and  C_6
REMARK    3  A    between atoms: N_7  and  C_8
REMARK    4  A    between atoms: C_11  and  C_12
REMARK    5  A    between atoms: N_14  and  N_15
REMARK    6  A    between atoms: C_16  and  C_17
REMARK    7  A    between atoms: C_20  and  O_21
REMARK    8  A    between atoms: O_21  and  C_22
REMARK    9  A    between atoms: C_22  and  C_23
REMARK   10  A    between atoms: C_23  and  O_25
REMARK                            x       y       z     vdW  Elec       q    Type
REMARK                         _______ _______ _______ _____ _____    ______ ____
ROOT
ATOM      1  C   UNL     1       7.168   7.435  17.399  0.00  0.00    +0.000 C 
ATOM      2  O   UNL     1       8.011   7.078  16.576  0.00  0.00    +0.000 OA
ATOM      3  N   UNL     1       7.188   8.671  18.039  0.00  0.00    +0.000 N 
ATOM      4  H   UNL     1       6.462   8.965  18.679  0.00  0.00    +0.000 HD
ENDROOT
BRANCH   1   8
ATOM      5  C   UNL     1       4.017   4.685  18.540  0.00  0.00    +0.000 A 
ATOM      6  C   UNL     1       5.265   4.690  19.169  0.00  0.00    +0.000 A 
ATOM      7  C   UNL     1       6.258   5.599  18.785  0.00  0.00    +0.000 A 
ATOM      8  C   UNL     1       6.053   6.499  17.731  0.00  0.00    +0.000 A 
ATOM      9  C   UNL     1       4.816   6.475  17.078  0.00  0.00    +0.000 A 
ATOM     10  C   UNL     1       3.808   5.588  17.491  0.00  0.00    +0.000 A 
BRANCH   5  17
ATOM     11  C   UNL     1       3.619   1.707  17.616  0.00  0.00    +0.000 C 
ATOM     12  C   UNL     1       2.741   2.489  18.535  0.00  0.00    +0.000 A 
ATOM     13  C   UNL     1       1.618   2.001  19.176  0.00  0.00    +0.000 A 
ATOM     14  C   UNL     1       1.151   2.992  20.046  0.00  0.00    +0.000 A 
ATOM     15  C   UNL     1       1.975   4.094  19.921  0.00  0.00    +0.000 A 
ATOM     16  C   UNL     1       1.764   5.412  20.592  0.00  0.00    +0.000 C 
ATOM     17  N   UNL     1       2.972   3.800  18.978  0.00  0.00    +0.000 N 
ENDBRANCH   5  17
ENDBRANCH   1   8
BRANCH   3  18
ATOM     18  N   UNL     1       8.194   9.541  17.737  0.00  0.00    +0.000 NA
ATOM     19  C   UNL     1       8.464  10.440  18.630  0.00  0.00    +0.000 C 
BRANCH  19  20
ATOM     20  C   UNL     1       9.509  11.452  18.384  0.00  0.00    +0.000 A 
ATOM     21  C   UNL     1       9.283  12.765  18.802  0.00  0.00    +0.000 A 
ATOM     22  C   UNL     1      10.252  13.737  18.555  0.00  0.00    +0.000 A 
ATOM     23  C   UNL     1      11.459  13.400  17.933  0.00  0.00    +0.000 A 
ATOM     24  C   UNL     1      11.673  12.093  17.502  0.00  0.00    +0.000 A 
ATOM     25  C   UNL     1      10.696  11.117  17.726  0.00  0.00    +0.000 A 
BRANCH  23  26
ATOM     26  O   UNL     1      12.333  14.442  17.781  0.00  0.00    +0.000 OA
BRANCH  26  27
ATOM     27  C   UNL     1      11.946  15.450  16.840  0.00  0.00    +0.000 C 
BRANCH  27  28
ATOM     28  C   UNL     1      11.714  16.750  17.597  0.00  0.00    +0.000 C 
ATOM     29  O   UNL     1      12.015  16.922  18.769  0.00  0.00    +0.000 OA
BRANCH  28  30
ATOM     30  O   UNL     1      11.121  17.716  16.850  0.00  0.00    +0.000 OA
ATOM     31  H   UNL     1      11.434  18.598  17.146  0.00  0.00    +0.000 HD
ENDBRANCH  28  30
ENDBRANCH  27  28
ENDBRANCH  26  27
ENDBRANCH  23  26
ENDBRANCH  19  20
ENDBRANCH   3  18
TORSDOF 8
ENDMDL
MODEL 2
REMARK VINA RESULT:      -7.6      7.112     11.145
REMARK  Name = 
REMARK  10 active torsions:
REMARK  status: ('A' for Active; 'I' for Inactive)
REMARK    1  A    between atoms: C_1  and  C_2
REMARK    2  A    between atoms: C_5  and  C_6
REMARK    3  A    between atoms: N_7  and  C_8
REMARK    4  A    between atoms: C_11  and  C_12
REMARK    5  A    between atoms: N_14  and  N_15
REMARK    6  A    between atoms: C_16  and  C_17
REMARK    7  A    between atoms: C_20  and  O_21
REMARK    8  A    between atoms: O_21  and  C_22
REMARK    9  A    between atoms: C_22  and  C_23
REMARK   10  A    between atoms: C_23  and  O_25
REMARK                            x       y       z     vdW  Elec       q    Type
REMARK                         _______ _______ _______ _____ _____    ______ ____
ROOT
ATOM      1  C   UNL     1       0.873   9.714  21.635  0.00  0.00    +0.000 C 
ATOM      2  O   UNL     1       1.700   9.315  22.455  0.00  0.00    +0.000 OA
ATOM      3  N   UNL     1       0.802   9.255  20.322  0.00  0.00    +0.000 N 
ATOM      4  H   UNL     1       0.088   9.562  19.676  0.00  0.00    +0.000 HD
ENDROOT
BRANCH   1   8
ATOM      5  C   UNL     1      -1.976  12.800  22.710  0.00  0.00    +0.000 A 
ATOM      6  C   UNL     1      -1.004  12.994  21.724  0.00  0.00    +0.000 A 
ATOM      7  C   UNL     1      -0.106  11.973  21.392  0.00  0.00    +0.000 A 
ATOM      8  C   UNL     1      -0.118  10.744  22.065  0.00  0.00    +0.000 A 
ATOM      9  C   UNL     1      -1.069  10.558  23.074  0.00  0.00    +0.000 A 
ATOM     10  C   UNL     1      -1.994  11.571  23.380  0.00  0.00    +0.000 A 
BRANCH   5  17
ATOM     11  C   UNL     1      -1.606  15.146  24.770  0.00  0.00    +0.000 C 
ATOM     12  C   UNL     1      -2.823  14.841  23.962  0.00  0.00    +0.000 A 
ATOM     13  C   UNL     1      -3.987  15.587  23.957  0.00  0.00    +0.000 A 
ATOM     14  C   UNL     1      -4.835  15.058  22.978  0.00  0.00    +0.000 A 
ATOM     15  C   UNL     1      -4.200  13.975  22.401  0.00  0.00    +0.000 A 
ATOM     16  C   UNL     1      -4.804  13.058  21.389  0.00  0.00    +0.000 C 
ATOM     17  N   UNL     1      -2.943  13.822  23.006  0.00  0.00    +0.000 N 
ENDBRANCH   5  17
ENDBRANCH   1   8
BRANCH   3  18
ATOM     18  N   UNL     1       1.695   8.306  19.919  0.00  0.00    +0.000 NA
ATOM     19  C   UNL     1       1.873   8.191  18.640  0.00  0.00    +0.000 C 
BRANCH  19  20
ATOM     20  C   UNL     1       2.788   7.169  18.099  0.00  0.00    +0.000 A 
ATOM     21  C   UNL     1       2.424   5.825  18.194  0.00  0.00    +0.000 A 
ATOM     22  C   UNL     1       3.289   4.846  17.707  0.00  0.00    +0.000 A 
ATOM     23  C   UNL     1       4.495   5.200  17.092  0.00  0.00    +0.000 A 
ATOM     24  C   UNL     1       4.863   6.542  17.016  0.00  0.00    +0.000 A 
ATOM     25  C   UNL     1       4.010   7.529  17.522  0.00  0.00    +0.000 A 
BRANCH  23  26
ATOM     26  O   UNL     1       5.234   4.144  16.633  0.00  0.00    +0.000 OA
BRANCH  26  27
ATOM     27  C   UNL     1       6.629   4.397  16.433  0.00  0.00    +0.000 C 
BRANCH  27  28
ATOM     28  C   UNL     1       6.890   4.500  14.937  0.00  0.00    +0.000 C 
ATOM     29  O   UNL     1       7.526   5.405  14.415  0.00  0.00    +0.000 OA
BRANCH  28  30
ATOM     30  O   UNL     1       6.335   3.492  14.218  0.00  0.00    +0.000 OA
ATOM     31  H   UNL     1       6.637   3.550  13.285  0.00  0.00    +0.000 HD
ENDBRANCH  28  30
ENDBRANCH  27  28
ENDBRANCH  26  27
ENDBRANCH  23  26
ENDBRANCH  19  20
ENDBRANCH   3  18
TORSDOF 8
ENDMDL
MODEL 3
REMARK VINA RESULT:      -7.4      7.332     11.228
REMARK  Name = 
REMARK  10 active torsions:
REMARK  status: ('A' for Active; 'I' for Inactive)
REMARK    1  A    between atoms: C_1  and  C_2
REMARK    2  A    between atoms: C_5  and  C_6
REMARK    3  A    between atoms: N_7  and  C_8
REMARK    4  A    between atoms: C_11  and  C_12
REMARK    5  A    between atoms: N_14  and  N_15
REMARK    6  A    between atoms: C_16  and  C_17
REMARK    7  A    between atoms: C_20  and  O_21
REMARK    8  A    between atoms: O_21  and  C_22
REMARK    9  A    between atoms: C_22  and  C_23
REMARK   10  A    between atoms: C_23  and  O_25
REMARK                            x       y       z     vdW  Elec       q    Type
REMARK                         _______ _______ _______ _____ _____    ______ ____
ROOT
ATOM      1  C   UNL     1       0.428   9.974  21.612  0.00  0.00    +0.000 C 
ATOM      2  O   UNL     1       1.169   9.619  22.528  0.00  0.00    +0.000 OA
ATOM      3  N   UNL     1       0.500   9.465  20.318  0.00  0.00    +0.000 N 
ATOM      4  H   UNL     1      -0.147   9.736  19.589  0.00  0.00    +0.000 HD
ENDROOT
BRANCH   1   8
ATOM      5  C   UNL     1      -2.620  12.993  22.240  0.00  0.00    +0.000 A 
ATOM      6  C   UNL     1      -1.899  12.899  21.046  0.00  0.00    +0.000 A 
ATOM      7  C   UNL     1      -0.929  11.905  20.870  0.00  0.00    +0.000 A 
ATOM      8  C   UNL     1      -0.615  11.003  21.896  0.00  0.00    +0.000 A 
ATOM      9  C   UNL     1      -1.312  11.115  23.103  0.00  0.00    +0.000 A 
ATOM     10  C   UNL     1      -2.312  12.089  23.264  0.00  0.00    +0.000 A 
BRANCH   5  17
ATOM     11  C   UNL     1      -5.617  12.642  21.360  0.00  0.00    +0.000 C 
ATOM     12  C   UNL     1      -4.992  13.857  21.960  0.00  0.00    +0.000 A 
ATOM     13  C   UNL     1      -5.657  15.026  22.276  0.00  0.00    +0.000 A 
ATOM     14  C   UNL     1      -4.759  15.870  22.939  0.00  0.00    +0.000 A 
ATOM     15  C   UNL     1      -3.539  15.227  23.008  0.00  0.00    +0.000 A 
ATOM     16  C   UNL     1      -2.276  15.822  23.539  0.00  0.00    +0.000 C 
ATOM     17  N   UNL     1      -3.664  13.969  22.398  0.00  0.00    +0.000 N 
ENDBRANCH   5  17
ENDBRANCH   1   8
BRANCH   3  18
ATOM     18  N   UNL     1       1.440   8.515  20.047  0.00  0.00    +0.000 NA
ATOM     19  C   UNL     1       1.692   8.297  18.794  0.00  0.00    +0.000 C 
BRANCH  19  20
ATOM     20  C   UNL     1       2.665   7.263  18.394  0.00  0.00    +0.000 A 
ATOM     21  C   UNL     1       2.544   5.982  18.935  0.00  0.00    +0.000 A 
ATOM     22  C   UNL     1       3.470   5.001  18.583  0.00  0.00    +0.000 A 
ATOM     23  C   UNL     1       4.490   5.277  17.666  0.00  0.00    +0.000 A 
ATOM     24  C   UNL     1       4.618   6.562  17.142  0.00  0.00    +0.000 A 
ATOM     25  C   UNL     1       3.705   7.558  17.507  0.00  0.00    +0.000 A 
BRANCH  23  26
ATOM     26  O   UNL     1       5.309   4.218  17.387  0.00  0.00    +0.000 OA
BRANCH  26  27
ATOM     27  C   UNL     1       5.727   4.093  16.023  0.00  0.00    +0.000 C 
BRANCH  27  28
ATOM     28  C   UNL     1       7.165   4.580  15.913  0.00  0.00    +0.000 C 
ATOM     29  O   UNL     1       7.586   5.264  14.991  0.00  0.00    +0.000 OA
BRANCH  28  30
ATOM     30  O   UNL     1       7.956   4.172  16.937  0.00  0.00    +0.000 OA
ATOM     31  H   UNL     1       7.709   4.656  17.755  0.00  0.00    +0.000 HD
ENDBRANCH  28  30
ENDBRANCH  27  28
ENDBRANCH  26  27
ENDBRANCH  23  26
ENDBRANCH  19  20
ENDBRANCH   3  18
TORSDOF 8
ENDMDL
MODEL 4
REMARK VINA RESULT:      -7.3      7.118     11.158
REMARK  Name = 
REMARK  10 active torsions:
REMARK  status: ('A' for Active; 'I' for Inactive)
REMARK    1  A    between atoms: C_1  and  C_2
REMARK    2  A    between atoms: C_5  and  C_6
REMARK    3  A    between atoms: N_7  and  C_8
REMARK    4  A    between atoms: C_11  and  C_12
REMARK    5  A    between atoms: N_14  and  N_15
REMARK    6  A    between atoms: C_16  and  C_17
REMARK    7  A    between atoms: C_20  and  O_21
REMARK    8  A    between atoms: O_21  and  C_22
REMARK    9  A    between atoms: C_22  and  C_23
REMARK   10  A    between atoms: C_23  and  O_25
REMARK                            x       y       z     vdW  Elec       q    Type
REMARK                         _______ _______ _______ _____ _____    ______ ____
ROOT
ATOM      1  C   UNL     1      -0.004  10.246  19.292  0.00  0.00    +0.000 C 
ATOM      2  O   UNL     1      -0.399  10.208  18.127  0.00  0.00    +0.000 OA
ATOM      3  N   UNL     1       1.104   9.542  19.756  0.00  0.00    +0.000 N 
ATOM      4  H   UNL     1       1.440   9.621  20.706  0.00  0.00    +0.000 HD
ENDROOT
BRANCH   1   8
ATOM      5  C   UNL     1      -2.258  12.796  21.977  0.00  0.00    +0.000 A 
ATOM      6  C   UNL     1      -2.180  13.045  20.604  0.00  0.00    +0.000 A 
ATOM      7  C   UNL     1      -1.453  12.196  19.761  0.00  0.00    +0.000 A 
ATOM      8  C   UNL     1      -0.743  11.099  20.268  0.00  0.00    +0.000 A 
ATOM      9  C   UNL     1      -0.794  10.866  21.647  0.00  0.00    +0.000 A 
ATOM     10  C   UNL     1      -1.555  11.698  22.485  0.00  0.00    +0.000 A 
BRANCH   5  17
ATOM     11  C   UNL     1      -1.170  14.902  24.042  0.00  0.00    +0.000 C 
ATOM     12  C   UNL     1      -2.595  14.529  23.803  0.00  0.00    +0.000 A 
ATOM     13  C   UNL     1      -3.687  15.098  24.431  0.00  0.00    +0.000 A 
ATOM     14  C   UNL     1      -4.845  14.578  23.843  0.00  0.00    +0.000 A 
ATOM     15  C   UNL     1      -4.462  13.675  22.870  0.00  0.00    +0.000 A 
ATOM     16  C   UNL     1      -5.389  12.812  22.079  0.00  0.00    +0.000 C 
ATOM     17  N   UNL     1      -3.060  13.627  22.834  0.00  0.00    +0.000 N 
ENDBRANCH   5  17
ENDBRANCH   1   8
BRANCH   3  18
ATOM     18  N   UNL     1       1.797   8.768  18.872  0.00  0.00    +0.000 NA
ATOM     19  C   UNL     1       2.118   7.580  19.278  0.00  0.00    +0.000 C 
BRANCH  19  20
ATOM     20  C   UNL     1       2.900   6.677  18.413  0.00  0.00    +0.000 A 
ATOM     21  C   UNL     1       2.618   5.310  18.439  0.00  0.00    +0.000 A 
ATOM     22  C   UNL     1       3.365   4.443  17.643  0.00  0.00    +0.000 A 
ATOM     23  C   UNL     1       4.362   4.933  16.793  0.00  0.00    +0.000 A 
ATOM     24  C   UNL     1       4.653   6.296  16.783  0.00  0.00    +0.000 A 
ATOM     25  C   UNL     1       3.923   7.170  17.596  0.00  0.00    +0.000 A 
BRANCH  23  26
ATOM     26  O   UNL     1       4.996   3.978  16.046  0.00  0.00    +0.000 OA
BRANCH  26  27
ATOM     27  C   UNL     1       6.415   4.126  15.915  0.00  0.00    +0.000 C 
BRANCH  27  28
ATOM     28  C   UNL     1       6.737   4.391  14.451  0.00  0.00    +0.000 C 
ATOM     29  O   UNL     1       7.288   5.403  14.044  0.00  0.00    +0.000 OA
BRANCH  28  30
ATOM     30  O   UNL     1       6.341   3.394  13.619  0.00  0.00    +0.000 OA
ATOM     31  H   UNL     1       5.441   3.590  13.278  0.00  0.00    +0.000 HD
ENDBRANCH  28  30
ENDBRANCH  27  28
ENDBRANCH  26  27
ENDBRANCH  23  26
ENDBRANCH  19  20
ENDBRANCH   3  18
TORSDOF 8
ENDMDL
MODEL 5
REMARK VINA RESULT:      -7.3      6.950     10.990
REMARK  Name = 
REMARK  10 active torsions:
REMARK  status: ('A' for Active; 'I' for Inactive)
REMARK    1  A    between atoms: C_1  and  C_2
REMARK    2  A    between atoms: C_5  and  C_6
REMARK    3  A    between atoms: N_7  and  C_8
REMARK    4  A    between atoms: C_11  and  C_12
REMARK    5  A    between atoms: N_14  and  N_15
REMARK    6  A    between atoms: C_16  and  C_17
REMARK    7  A    between atoms: C_20  and  O_21
REMARK    8  A    between atoms: O_21  and  C_22
REMARK    9  A    between atoms: C_22  and  C_23
REMARK   10  A    between atoms: C_23  and  O_25
REMARK                            x       y       z     vdW  Elec       q    Type
REMARK                         _______ _______ _______ _____ _____    ______ ____
ROOT
ATOM      1  C   UNL     1       0.153   9.992  19.763  0.00  0.00    +0.000 C 
ATOM      2  O   UNL     1      -0.043  10.065  18.550  0.00  0.00    +0.000 OA
ATOM      3  N   UNL     1       1.063   9.116  20.347  0.00  0.00    +0.000 N 
ATOM      4  H   UNL     1       1.243   9.101  21.342  0.00  0.00    +0.000 HD
ENDROOT
BRANCH   1   8
ATOM      5  C   UNL     1      -2.180  12.691  22.227  0.00  0.00    +0.000 A 
ATOM      6  C   UNL     1      -1.989  12.908  20.859  0.00  0.00    +0.000 A 
ATOM      7  C   UNL     1      -1.240  12.011  20.088  0.00  0.00    +0.000 A 
ATOM      8  C   UNL     1      -0.619  10.896  20.666  0.00  0.00    +0.000 A 
ATOM      9  C   UNL     1      -0.781  10.694  22.041  0.00  0.00    +0.000 A 
ATOM     10  C   UNL     1      -1.565  11.575  22.805  0.00  0.00    +0.000 A 
BRANCH   5  17
ATOM     11  C   UNL     1      -5.323  12.745  22.234  0.00  0.00    +0.000 C 
ATOM     12  C   UNL     1      -4.405  13.654  22.981  0.00  0.00    +0.000 A 
ATOM     13  C   UNL     1      -4.802  14.653  23.851  0.00  0.00    +0.000 A 
ATOM     14  C   UNL     1      -3.655  15.187  24.449  0.00  0.00    +0.000 A 
ATOM     15  C   UNL     1      -2.557  14.531  23.929  0.00  0.00    +0.000 A 
ATOM     16  C   UNL     1      -1.131  14.871  24.217  0.00  0.00    +0.000 C 
ATOM     17  N   UNL     1      -3.005  13.573  23.007  0.00  0.00    +0.000 N 
ENDBRANCH   5  17
ENDBRANCH   1   8
BRANCH   3  18
ATOM     18  N   UNL     1       1.784   8.292  19.533  0.00  0.00    +0.000 NA
ATOM     19  C   UNL     1       2.159   7.162  20.045  0.00  0.00    +0.000 C 
BRANCH  19  20
ATOM     20  C   UNL     1       2.975   6.217  19.260  0.00  0.00    +0.000 A 
ATOM     21  C   UNL     1       3.268   6.527  17.931  0.00  0.00    +0.000 A 
ATOM     22  C   UNL     1       4.019   5.632  17.171  0.00  0.00    +0.000 A 
ATOM     23  C   UNL     1       4.513   4.451  17.737  0.00  0.00    +0.000 A 
ATOM     24  C   UNL     1       4.202   4.137  19.058  0.00  0.00    +0.000 A 
ATOM     25  C   UNL     1       3.430   5.020  19.822  0.00  0.00    +0.000 A 
BRANCH  23  26
ATOM     26  O   UNL     1       5.259   3.679  16.889  0.00  0.00    +0.000 OA
BRANCH  26  27
ATOM     27  C   UNL     1       6.006   4.387  15.893  0.00  0.00    +0.000 C 
BRANCH  27  28
ATOM     28  C   UNL     1       7.280   4.919  16.535  0.00  0.00    +0.000 C 
ATOM     29  O   UNL     1       8.055   4.233  17.186  0.00  0.00    +0.000 OA
BRANCH  28  30
ATOM     30  O   UNL     1       7.478   6.246  16.330  0.00  0.00    +0.000 OA
ATOM     31  H   UNL     1       7.133   6.751  17.099  0.00  0.00    +0.000 HD
ENDBRANCH  28  30
ENDBRANCH  27  28
ENDBRANCH  26  27
ENDBRANCH  23  26
ENDBRANCH  19  20
ENDBRANCH   3  18
TORSDOF 8
ENDMDL
MODEL 6
REMARK VINA RESULT:      -7.3      8.456     10.710
REMARK  Name = 
REMARK  10 active torsions:
REMARK  status: ('A' for Active; 'I' for Inactive)
REMARK    1  A    between atoms: C_1  and  C_2
REMARK    2  A    between atoms: C_5  and  C_6
REMARK    3  A    between atoms: N_7  and  C_8
REMARK    4  A    between atoms: C_11  and  C_12
REMARK    5  A    between atoms: N_14  and  N_15
REMARK    6  A    between atoms: C_16  and  C_17
REMARK    7  A    between atoms: C_20  and  O_21
REMARK    8  A    between atoms: O_21  and  C_22
REMARK    9  A    between atoms: C_22  and  C_23
REMARK   10  A    between atoms: C_23  and  O_25
REMARK                            x       y       z     vdW  Elec       q    Type
REMARK                         _______ _______ _______ _____ _____    ______ ____
ROOT
ATOM      1  C   UNL     1       0.769  10.291  19.950  0.00  0.00    +0.000 C 
ATOM      2  O   UNL     1       0.096  11.014  19.215  0.00  0.00    +0.000 OA
ATOM      3  N   UNL     1       0.895  10.485  21.323  0.00  0.00    +0.000 N 
ATOM      4  H   UNL     1       1.415   9.854  21.916  0.00  0.00    +0.000 HD
ENDROOT
BRANCH   1   8
ATOM      5  C   UNL     1       2.800   6.813  18.345  0.00  0.00    +0.000 A 
ATOM      6  C   UNL     1       2.432   6.906  19.690  0.00  0.00    +0.000 A 
ATOM      7  C   UNL     1       1.766   8.037  20.175  0.00  0.00    +0.000 A 
ATOM      8  C   UNL     1       1.489   9.132  19.344  0.00  0.00    +0.000 A 
ATOM      9  C   UNL     1       1.885   9.055  18.005  0.00  0.00    +0.000 A 
ATOM     10  C   UNL     1       2.519   7.902  17.512  0.00  0.00    +0.000 A 
BRANCH   5  17
ATOM     11  C   UNL     1       5.794   6.553  17.421  0.00  0.00    +0.000 C 
ATOM     12  C   UNL     1       4.738   5.501  17.356  0.00  0.00    +0.000 A 
ATOM     13  C   UNL     1       4.926   4.205  16.916  0.00  0.00    +0.000 A 
ATOM     14  C   UNL     1       3.739   3.497  17.134  0.00  0.00    +0.000 A 
ATOM     15  C   UNL     1       2.818   4.365  17.686  0.00  0.00    +0.000 A 
ATOM     16  C   UNL     1       1.388   4.042  17.971  0.00  0.00    +0.000 C 
ATOM     17  N   UNL     1       3.423   5.624  17.829  0.00  0.00    +0.000 N 
ENDBRANCH   5  17
ENDBRANCH   1   8
BRANCH   3  18
ATOM     18  N   UNL     1       0.233  11.533  21.891  0.00  0.00    +0.000 NA
ATOM     19  C   UNL     1      -0.894  11.256  22.468  0.00  0.00    +0.000 C 
BRANCH  19  20
ATOM     20  C   UNL     1      -1.707  12.324  23.080  0.00  0.00    +0.000 A 
ATOM     21  C   UNL     1      -1.122  13.573  23.294  0.00  0.00    +0.000 A 
ATOM     22  C   UNL     1      -1.871  14.585  23.893  0.00  0.00    +0.000 A 
ATOM     23  C   UNL     1      -3.209  14.373  24.242  0.00  0.00    +0.000 A 
ATOM     24  C   UNL     1      -3.783  13.119  24.044  0.00  0.00    +0.000 A 
ATOM     25  C   UNL     1      -3.031  12.091  23.464  0.00  0.00    +0.000 A 
BRANCH  23  26
ATOM     26  O   UNL     1      -3.835  15.458  24.792  0.00  0.00    +0.000 OA
BRANCH  26  27
ATOM     27  C   UNL     1      -5.077  15.836  24.189  0.00  0.00    +0.000 C 
BRANCH  27  28
ATOM     28  C   UNL     1      -4.779  16.530  22.868  0.00  0.00    +0.000 C 
ATOM     29  O   UNL     1      -4.094  17.537  22.764  0.00  0.00    +0.000 OA
BRANCH  28  30
ATOM     30  O   UNL     1      -5.360  15.932  21.797  0.00  0.00    +0.000 OA
ATOM     31  H   UNL     1      -4.686  15.411  21.307  0.00  0.00    +0.000 HD
ENDBRANCH  28  30
ENDBRANCH  27  28
ENDBRANCH  26  27
ENDBRANCH  23  26
ENDBRANCH  19  20
ENDBRANCH   3  18
TORSDOF 8
ENDMDL
MODEL 7
REMARK VINA RESULT:      -7.2      7.055     11.022
REMARK  Name = 
REMARK  10 active torsions:
REMARK  status: ('A' for Active; 'I' for Inactive)
REMARK    1  A    between atoms: C_1  and  C_2
REMARK    2  A    between atoms: C_5  and  C_6
REMARK    3  A    between atoms: N_7  and  C_8
REMARK    4  A    between atoms: C_11  and  C_12
REMARK    5  A    between atoms: N_14  and  N_15
REMARK    6  A    between atoms: C_16  and  C_17
REMARK    7  A    between atoms: C_20  and  O_21
REMARK    8  A    between atoms: O_21  and  C_22
REMARK    9  A    between atoms: C_22  and  C_23
REMARK   10  A    between atoms: C_23  and  O_25
REMARK                            x       y       z     vdW  Elec       q    Type
REMARK                         _______ _______ _______ _____ _____    ______ ____
ROOT
ATOM      1  C   UNL     1       0.807  10.705  19.641  0.00  0.00    +0.000 C 
ATOM      2  O   UNL     1       1.387  11.336  18.758  0.00  0.00    +0.000 OA
ATOM      3  N   UNL     1       0.951   9.334  19.834  0.00  0.00    +0.000 N 
ATOM      4  H   UNL     1       0.501   8.841  20.593  0.00  0.00    +0.000 HD
ENDROOT
BRANCH   1   8
ATOM      5  C   UNL     1      -1.900  12.952  22.175  0.00  0.00    +0.000 A 
ATOM      6  C   UNL     1      -1.544  13.387  20.896  0.00  0.00    +0.000 A 
ATOM      7  C   UNL     1      -0.677  12.632  20.097  0.00  0.00    +0.000 A 
ATOM      8  C   UNL     1      -0.100  11.445  20.568  0.00  0.00    +0.000 A 
ATOM      9  C   UNL     1      -0.429  11.024  21.861  0.00  0.00    +0.000 A 
ATOM     10  C   UNL     1      -1.330  11.763  22.646  0.00  0.00    +0.000 A 
BRANCH   5  17
ATOM     11  C   UNL     1      -5.030  12.734  21.991  0.00  0.00    +0.000 C 
ATOM     12  C   UNL     1      -4.242  13.652  22.865  0.00  0.00    +0.000 A 
ATOM     13  C   UNL     1      -4.775  14.534  23.786  0.00  0.00    +0.000 A 
ATOM     14  C   UNL     1      -3.716  15.112  24.495  0.00  0.00    +0.000 A 
ATOM     15  C   UNL     1      -2.535  14.600  23.993  0.00  0.00    +0.000 A 
ATOM     16  C   UNL     1      -1.165  15.036  24.395  0.00  0.00    +0.000 C 
ATOM     17  N   UNL     1      -2.844  13.689  22.971  0.00  0.00    +0.000 N 
ENDBRANCH   5  17
ENDBRANCH   1   8
BRANCH   3  18
ATOM     18  N   UNL     1       1.786   8.647  19.002  0.00  0.00    +0.000 NA
ATOM     19  C   UNL     1       1.933   7.384  19.251  0.00  0.00    +0.000 C 
BRANCH  19  20
ATOM     20  C   UNL     1       2.843   6.559  18.434  0.00  0.00    +0.000 A 
ATOM     21  C   UNL     1       2.718   5.170  18.485  0.00  0.00    +0.000 A 
ATOM     22  C   UNL     1       3.586   4.377  17.736  0.00  0.00    +0.000 A 
ATOM     23  C   UNL     1       4.550   4.961  16.906  0.00  0.00    +0.000 A 
ATOM     24  C   UNL     1       4.683   6.347  16.871  0.00  0.00    +0.000 A 
ATOM     25  C   UNL     1       3.829   7.149  17.638  0.00  0.00    +0.000 A 
BRANCH  23  26
ATOM     26  O   UNL     1       5.314   4.069  16.204  0.00  0.00    +0.000 OA
BRANCH  26  27
ATOM     27  C   UNL     1       6.694   4.418  16.046  0.00  0.00    +0.000 C 
BRANCH  27  28
ATOM     28  C   UNL     1       6.989   4.551  14.558  0.00  0.00    +0.000 C 
ATOM     29  O   UNL     1       7.676   5.439  14.074  0.00  0.00    +0.000 OA
BRANCH  28  30
ATOM     30  O   UNL     1       6.402   3.591  13.800  0.00  0.00    +0.000 OA
ATOM     31  H   UNL     1       6.246   3.938  12.894  0.00  0.00    +0.000 HD
ENDBRANCH  28  30
ENDBRANCH  27  28
ENDBRANCH  26  27
ENDBRANCH  23  26
ENDBRANCH  19  20
ENDBRANCH   3  18
TORSDOF 8
ENDMDL
MODEL 8
REMARK VINA RESULT:      -7.2      6.989     10.962
REMARK  Name = 
REMARK  10 active torsions:
REMARK  status: ('A' for Active; 'I' for Inactive)
REMARK    1  A    between atoms: C_1  and  C_2
REMARK    2  A    between atoms: C_5  and  C_6
REMARK    3  A    between atoms: N_7  and  C_8
REMARK    4  A    between atoms: C_11  and  C_12
REMARK    5  A    between atoms: N_14  and  N_15
REMARK    6  A    between atoms: C_16  and  C_17
REMARK    7  A    between atoms: C_20  and  O_21
REMARK    8  A    between atoms: O_21  and  C_22
REMARK    9  A    between atoms: C_22  and  C_23
REMARK   10  A    between atoms: C_23  and  O_25
REMARK                            x       y       z     vdW  Elec       q    Type
REMARK                         _______ _______ _______ _____ _____    ______ ____
ROOT
ATOM      1  C   UNL     1       0.050  10.088  18.772  0.00  0.00    +0.000 C 
ATOM      2  O   UNL     1      -0.402   9.822  17.659  0.00  0.00    +0.000 OA
ATOM      3  N   UNL     1       1.238   9.561  19.271  0.00  0.00    +0.000 N 
ATOM      4  H   UNL     1       1.616   9.826  20.171  0.00  0.00    +0.000 HD
ENDROOT
BRANCH   1   8
ATOM      5  C   UNL     1      -2.047  12.771  21.456  0.00  0.00    +0.000 A 
ATOM      6  C   UNL     1      -1.359  11.645  21.916  0.00  0.00    +0.000 A 
ATOM      7  C   UNL     1      -0.682  10.805  21.025  0.00  0.00    +0.000 A 
ATOM      8  C   UNL     1      -0.708  11.035  19.643  0.00  0.00    +0.000 A 
ATOM      9  C   UNL     1      -1.423  12.143  19.176  0.00  0.00    +0.000 A 
ATOM     10  C   UNL     1      -2.071  13.007  20.076  0.00  0.00    +0.000 A 
BRANCH   5  17
ATOM     11  C   UNL     1      -5.126  12.890  22.080  0.00  0.00    +0.000 C 
ATOM     12  C   UNL     1      -4.062  13.785  22.623  0.00  0.00    +0.000 A 
ATOM     13  C   UNL     1      -4.261  14.796  23.545  0.00  0.00    +0.000 A 
ATOM     14  C   UNL     1      -3.009  15.309  23.901  0.00  0.00    +0.000 A 
ATOM     15  C   UNL     1      -2.047  14.628  23.181  0.00  0.00    +0.000 A 
ATOM     16  C   UNL     1      -0.586  14.940  23.180  0.00  0.00    +0.000 C 
ATOM     17  N   UNL     1      -2.686  13.674  22.374  0.00  0.00    +0.000 N 
ENDBRANCH   5  17
ENDBRANCH   1   8
BRANCH   3  18
ATOM     18  N   UNL     1       1.948   8.704  18.482  0.00  0.00    +0.000 NA
ATOM     19  C   UNL     1       2.186   7.530  18.978  0.00  0.00    +0.000 C 
BRANCH  19  20
ATOM     20  C   UNL     1       2.978   6.543  18.222  0.00  0.00    +0.000 A 
ATOM     21  C   UNL     1       4.103   6.980  17.521  0.00  0.00    +0.000 A 
ATOM     22  C   UNL     1       4.848   6.062  16.782  0.00  0.00    +0.000 A 
ATOM     23  C   UNL     1       4.502   4.706  16.771  0.00  0.00    +0.000 A 
ATOM     24  C   UNL     1       3.368   4.277  17.456  0.00  0.00    +0.000 A 
ATOM     25  C   UNL     1       2.602   5.197  18.182  0.00  0.00    +0.000 A 
BRANCH  23  26
ATOM     26  O   UNL     1       5.334   3.910  16.032  0.00  0.00    +0.000 OA
BRANCH  26  27
ATOM     27  C   UNL     1       6.641   4.438  15.778  0.00  0.00    +0.000 C 
BRANCH  27  28
ATOM     28  C   UNL     1       6.859   4.480  14.272  0.00  0.00    +0.000 C 
ATOM     29  O   UNL     1       7.440   5.385  13.690  0.00  0.00    +0.000 OA
BRANCH  28  30
ATOM     30  O   UNL     1       6.332   3.414  13.617  0.00  0.00    +0.000 OA
ATOM     31  H   UNL     1       5.859   2.838  14.256  0.00  0.00    +0.000 HD
ENDBRANCH  28  30
ENDBRANCH  27  28
ENDBRANCH  26  27
ENDBRANCH  23  26
ENDBRANCH  19  20
ENDBRANCH   3  18
TORSDOF 8
ENDMDL
MODEL 9
REMARK VINA RESULT:      -7.2      7.252     11.196
REMARK  Name = 
REMARK  10 active torsions:
REMARK  status: ('A' for Active; 'I' for Inactive)
REMARK    1  A    between atoms: C_1  and  C_2
REMARK    2  A    between atoms: C_5  and  C_6
REMARK    3  A    between atoms: N_7  and  C_8
REMARK    4  A    between atoms: C_11  and  C_12
REMARK    5  A    between atoms: N_14  and  N_15
REMARK    6  A    between atoms: C_16  and  C_17
REMARK    7  A    between atoms: C_20  and  O_21
REMARK    8  A    between atoms: O_21  and  C_22
REMARK    9  A    between atoms: C_22  and  C_23
REMARK   10  A    between atoms: C_23  and  O_25
REMARK                            x       y       z     vdW  Elec       q    Type
REMARK                         _______ _______ _______ _____ _____    ______ ____
ROOT
ATOM      1  C   UNL     1       0.721   9.944  21.572  0.00  0.00    +0.000 C 
ATOM      2  O   UNL     1       1.508   9.572  22.442  0.00  0.00    +0.000 OA
ATOM      3  N   UNL     1       0.713   9.445  20.272  0.00  0.00    +0.000 N 
ATOM      4  H   UNL     1       0.030   9.731  19.583  0.00  0.00    +0.000 HD
ENDROOT
BRANCH   1   8
ATOM      5  C   UNL     1      -2.234  12.882  22.769  0.00  0.00    +0.000 A 
ATOM      6  C   UNL     1      -2.099  11.653  23.421  0.00  0.00    +0.000 A 
ATOM      7  C   UNL     1      -1.127  10.730  23.017  0.00  0.00    +0.000 A 
ATOM      8  C   UNL     1      -0.290  10.985  21.922  0.00  0.00    +0.000 A 
ATOM      9  C   UNL     1      -0.445  12.200  21.247  0.00  0.00    +0.000 A 
ATOM     10  C   UNL     1      -1.395  13.141  21.678  0.00  0.00    +0.000 A 
BRANCH   5  17
ATOM     11  C   UNL     1      -1.685  15.137  24.889  0.00  0.00    +0.000 C 
ATOM     12  C   UNL     1      -2.980  14.835  24.210  0.00  0.00    +0.000 A 
ATOM     13  C   UNL     1      -4.153  15.546  24.374  0.00  0.00    +0.000 A 
ATOM     14  C   UNL     1      -5.096  15.040  23.473  0.00  0.00    +0.000 A 
ATOM     15  C   UNL     1      -4.506  14.005  22.774  0.00  0.00    +0.000 A 
ATOM     16  C   UNL     1      -5.200  13.120  21.791  0.00  0.00    +0.000 C 
ATOM     17  N   UNL     1      -3.185  13.860  23.224  0.00  0.00    +0.000 N 
ENDBRANCH   5  17
ENDBRANCH   1   8
BRANCH   3  18
ATOM     18  N   UNL     1       1.624   8.485  19.941  0.00  0.00    +0.000 NA
ATOM     19  C   UNL     1       1.898   8.364  18.680  0.00  0.00    +0.000 C 
BRANCH  19  20
ATOM     20  C   UNL     1       2.841   7.331  18.213  0.00  0.00    +0.000 A 
ATOM     21  C   UNL     1       3.823   7.687  17.287  0.00  0.00    +0.000 A 
ATOM     22  C   UNL     1       4.707   6.716  16.820  0.00  0.00    +0.000 A 
ATOM     23  C   UNL     1       4.645   5.403  17.300  0.00  0.00    +0.000 A 
ATOM     24  C   UNL     1       3.652   5.047  18.210  0.00  0.00    +0.000 A 
ATOM     25  C   UNL     1       2.747   6.012  18.667  0.00  0.00    +0.000 A 
BRANCH  23  26
ATOM     26  O   UNL     1       5.589   4.559  16.781  0.00  0.00    +0.000 OA
BRANCH  26  27
ATOM     27  C   UNL     1       5.364   4.119  15.438  0.00  0.00    +0.000 C 
BRANCH  27  28
ATOM     28  C   UNL     1       6.555   4.538  14.588  0.00  0.00    +0.000 C 
ATOM     29  O   UNL     1       6.736   4.171  13.436  0.00  0.00    +0.000 OA
BRANCH  28  30
ATOM     30  O   UNL     1       7.422   5.358  15.235  0.00  0.00    +0.000 OA
ATOM     31  H   UNL     1       7.710   4.934  16.073  0.00  0.00    +0.000 HD
ENDBRANCH  28  30
ENDBRANCH  27  28
ENDBRANCH  26  27
ENDBRANCH  23  26
ENDBRANCH  19  20
ENDBRANCH   3  18
TORSDOF 8
ENDMDL
