MODEL 1
REMARK VINA RESULT:      -8.0      0.000      0.000
REMARK  Name = 
REMARK  4 active torsions:
REMARK  status: ('A' for Active; 'I' for Inactive)
REMARK    1  A    between atoms: C_1  and  C_2
REMARK    2  A    between atoms: C_5  and  C_6
REMARK    3  A    between atoms: C_11  and  C_12
REMARK    4  A    between atoms: C_18  and  C_19
REMARK                            x       y       z     vdW  Elec       q    Type
REMARK                         _______ _______ _______ _____ _____    ______ ____
ROOT
ATOM      1  C   UNL     1       4.409   3.765  17.089  0.00  0.00    +0.000 A 
ATOM      2  C   UNL     1       3.075   3.731  16.928  0.00  0.00    +0.000 A 
ATOM      3  C   UNL     1       2.321   3.370  18.056  0.00  0.00    +0.000 A 
ATOM      4  O   UNL     1       0.963   3.286  18.135  0.00  0.00    +0.000 OA
ATOM      5  C   UNL     1       0.656   2.915  19.404  0.00  0.00    +0.000 A 
ATOM      6  C   UNL     1       1.796   2.753  20.164  0.00  0.00    +0.000 A 
ATOM      7  C   UNL     1       1.885   2.357  21.587  0.00  0.00    +0.000 C 
ATOM      8  C   UNL     1       2.872   3.050  19.280  0.00  0.00    +0.000 A 
ATOM      9  C   UNL     1       4.310   3.066  19.450  0.00  0.00    +0.000 A 
ATOM     10  O   UNL     1       4.859   2.779  20.512  0.00  0.00    +0.000 OA
ATOM     11  O   UNL     1       5.042   3.426  18.330  0.00  0.00    +0.000 OA
ENDROOT
BRANCH   1  16
ATOM     12  C   UNL     1       8.079   5.272  12.854  0.00  0.00    +0.000 C 
ATOM     13  C   UNL     1       7.114   4.865  13.932  0.00  0.00    +0.000 A 
ATOM     14  C   UNL     1       7.273   5.387  15.220  0.00  0.00    +0.000 A 
ATOM     15  C   UNL     1       6.396   5.030  16.246  0.00  0.00    +0.000 A 
ATOM     16  C   UNL     1       5.331   4.152  16.008  0.00  0.00    +0.000 A 
ATOM     17  C   UNL     1       5.179   3.624  14.719  0.00  0.00    +0.000 A 
ATOM     18  C   UNL     1       6.059   3.967  13.677  0.00  0.00    +0.000 A 
ATOM     19  C   UNL     1       5.856   3.362  12.315  0.00  0.00    +0.000 C 
ENDBRANCH   1  16
TORSDOF 1
ENDMDL
MODEL 2
REMARK VINA RESULT:      -7.9      1.469      1.541
REMARK  Name = 
REMARK  4 active torsions:
REMARK  status: ('A' for Active; 'I' for Inactive)
REMARK    1  A    between atoms: C_1  and  C_2
REMARK    2  A    between atoms: C_5  and  C_6
REMARK    3  A    between atoms: C_11  and  C_12
REMARK    4  A    between atoms: C_18  and  C_19
REMARK                            x       y       z     vdW  Elec       q    Type
REMARK                         _______ _______ _______ _____ _____    ______ ____
ROOT
ATOM      1  C   UNL     1       4.421   4.412  17.226  0.00  0.00    +0.000 A 
ATOM      2  C   UNL     1       3.917   5.442  17.928  0.00  0.00    +0.000 A 
ATOM      3  C   UNL     1       3.087   5.110  19.011  0.00  0.00    +0.000 A 
ATOM      4  O   UNL     1       2.483   5.979  19.869  0.00  0.00    +0.000 OA
ATOM      5  C   UNL     1       1.785   5.238  20.767  0.00  0.00    +0.000 A 
ATOM      6  C   UNL     1       1.922   3.889  20.510  0.00  0.00    +0.000 A 
ATOM      7  C   UNL     1       1.321   2.762  21.257  0.00  0.00    +0.000 C 
ATOM      8  C   UNL     1       2.768   3.816  19.368  0.00  0.00    +0.000 A 
ATOM      9  C   UNL     1       3.293   2.706  18.601  0.00  0.00    +0.000 A 
ATOM     10  O   UNL     1       3.035   1.533  18.863  0.00  0.00    +0.000 OA
ATOM     11  O   UNL     1       4.112   3.047  17.536  0.00  0.00    +0.000 OA
ENDROOT
BRANCH   1  16
ATOM     12  C   UNL     1       8.034   5.126  12.741  0.00  0.00    +0.000 C 
ATOM     13  C   UNL     1       7.081   4.923  13.886  0.00  0.00    +0.000 A 
ATOM     14  C   UNL     1       7.335   5.563  15.104  0.00  0.00    +0.000 A 
ATOM     15  C   UNL     1       6.473   5.398  16.189  0.00  0.00    +0.000 A 
ATOM     16  C   UNL     1       5.329   4.597  16.082  0.00  0.00    +0.000 A 
ATOM     17  C   UNL     1       5.081   3.951  14.863  0.00  0.00    +0.000 A 
ATOM     18  C   UNL     1       5.944   4.101  13.763  0.00  0.00    +0.000 A 
ATOM     19  C   UNL     1       5.636   3.374  12.483  0.00  0.00    +0.000 C 
ENDBRANCH   1  16
TORSDOF 1
ENDMDL
MODEL 3
REMARK VINA RESULT:      -7.6      4.773      7.186
REMARK  Name = 
REMARK  4 active torsions:
REMARK  status: ('A' for Active; 'I' for Inactive)
REMARK    1  A    between atoms: C_1  and  C_2
REMARK    2  A    between atoms: C_5  and  C_6
REMARK    3  A    between atoms: C_11  and  C_12
REMARK    4  A    between atoms: C_18  and  C_19
REMARK                            x       y       z     vdW  Elec       q    Type
REMARK                         _______ _______ _______ _____ _____    ______ ____
ROOT
ATOM      1  C   UNL     1       2.728   7.114  18.254  0.00  0.00    +0.000 A 
ATOM      2  C   UNL     1       2.440   5.826  18.511  0.00  0.00    +0.000 A 
ATOM      3  C   UNL     1       3.258   4.870  17.887  0.00  0.00    +0.000 A 
ATOM      4  O   UNL     1       3.168   3.516  18.013  0.00  0.00    +0.000 OA
ATOM      5  C   UNL     1       4.152   2.975  17.251  0.00  0.00    +0.000 A 
ATOM      6  C   UNL     1       4.890   3.957  16.622  0.00  0.00    +0.000 A 
ATOM      7  C   UNL     1       6.042   3.778  15.711  0.00  0.00    +0.000 C 
ATOM      8  C   UNL     1       4.302   5.184  17.041  0.00  0.00    +0.000 A 
ATOM      9  C   UNL     1       4.600   6.570  16.746  0.00  0.00    +0.000 A 
ATOM     10  O   UNL     1       5.509   6.911  15.992  0.00  0.00    +0.000 OA
ATOM     11  O   UNL     1       3.787   7.503  17.370  0.00  0.00    +0.000 OA
ENDROOT
BRANCH   1  16
ATOM     12  C   UNL     1      -0.254  11.509  20.592  0.00  0.00    +0.000 C 
ATOM     13  C   UNL     1       0.518  10.357  20.013  0.00  0.00    +0.000 A 
ATOM     14  C   UNL     1       0.863  10.383  18.657  0.00  0.00    +0.000 A 
ATOM     15  C   UNL     1       1.580   9.331  18.085  0.00  0.00    +0.000 A 
ATOM     16  C   UNL     1       1.980   8.231  18.855  0.00  0.00    +0.000 A 
ATOM     17  C   UNL     1       1.626   8.204  20.211  0.00  0.00    +0.000 A 
ATOM     18  C   UNL     1       0.897   9.253  20.800  0.00  0.00    +0.000 A 
ATOM     19  C   UNL     1       0.534   9.166  22.257  0.00  0.00    +0.000 C 
ENDBRANCH   1  16
TORSDOF 1
ENDMDL
MODEL 4
REMARK VINA RESULT:      -7.4      5.560      6.297
REMARK  Name = 
REMARK  4 active torsions:
REMARK  status: ('A' for Active; 'I' for Inactive)
REMARK    1  A    between atoms: C_1  and  C_2
REMARK    2  A    between atoms: C_5  and  C_6
REMARK    3  A    between atoms: C_11  and  C_12
REMARK    4  A    between atoms: C_18  and  C_19
REMARK                            x       y       z     vdW  Elec       q    Type
REMARK                         _______ _______ _______ _____ _____    ______ ____
ROOT
ATOM      1  C   UNL     1       2.067   8.036  18.793  0.00  0.00    +0.000 A 
ATOM      2  C   UNL     1       1.544   9.082  18.130  0.00  0.00    +0.000 A 
ATOM      3  C   UNL     1       0.842  10.020  18.904  0.00  0.00    +0.000 A 
ATOM      4  O   UNL     1       0.245  11.161  18.456  0.00  0.00    +0.000 OA
ATOM      5  C   UNL     1      -0.306  11.775  19.533  0.00  0.00    +0.000 A 
ATOM      6  C   UNL     1      -0.082  11.052  20.687  0.00  0.00    +0.000 A 
ATOM      7  C   UNL     1      -0.520  11.384  22.061  0.00  0.00    +0.000 C 
ATOM      8  C   UNL     1       0.664   9.914  20.268  0.00  0.00    +0.000 A 
ATOM      9  C   UNL     1       1.209   8.778  20.980  0.00  0.00    +0.000 A 
ATOM     10  O   UNL     1       1.073   8.622  22.192  0.00  0.00    +0.000 OA
ATOM     11  O   UNL     1       1.901   7.860  20.205  0.00  0.00    +0.000 OA
ENDROOT
BRANCH   1  16
ATOM     12  C   UNL     1       5.198   3.901  16.190  0.00  0.00    +0.000 C 
ATOM     13  C   UNL     1       4.368   4.951  16.873  0.00  0.00    +0.000 A 
ATOM     14  C   UNL     1       4.801   6.282  16.851  0.00  0.00    +0.000 A 
ATOM     15  C   UNL     1       4.055   7.283  17.474  0.00  0.00    +0.000 A 
ATOM     16  C   UNL     1       2.852   6.984  18.125  0.00  0.00    +0.000 A 
ATOM     17  C   UNL     1       2.425   5.650  18.153  0.00  0.00    +0.000 A 
ATOM     18  C   UNL     1       3.169   4.628  17.536  0.00  0.00    +0.000 A 
ATOM     19  C   UNL     1       2.668   3.211  17.607  0.00  0.00    +0.000 C 
ENDBRANCH   1  16
TORSDOF 1
ENDMDL
MODEL 5
REMARK VINA RESULT:      -7.3      2.061      6.830
REMARK  Name = 
REMARK  4 active torsions:
REMARK  status: ('A' for Active; 'I' for Inactive)
REMARK    1  A    between atoms: C_1  and  C_2
REMARK    2  A    between atoms: C_5  and  C_6
REMARK    3  A    between atoms: C_11  and  C_12
REMARK    4  A    between atoms: C_18  and  C_19
REMARK                            x       y       z     vdW  Elec       q    Type
REMARK                         _______ _______ _______ _____ _____    ______ ____
ROOT
ATOM      1  C   UNL     1       4.876   4.143  16.453  0.00  0.00    +0.000 A 
ATOM      2  C   UNL     1       4.781   3.547  15.251  0.00  0.00    +0.000 A 
ATOM      3  C   UNL     1       5.735   3.926  14.292  0.00  0.00    +0.000 A 
ATOM      4  O   UNL     1       5.846   3.447  13.022  0.00  0.00    +0.000 OA
ATOM      5  C   UNL     1       6.904   4.073  12.447  0.00  0.00    +0.000 A 
ATOM      6  C   UNL     1       7.491   4.962  13.323  0.00  0.00    +0.000 A 
ATOM      7  C   UNL     1       8.663   5.832  13.078  0.00  0.00    +0.000 C 
ATOM      8  C   UNL     1       6.726   4.859  14.519  0.00  0.00    +0.000 A 
ATOM      9  C   UNL     1       6.816   5.518  15.806  0.00  0.00    +0.000 A 
ATOM     10  O   UNL     1       7.669   6.365  16.062  0.00  0.00    +0.000 OA
ATOM     11  O   UNL     1       5.871   5.133  16.743  0.00  0.00    +0.000 OA
ENDROOT
BRANCH   1  16
ATOM     12  C   UNL     1       1.330   2.888  20.872  0.00  0.00    +0.000 C 
ATOM     13  C   UNL     1       2.246   3.242  19.734  0.00  0.00    +0.000 A 
ATOM     14  C   UNL     1       2.796   2.215  18.958  0.00  0.00    +0.000 A 
ATOM     15  C   UNL     1       3.650   2.507  17.894  0.00  0.00    +0.000 A 
ATOM     16  C   UNL     1       3.968   3.831  17.569  0.00  0.00    +0.000 A 
ATOM     17  C   UNL     1       3.422   4.857  18.352  0.00  0.00    +0.000 A 
ATOM     18  C   UNL     1       2.566   4.580  19.433  0.00  0.00    +0.000 A 
ATOM     19  C   UNL     1       2.019   5.720  20.247  0.00  0.00    +0.000 C 
ENDBRANCH   1  16
TORSDOF 1
ENDMDL
MODEL 6
REMARK VINA RESULT:      -7.3      0.848      2.041
REMARK  Name = 
REMARK  4 active torsions:
REMARK  status: ('A' for Active; 'I' for Inactive)
REMARK    1  A    between atoms: C_1  and  C_2
REMARK    2  A    between atoms: C_5  and  C_6
REMARK    3  A    between atoms: C_11  and  C_12
REMARK    4  A    between atoms: C_18  and  C_19
REMARK                            x       y       z     vdW  Elec       q    Type
REMARK                         _______ _______ _______ _____ _____    ______ ____
ROOT
ATOM      1  C   UNL     1       4.587   3.980  17.058  0.00  0.00    +0.000 A 
ATOM      2  C   UNL     1       5.051   3.522  18.234  0.00  0.00    +0.000 A 
ATOM      3  C   UNL     1       4.086   3.226  19.210  0.00  0.00    +0.000 A 
ATOM      4  O   UNL     1       4.316   2.736  20.461  0.00  0.00    +0.000 OA
ATOM      5  C   UNL     1       3.110   2.587  21.063  0.00  0.00    +0.000 A 
ATOM      6  C   UNL     1       2.085   2.974  20.225  0.00  0.00    +0.000 A 
ATOM      7  C   UNL     1       0.632   2.963  20.508  0.00  0.00    +0.000 C 
ATOM      8  C   UNL     1       2.728   3.388  19.024  0.00  0.00    +0.000 A 
ATOM      9  C   UNL     1       2.228   3.900  17.765  0.00  0.00    +0.000 A 
ATOM     10  O   UNL     1       1.032   4.077  17.545  0.00  0.00    +0.000 OA
ATOM     11  O   UNL     1       3.191   4.187  16.810  0.00  0.00    +0.000 OA
ENDROOT
BRANCH   1  16
ATOM     12  C   UNL     1       8.112   5.257  12.629  0.00  0.00    +0.000 C 
ATOM     13  C   UNL     1       7.184   4.908  13.758  0.00  0.00    +0.000 A 
ATOM     14  C   UNL     1       7.387   5.495  15.012  0.00  0.00    +0.000 A 
ATOM     15  C   UNL     1       6.546   5.194  16.083  0.00  0.00    +0.000 A 
ATOM     16  C   UNL     1       5.473   4.308  15.928  0.00  0.00    +0.000 A 
ATOM     17  C   UNL     1       5.276   3.716  14.673  0.00  0.00    +0.000 A 
ATOM     18  C   UNL     1       6.120   4.002  13.585  0.00  0.00    +0.000 A 
ATOM     19  C   UNL     1       5.870   3.329  12.264  0.00  0.00    +0.000 C 
ENDBRANCH   1  16
TORSDOF 1
ENDMDL
MODEL 7
REMARK VINA RESULT:      -7.3      4.936      7.327
REMARK  Name = 
REMARK  4 active torsions:
REMARK  status: ('A' for Active; 'I' for Inactive)
REMARK    1  A    between atoms: C_1  and  C_2
REMARK    2  A    between atoms: C_5  and  C_6
REMARK    3  A    between atoms: C_11  and  C_12
REMARK    4  A    between atoms: C_18  and  C_19
REMARK                            x       y       z     vdW  Elec       q    Type
REMARK                         _______ _______ _______ _____ _____    ______ ____
ROOT
ATOM      1  C   UNL     1       2.149   6.861  19.497  0.00  0.00    +0.000 A 
ATOM      2  C   UNL     1       2.935   6.794  18.408  0.00  0.00    +0.000 A 
ATOM      3  C   UNL     1       3.378   5.514  18.038  0.00  0.00    +0.000 A 
ATOM      4  O   UNL     1       4.162   5.202  16.968  0.00  0.00    +0.000 OA
ATOM      5  C   UNL     1       4.339   3.856  16.978  0.00  0.00    +0.000 A 
ATOM      6  C   UNL     1       3.681   3.277  18.044  0.00  0.00    +0.000 A 
ATOM      7  C   UNL     1       3.630   1.842  18.401  0.00  0.00    +0.000 C 
ATOM      8  C   UNL     1       3.060   4.361  18.726  0.00  0.00    +0.000 A 
ATOM      9  C   UNL     1       2.232   4.433  19.911  0.00  0.00    +0.000 A 
ATOM     10  O   UNL     1       1.925   3.443  20.572  0.00  0.00    +0.000 OA
ATOM     11  O   UNL     1       1.800   5.702  20.264  0.00  0.00    +0.000 OA
ENDROOT
BRANCH   1  16
ATOM     12  C   UNL     1      -0.112  11.847  21.421  0.00  0.00    +0.000 C 
ATOM     13  C   UNL     1       0.469  10.543  20.950  0.00  0.00    +0.000 A 
ATOM     14  C   UNL     1       0.912  10.435  19.626  0.00  0.00    +0.000 A 
ATOM     15  C   UNL     1       1.456   9.240  19.154  0.00  0.00    +0.000 A 
ATOM     16  C   UNL     1       1.584   8.127  19.993  0.00  0.00    +0.000 A 
ATOM     17  C   UNL     1       1.133   8.235  21.316  0.00  0.00    +0.000 A 
ATOM     18  C   UNL     1       0.574   9.430  21.805  0.00  0.00    +0.000 A 
ATOM     19  C   UNL     1       0.096   9.487  23.230  0.00  0.00    +0.000 C 
ENDBRANCH   1  16
TORSDOF 1
ENDMDL
MODEL 8
REMARK VINA RESULT:      -7.2      1.968      6.675
REMARK  Name = 
REMARK  4 active torsions:
REMARK  status: ('A' for Active; 'I' for Inactive)
REMARK    1  A    between atoms: C_1  and  C_2
REMARK    2  A    between atoms: C_5  and  C_6
REMARK    3  A    between atoms: C_11  and  C_12
REMARK    4  A    between atoms: C_18  and  C_19
REMARK                            x       y       z     vdW  Elec       q    Type
REMARK                         _______ _______ _______ _____ _____    ______ ____
ROOT
ATOM      1  C   UNL     1       4.874   4.352  16.612  0.00  0.00    +0.000 A 
ATOM      2  C   UNL     1       4.704   3.719  15.438  0.00  0.00    +0.000 A 
ATOM      3  C   UNL     1       5.641   4.010  14.434  0.00  0.00    +0.000 A 
ATOM      4  O   UNL     1       5.681   3.479  13.179  0.00  0.00    +0.000 OA
ATOM      5  C   UNL     1       6.749   4.025  12.545  0.00  0.00    +0.000 A 
ATOM      6  C   UNL     1       7.414   4.912  13.367  0.00  0.00    +0.000 A 
ATOM      7  C   UNL     1       8.621   5.708  13.048  0.00  0.00    +0.000 C 
ATOM      8  C   UNL     1       6.688   4.896  14.591  0.00  0.00    +0.000 A 
ATOM      9  C   UNL     1       6.859   5.595  15.847  0.00  0.00    +0.000 A 
ATOM     10  O   UNL     1       7.764   6.404  16.042  0.00  0.00    +0.000 OA
ATOM     11  O   UNL     1       5.929   5.297  16.830  0.00  0.00    +0.000 OA
ENDROOT
BRANCH   1  16
ATOM     12  C   UNL     1       1.385   3.527  21.175  0.00  0.00    +0.000 C 
ATOM     13  C   UNL     1       2.271   3.723  19.977  0.00  0.00    +0.000 A 
ATOM     14  C   UNL     1       3.397   4.546  20.091  0.00  0.00    +0.000 A 
ATOM     15  C   UNL     1       4.241   4.751  18.999  0.00  0.00    +0.000 A 
ATOM     16  C   UNL     1       3.990   4.131  17.770  0.00  0.00    +0.000 A 
ATOM     17  C   UNL     1       2.858   3.313  17.656  0.00  0.00    +0.000 A 
ATOM     18  C   UNL     1       1.992   3.103  18.744  0.00  0.00    +0.000 A 
ATOM     19  C   UNL     1       0.785   2.224  18.563  0.00  0.00    +0.000 C 
ENDBRANCH   1  16
TORSDOF 1
ENDMDL
MODEL 9
REMARK VINA RESULT:      -7.2      5.431      7.381
REMARK  Name = 
REMARK  4 active torsions:
REMARK  status: ('A' for Active; 'I' for Inactive)
REMARK    1  A    between atoms: C_1  and  C_2
REMARK    2  A    between atoms: C_5  and  C_6
REMARK    3  A    between atoms: C_11  and  C_12
REMARK    4  A    between atoms: C_18  and  C_19
REMARK                            x       y       z     vdW  Elec       q    Type
REMARK                         _______ _______ _______ _____ _____    ______ ____
ROOT
ATOM      1  C   UNL     1       1.977   7.425  19.893  0.00  0.00    +0.000 A 
ATOM      2  C   UNL     1       1.312   7.958  20.933  0.00  0.00    +0.000 A 
ATOM      3  C   UNL     1       0.812   9.257  20.751  0.00  0.00    +0.000 A 
ATOM      4  O   UNL     1       0.096   9.987  21.652  0.00  0.00    +0.000 OA
ATOM      5  C   UNL     1      -0.193  11.177  21.066  0.00  0.00    +0.000 A 
ATOM      6  C   UNL     1       0.325  11.241  19.789  0.00  0.00    +0.000 A 
ATOM      7  C   UNL     1       0.226  12.363  18.829  0.00  0.00    +0.000 C 
ATOM      8  C   UNL     1       0.976   9.990  19.593  0.00  0.00    +0.000 A 
ATOM      9  C   UNL     1       1.710   9.425  18.480  0.00  0.00    +0.000 A 
ATOM     10  O   UNL     1       1.898  10.034  17.429  0.00  0.00    +0.000 OA
ATOM     11  O   UNL     1       2.196   8.142  18.672  0.00  0.00    +0.000 OA
ENDROOT
BRANCH   1  16
ATOM     12  C   UNL     1       4.221   2.075  20.021  0.00  0.00    +0.000 C 
ATOM     13  C   UNL     1       3.618   3.451  20.006  0.00  0.00    +0.000 A 
ATOM     14  C   UNL     1       4.244   4.460  19.266  0.00  0.00    +0.000 A 
ATOM     15  C   UNL     1       3.713   5.750  19.229  0.00  0.00    +0.000 A 
ATOM     16  C   UNL     1       2.536   6.062  19.921  0.00  0.00    +0.000 A 
ATOM     17  C   UNL     1       1.915   5.052  20.668  0.00  0.00    +0.000 A 
ATOM     18  C   UNL     1       2.442   3.750  20.721  0.00  0.00    +0.000 A 
ATOM     19  C   UNL     1       1.741   2.707  21.548  0.00  0.00    +0.000 C 
ENDBRANCH   1  16
TORSDOF 1
ENDMDL
