MODEL 1
REMARK VINA RESULT:      -7.4      0.000      0.000
REMARK  Name = 
REMARK  7 active torsions:
REMARK  status: ('A' for Active; 'I' for Inactive)
REMARK    1  A    between atoms: C_1  and  C_2
REMARK    2  A    between atoms: C_2  and  O_3
REMARK    3  A    between atoms: O_3  and  C_4
REMARK    4  A    between atoms: C_4  and  C_6
REMARK    5  A    between atoms: C_6  and  C_14
REMARK    6  A    between atoms: C_7  and  C_8
REMARK    7  A    between atoms: C_14  and  C_16
REMARK                            x       y       z     vdW  Elec       q    Type
REMARK                         _______ _______ _______ _____ _____    ______ ____
ROOT
ATOM      1  C   UNL     1       5.614   4.379  17.044  0.00  0.00    +0.000 C 
ATOM      2  C   UNL     1       4.668   3.477  16.696  0.00  0.00    +0.000 C 
ENDROOT
BRANCH   2   3
ATOM      3  C   UNL     1       3.516   3.096  17.503  0.00  0.00    +0.000 A 
ATOM      4  C   UNL     1       2.273   3.689  17.295  0.00  0.00    +0.000 A 
ATOM      5  C   UNL     1       1.218   3.320  18.122  0.00  0.00    +0.000 A 
ATOM      6  C   UNL     1       1.437   2.368  19.112  0.00  0.00    +0.000 A 
ATOM      7  C   UNL     1       2.701   1.810  19.220  0.00  0.00    +0.000 A 
ATOM      8  N   UNL     1       3.747   2.143  18.429  0.00  0.00    +0.000 NA
ENDBRANCH   2   3
BRANCH   1   9
ATOM      9  C   UNL     1       6.634   4.747  16.032  0.00  0.00    +0.000 C 
ATOM     10  O   UNL     1       7.291   5.777  16.088  0.00  0.00    +0.000 OA
BRANCH   9  11
ATOM     11  O   UNL     1       6.676   3.854  15.007  0.00  0.00    +0.000 OA
BRANCH  11  13
ATOM     12  C   UNL     1       5.974   3.537  12.740  0.00  0.00    +0.000 C 
ATOM     13  C   UNL     1       6.744   4.434  13.697  0.00  0.00    +0.000 C 
ENDBRANCH  11  13
ENDBRANCH   9  11
ENDBRANCH   1   9
BRANCH   1  14
ATOM     14  C   UNL     1       5.506   5.162  18.315  0.00  0.00    +0.000 C 
ATOM     15  O   UNL     1       6.324   5.026  19.224  0.00  0.00    +0.000 OA
BRANCH  14  16
ATOM     16  C   UNL     1       4.354   6.079  18.545  0.00  0.00    +0.000 A 
ATOM     17  C   UNL     1       4.114   7.061  17.571  0.00  0.00    +0.000 A 
ATOM     18  C   UNL     1       3.028   7.930  17.684  0.00  0.00    +0.000 A 
ATOM     19  C   UNL     1       2.167   7.822  18.774  0.00  0.00    +0.000 A 
ATOM     20  C   UNL     1       2.396   6.851  19.750  0.00  0.00    +0.000 A 
ATOM     21  C   UNL     1       3.485   5.974  19.638  0.00  0.00    +0.000 A 
ENDBRANCH  14  16
ENDBRANCH   1  14
TORSDOF 6
ENDMDL
MODEL 2
REMARK VINA RESULT:      -7.4      2.822      5.051
REMARK  Name = 
REMARK  7 active torsions:
REMARK  status: ('A' for Active; 'I' for Inactive)
REMARK    1  A    between atoms: C_1  and  C_2
REMARK    2  A    between atoms: C_2  and  O_3
REMARK    3  A    between atoms: O_3  and  C_4
REMARK    4  A    between atoms: C_4  and  C_6
REMARK    5  A    between atoms: C_6  and  C_14
REMARK    6  A    between atoms: C_7  and  C_8
REMARK    7  A    between atoms: C_14  and  C_16
REMARK                            x       y       z     vdW  Elec       q    Type
REMARK                         _______ _______ _______ _____ _____    ______ ____
ROOT
ATOM      1  C   UNL     1       3.046   4.923  18.162  0.00  0.00    +0.000 C 
ATOM      2  C   UNL     1       4.231   4.744  17.534  0.00  0.00    +0.000 C 
ENDROOT
BRANCH   2   3
ATOM      3  C   UNL     1       5.462   5.472  17.813  0.00  0.00    +0.000 A 
ATOM      4  C   UNL     1       5.787   6.622  17.098  0.00  0.00    +0.000 A 
ATOM      5  C   UNL     1       6.994   7.253  17.375  0.00  0.00    +0.000 A 
ATOM      6  C   UNL     1       7.822   6.726  18.360  0.00  0.00    +0.000 A 
ATOM      7  C   UNL     1       7.396   5.597  19.041  0.00  0.00    +0.000 A 
ATOM      8  N   UNL     1       6.227   4.961  18.800  0.00  0.00    +0.000 NA
ENDBRANCH   2   3
BRANCH   1   9
ATOM      9  C   UNL     1       1.939   3.987  17.845  0.00  0.00    +0.000 C 
ATOM     10  O   UNL     1       1.024   4.266  17.084  0.00  0.00    +0.000 OA
BRANCH   9  11
ATOM     11  O   UNL     1       2.026   2.838  18.567  0.00  0.00    +0.000 OA
BRANCH  11  13
ATOM     12  C   UNL     1       1.360   2.743  20.866  0.00  0.00    +0.000 C 
ATOM     13  C   UNL     1       0.906   2.573  19.424  0.00  0.00    +0.000 C 
ENDBRANCH  11  13
ENDBRANCH   9  11
ENDBRANCH   1   9
BRANCH   1  14
ATOM     14  C   UNL     1       2.915   5.874  19.310  0.00  0.00    +0.000 C 
ATOM     15  O   UNL     1       3.236   5.548  20.452  0.00  0.00    +0.000 OA
BRANCH  14  16
ATOM     16  C   UNL     1       2.317   7.225  19.112  0.00  0.00    +0.000 A 
ATOM     17  C   UNL     1       1.682   7.812  20.218  0.00  0.00    +0.000 A 
ATOM     18  C   UNL     1       1.138   9.094  20.132  0.00  0.00    +0.000 A 
ATOM     19  C   UNL     1       1.230   9.805  18.938  0.00  0.00    +0.000 A 
ATOM     20  C   UNL     1       1.857   9.231  17.832  0.00  0.00    +0.000 A 
ATOM     21  C   UNL     1       2.407   7.945  17.914  0.00  0.00    +0.000 A 
ENDBRANCH  14  16
ENDBRANCH   1  14
TORSDOF 6
ENDMDL
MODEL 3
REMARK VINA RESULT:      -7.3      2.663      4.931
REMARK  Name = 
REMARK  7 active torsions:
REMARK  status: ('A' for Active; 'I' for Inactive)
REMARK    1  A    between atoms: C_1  and  C_2
REMARK    2  A    between atoms: C_2  and  O_3
REMARK    3  A    between atoms: O_3  and  C_4
REMARK    4  A    between atoms: C_4  and  C_6
REMARK    5  A    between atoms: C_6  and  C_14
REMARK    6  A    between atoms: C_7  and  C_8
REMARK    7  A    between atoms: C_14  and  C_16
REMARK                            x       y       z     vdW  Elec       q    Type
REMARK                         _______ _______ _______ _____ _____    ______ ____
ROOT
ATOM      1  C   UNL     1       3.277   4.847  18.121  0.00  0.00    +0.000 C 
ATOM      2  C   UNL     1       4.470   4.760  17.490  0.00  0.00    +0.000 C 
ENDROOT
BRANCH   2   3
ATOM      3  C   UNL     1       5.670   5.515  17.826  0.00  0.00    +0.000 A 
ATOM      4  C   UNL     1       5.985   6.690  17.149  0.00  0.00    +0.000 A 
ATOM      5  C   UNL     1       7.165   7.347  17.481  0.00  0.00    +0.000 A 
ATOM      6  C   UNL     1       7.975   6.819  18.481  0.00  0.00    +0.000 A 
ATOM      7  C   UNL     1       7.559   5.663  19.121  0.00  0.00    +0.000 A 
ATOM      8  N   UNL     1       6.416   5.002  18.827  0.00  0.00    +0.000 NA
ENDBRANCH   2   3
BRANCH   1   9
ATOM      9  C   UNL     1       2.209   3.893  17.733  0.00  0.00    +0.000 C 
ATOM     10  O   UNL     1       2.217   3.273  16.679  0.00  0.00    +0.000 OA
BRANCH   9  11
ATOM     11  O   UNL     1       1.197   3.868  18.641  0.00  0.00    +0.000 OA
BRANCH  11  13
ATOM     12  C   UNL     1       1.099   2.893  20.826  0.00  0.00    +0.000 C 
ATOM     13  C   UNL     1       1.029   2.622  19.331  0.00  0.00    +0.000 C 
ENDBRANCH  11  13
ENDBRANCH   9  11
ENDBRANCH   1   9
BRANCH   1  14
ATOM     14  C   UNL     1       3.105   5.708  19.334  0.00  0.00    +0.000 C 
ATOM     15  O   UNL     1       3.414   5.306  20.455  0.00  0.00    +0.000 OA
BRANCH  14  16
ATOM     16  C   UNL     1       2.479   7.056  19.224  0.00  0.00    +0.000 A 
ATOM     17  C   UNL     1       2.534   7.687  17.970  0.00  0.00    +0.000 A 
ATOM     18  C   UNL     1       1.931   8.929  17.769  0.00  0.00    +0.000 A 
ATOM     19  C   UNL     1       1.262   9.552  18.820  0.00  0.00    +0.000 A 
ATOM     20  C   UNL     1       1.203   8.936  20.071  0.00  0.00    +0.000 A 
ATOM     21  C   UNL     1       1.805   7.687  20.278  0.00  0.00    +0.000 A 
ENDBRANCH  14  16
ENDBRANCH   1  14
TORSDOF 6
ENDMDL
MODEL 4
REMARK VINA RESULT:      -7.3      2.376      5.054
REMARK  Name = 
REMARK  7 active torsions:
REMARK  status: ('A' for Active; 'I' for Inactive)
REMARK    1  A    between atoms: C_1  and  C_2
REMARK    2  A    between atoms: C_2  and  O_3
REMARK    3  A    between atoms: O_3  and  C_4
REMARK    4  A    between atoms: C_4  and  C_6
REMARK    5  A    between atoms: C_6  and  C_14
REMARK    6  A    between atoms: C_7  and  C_8
REMARK    7  A    between atoms: C_14  and  C_16
REMARK                            x       y       z     vdW  Elec       q    Type
REMARK                         _______ _______ _______ _____ _____    ______ ____
ROOT
ATOM      1  C   UNL     1       6.500   5.388  17.257  0.00  0.00    +0.000 C 
ATOM      2  C   UNL     1       7.402   4.985  16.334  0.00  0.00    +0.000 C 
ENDROOT
BRANCH   2   3
ATOM      3  C   UNL     1       7.121   4.711  14.930  0.00  0.00    +0.000 A 
ATOM      4  C   UNL     1       6.152   3.780  14.567  0.00  0.00    +0.000 A 
ATOM      5  C   UNL     1       5.954   3.525  13.214  0.00  0.00    +0.000 A 
ATOM      6  C   UNL     1       6.716   4.216  12.278  0.00  0.00    +0.000 A 
ATOM      7  C   UNL     1       7.633   5.149  12.737  0.00  0.00    +0.000 A 
ATOM      8  N   UNL     1       7.846   5.424  14.043  0.00  0.00    +0.000 NA
ENDBRANCH   2   3
BRANCH   1   9
ATOM      9  C   UNL     1       6.999   5.760  18.604  0.00  0.00    +0.000 C 
ATOM     10  O   UNL     1       6.529   5.311  19.640  0.00  0.00    +0.000 OA
BRANCH   9  11
ATOM     11  O   UNL     1       7.964   6.716  18.541  0.00  0.00    +0.000 OA
BRANCH  11  13
ATOM     12  C   UNL     1       8.410   9.047  18.220  0.00  0.00    +0.000 C 
ATOM     13  C   UNL     1       7.659   7.834  17.695  0.00  0.00    +0.000 C 
ENDBRANCH  11  13
ENDBRANCH   9  11
ENDBRANCH   1   9
BRANCH   1  14
ATOM     14  C   UNL     1       5.083   5.684  16.877  0.00  0.00    +0.000 C 
ATOM     15  O   UNL     1       4.788   6.691  16.236  0.00  0.00    +0.000 OA
BRANCH  14  16
ATOM     16  C   UNL     1       3.975   4.798  17.334  0.00  0.00    +0.000 A 
ATOM     17  C   UNL     1       2.798   5.422  17.778  0.00  0.00    +0.000 A 
ATOM     18  C   UNL     1       1.695   4.667  18.177  0.00  0.00    +0.000 A 
ATOM     19  C   UNL     1       1.757   3.276  18.132  0.00  0.00    +0.000 A 
ATOM     20  C   UNL     1       2.922   2.644  17.694  0.00  0.00    +0.000 A 
ATOM     21  C   UNL     1       4.031   3.399  17.290  0.00  0.00    +0.000 A 
ENDBRANCH  14  16
ENDBRANCH   1  14
TORSDOF 6
ENDMDL
MODEL 5
REMARK VINA RESULT:      -7.3      2.406      5.051
REMARK  Name = 
REMARK  7 active torsions:
REMARK  status: ('A' for Active; 'I' for Inactive)
REMARK    1  A    between atoms: C_1  and  C_2
REMARK    2  A    between atoms: C_2  and  O_3
REMARK    3  A    between atoms: O_3  and  C_4
REMARK    4  A    between atoms: C_4  and  C_6
REMARK    5  A    between atoms: C_6  and  C_14
REMARK    6  A    between atoms: C_7  and  C_8
REMARK    7  A    between atoms: C_14  and  C_16
REMARK                            x       y       z     vdW  Elec       q    Type
REMARK                         _______ _______ _______ _____ _____    ______ ____
ROOT
ATOM      1  C   UNL     1       6.507   5.453  17.165  0.00  0.00    +0.000 C 
ATOM      2  C   UNL     1       7.409   4.976  16.276  0.00  0.00    +0.000 C 
ENDROOT
BRANCH   2   3
ATOM      3  C   UNL     1       7.158   4.714  14.865  0.00  0.00    +0.000 A 
ATOM      4  C   UNL     1       6.209   3.773  14.473  0.00  0.00    +0.000 A 
ATOM      5  C   UNL     1       6.040   3.530  13.115  0.00  0.00    +0.000 A 
ATOM      6  C   UNL     1       6.810   4.242  12.200  0.00  0.00    +0.000 A 
ATOM      7  C   UNL     1       7.705   5.182  12.686  0.00  0.00    +0.000 A 
ATOM      8  N   UNL     1       7.890   5.446  14.000  0.00  0.00    +0.000 NA
ENDBRANCH   2   3
BRANCH   1   9
ATOM      9  C   UNL     1       6.984   5.796  18.527  0.00  0.00    +0.000 C 
ATOM     10  O   UNL     1       6.487   5.338  19.546  0.00  0.00    +0.000 OA
BRANCH   9  11
ATOM     11  O   UNL     1       7.965   6.738  18.498  0.00  0.00    +0.000 OA
BRANCH  11  13
ATOM     12  C   UNL     1       8.460   9.071  18.277  0.00  0.00    +0.000 C 
ATOM     13  C   UNL     1       7.667   7.902  17.713  0.00  0.00    +0.000 C 
ENDBRANCH  11  13
ENDBRANCH   9  11
ENDBRANCH   1   9
BRANCH   1  14
ATOM     14  C   UNL     1       5.131   5.851  16.733  0.00  0.00    +0.000 C 
ATOM     15  O   UNL     1       4.946   6.813  15.988  0.00  0.00    +0.000 OA
BRANCH  14  16
ATOM     16  C   UNL     1       3.934   5.134  17.257  0.00  0.00    +0.000 A 
ATOM     17  C   UNL     1       3.844   3.758  16.989  0.00  0.00    +0.000 A 
ATOM     18  C   UNL     1       2.781   3.002  17.483  0.00  0.00    +0.000 A 
ATOM     19  C   UNL     1       1.798   3.615  18.256  0.00  0.00    +0.000 A 
ATOM     20  C   UNL     1       1.875   4.982  18.528  0.00  0.00    +0.000 A 
ATOM     21  C   UNL     1       2.943   5.745  18.035  0.00  0.00    +0.000 A 
ENDBRANCH  14  16
ENDBRANCH   1  14
TORSDOF 6
ENDMDL
MODEL 6
REMARK VINA RESULT:      -7.3      0.468      1.154
REMARK  Name = 
REMARK  7 active torsions:
REMARK  status: ('A' for Active; 'I' for Inactive)
REMARK    1  A    between atoms: C_1  and  C_2
REMARK    2  A    between atoms: C_2  and  O_3
REMARK    3  A    between atoms: O_3  and  C_4
REMARK    4  A    between atoms: C_4  and  C_6
REMARK    5  A    between atoms: C_6  and  C_14
REMARK    6  A    between atoms: C_7  and  C_8
REMARK    7  A    between atoms: C_14  and  C_16
REMARK                            x       y       z     vdW  Elec       q    Type
REMARK                         _______ _______ _______ _____ _____    ______ ____
ROOT
ATOM      1  C   UNL     1       5.351   4.167  17.094  0.00  0.00    +0.000 C 
ATOM      2  C   UNL     1       4.383   3.247  16.877  0.00  0.00    +0.000 C 
ENDROOT
BRANCH   2   3
ATOM      3  C   UNL     1       3.255   2.974  17.759  0.00  0.00    +0.000 A 
ATOM      4  C   UNL     1       1.998   3.512  17.495  0.00  0.00    +0.000 A 
ATOM      5  C   UNL     1       0.967   3.256  18.392  0.00  0.00    +0.000 A 
ATOM      6  C   UNL     1       1.223   2.463  19.507  0.00  0.00    +0.000 A 
ATOM      7  C   UNL     1       2.499   1.944  19.665  0.00  0.00    +0.000 A 
ATOM      8  N   UNL     1       3.521   2.170  18.809  0.00  0.00    +0.000 NA
ENDBRANCH   2   3
BRANCH   1   9
ATOM      9  C   UNL     1       6.340   4.408  16.014  0.00  0.00    +0.000 C 
ATOM     10  O   UNL     1       7.519   4.651  16.229  0.00  0.00    +0.000 OA
BRANCH   9  11
ATOM     11  O   UNL     1       5.757   4.413  14.786  0.00  0.00    +0.000 OA
BRANCH  11  13
ATOM     12  C   UNL     1       5.772   3.475  12.583  0.00  0.00    +0.000 C 
ATOM     13  C   UNL     1       6.623   4.058  13.699  0.00  0.00    +0.000 C 
ENDBRANCH  11  13
ENDBRANCH   9  11
ENDBRANCH   1   9
BRANCH   1  14
ATOM     14  C   UNL     1       5.295   5.086  18.275  0.00  0.00    +0.000 C 
ATOM     15  O   UNL     1       6.111   5.001  19.192  0.00  0.00    +0.000 OA
BRANCH  14  16
ATOM     16  C   UNL     1       4.197   6.085  18.408  0.00  0.00    +0.000 A 
ATOM     17  C   UNL     1       3.395   6.005  19.558  0.00  0.00    +0.000 A 
ATOM     18  C   UNL     1       2.376   6.930  19.783  0.00  0.00    +0.000 A 
ATOM     19  C   UNL     1       2.152   7.950  18.862  0.00  0.00    +0.000 A 
ATOM     20  C   UNL     1       2.941   8.039  17.714  0.00  0.00    +0.000 A 
ATOM     21  C   UNL     1       3.967   7.113  17.484  0.00  0.00    +0.000 A 
ENDBRANCH  14  16
ENDBRANCH   1  14
TORSDOF 6
ENDMDL
MODEL 7
REMARK VINA RESULT:      -7.2      0.716      1.105
REMARK  Name = 
REMARK  7 active torsions:
REMARK  status: ('A' for Active; 'I' for Inactive)
REMARK    1  A    between atoms: C_1  and  C_2
REMARK    2  A    between atoms: C_2  and  O_3
REMARK    3  A    between atoms: O_3  and  C_4
REMARK    4  A    between atoms: C_4  and  C_6
REMARK    5  A    between atoms: C_6  and  C_14
REMARK    6  A    between atoms: C_7  and  C_8
REMARK    7  A    between atoms: C_14  and  C_16
REMARK                            x       y       z     vdW  Elec       q    Type
REMARK                         _______ _______ _______ _____ _____    ______ ____
ROOT
ATOM      1  C   UNL     1       5.395   4.088  17.084  0.00  0.00    +0.000 C 
ATOM      2  C   UNL     1       4.361   3.279  16.758  0.00  0.00    +0.000 C 
ENDROOT
BRANCH   2   3
ATOM      3  C   UNL     1       3.176   3.041  17.573  0.00  0.00    +0.000 A 
ATOM      4  C   UNL     1       3.200   2.115  18.612  0.00  0.00    +0.000 A 
ATOM      5  C   UNL     1       2.030   1.895  19.329  0.00  0.00    +0.000 A 
ATOM      6  C   UNL     1       0.887   2.614  18.994  0.00  0.00    +0.000 A 
ATOM      7  C   UNL     1       0.970   3.538  17.965  0.00  0.00    +0.000 A 
ATOM      8  N   UNL     1       2.093   3.780  17.251  0.00  0.00    +0.000 NA
ENDBRANCH   2   3
BRANCH   1   9
ATOM      9  C   UNL     1       6.447   4.321  16.064  0.00  0.00    +0.000 C 
ATOM     10  O   UNL     1       7.329   5.157  16.191  0.00  0.00    +0.000 OA
BRANCH   9  11
ATOM     11  O   UNL     1       6.251   3.563  14.952  0.00  0.00    +0.000 OA
BRANCH  11  13
ATOM     12  C   UNL     1       5.854   3.430  12.594  0.00  0.00    +0.000 C 
ATOM     13  C   UNL     1       6.512   4.228  13.708  0.00  0.00    +0.000 C 
ENDBRANCH  11  13
ENDBRANCH   9  11
ENDBRANCH   1   9
BRANCH   1  14
ATOM     14  C   UNL     1       5.368   4.913  18.332  0.00  0.00    +0.000 C 
ATOM     15  O   UNL     1       6.193   4.745  19.229  0.00  0.00    +0.000 OA
BRANCH  14  16
ATOM     16  C   UNL     1       4.289   5.917  18.555  0.00  0.00    +0.000 A 
ATOM     17  C   UNL     1       4.111   6.896  17.564  0.00  0.00    +0.000 A 
ATOM     18  C   UNL     1       3.093   7.844  17.671  0.00  0.00    +0.000 A 
ATOM     19  C   UNL     1       2.238   7.819  18.770  0.00  0.00    +0.000 A 
ATOM     20  C   UNL     1       2.406   6.852  19.762  0.00  0.00    +0.000 A 
ATOM     21  C   UNL     1       3.426   5.896  19.658  0.00  0.00    +0.000 A 
ENDBRANCH  14  16
ENDBRANCH   1  14
TORSDOF 6
ENDMDL
MODEL 8
REMARK VINA RESULT:      -7.2      2.901      5.036
REMARK  Name = 
REMARK  7 active torsions:
REMARK  status: ('A' for Active; 'I' for Inactive)
REMARK    1  A    between atoms: C_1  and  C_2
REMARK    2  A    between atoms: C_2  and  O_3
REMARK    3  A    between atoms: O_3  and  C_4
REMARK    4  A    between atoms: C_4  and  C_6
REMARK    5  A    between atoms: C_6  and  C_14
REMARK    6  A    between atoms: C_7  and  C_8
REMARK    7  A    between atoms: C_14  and  C_16
REMARK                            x       y       z     vdW  Elec       q    Type
REMARK                         _______ _______ _______ _____ _____    ______ ____
ROOT
ATOM      1  C   UNL     1       3.020   4.930  18.093  0.00  0.00    +0.000 C 
ATOM      2  C   UNL     1       4.161   4.778  17.383  0.00  0.00    +0.000 C 
ENDROOT
BRANCH   2   3
ATOM      3  C   UNL     1       5.420   5.466  17.636  0.00  0.00    +0.000 A 
ATOM      4  C   UNL     1       6.366   4.926  18.504  0.00  0.00    +0.000 A 
ATOM      5  C   UNL     1       7.531   5.646  18.744  0.00  0.00    +0.000 A 
ATOM      6  C   UNL     1       7.716   6.865  18.100  0.00  0.00    +0.000 A 
ATOM      7  C   UNL     1       6.733   7.304  17.228  0.00  0.00    +0.000 A 
ATOM      8  N   UNL     1       5.591   6.627  16.969  0.00  0.00    +0.000 NA
ENDBRANCH   2   3
BRANCH   1   9
ATOM      9  C   UNL     1       1.878   4.036  17.780  0.00  0.00    +0.000 C 
ATOM     10  O   UNL     1       0.963   4.354  17.034  0.00  0.00    +0.000 OA
BRANCH   9  11
ATOM     11  O   UNL     1       1.934   2.877  18.489  0.00  0.00    +0.000 OA
BRANCH  11  13
ATOM     12  C   UNL     1       1.286   2.753  20.791  0.00  0.00    +0.000 C 
ATOM     13  C   UNL     1       0.813   2.636  19.351  0.00  0.00    +0.000 C 
ENDBRANCH  11  13
ENDBRANCH   9  11
ENDBRANCH   1   9
BRANCH   1  14
ATOM     14  C   UNL     1       2.977   5.799  19.311  0.00  0.00    +0.000 C 
ATOM     15  O   UNL     1       3.396   5.401  20.397  0.00  0.00    +0.000 OA
BRANCH  14  16
ATOM     16  C   UNL     1       2.351   7.150  19.257  0.00  0.00    +0.000 A 
ATOM     17  C   UNL     1       2.347   7.804  18.015  0.00  0.00    +0.000 A 
ATOM     18  C   UNL     1       1.740   9.052  17.866  0.00  0.00    +0.000 A 
ATOM     19  C   UNL     1       1.124   9.656  18.959  0.00  0.00    +0.000 A 
ATOM     20  C   UNL     1       1.123   9.016  20.200  0.00  0.00    +0.000 A 
ATOM     21  C   UNL     1       1.730   7.762  20.354  0.00  0.00    +0.000 A 
ENDBRANCH  14  16
ENDBRANCH   1  14
TORSDOF 6
ENDMDL
MODEL 9
REMARK VINA RESULT:      -7.1      0.919      1.426
REMARK  Name = 
REMARK  7 active torsions:
REMARK  status: ('A' for Active; 'I' for Inactive)
REMARK    1  A    between atoms: C_1  and  C_2
REMARK    2  A    between atoms: C_2  and  O_3
REMARK    3  A    between atoms: O_3  and  C_4
REMARK    4  A    between atoms: C_4  and  C_6
REMARK    5  A    between atoms: C_6  and  C_14
REMARK    6  A    between atoms: C_7  and  C_8
REMARK    7  A    between atoms: C_14  and  C_16
REMARK                            x       y       z     vdW  Elec       q    Type
REMARK                         _______ _______ _______ _____ _____    ______ ____
ROOT
ATOM      1  C   UNL     1       4.865   5.058  16.881  0.00  0.00    +0.000 C 
ATOM      2  C   UNL     1       4.090   3.987  16.593  0.00  0.00    +0.000 C 
ENDROOT
BRANCH   2   3
ATOM      3  C   UNL     1       3.156   3.342  17.506  0.00  0.00    +0.000 A 
ATOM      4  C   UNL     1       1.835   3.772  17.596  0.00  0.00    +0.000 A 
ATOM      5  C   UNL     1       0.998   3.150  18.515  0.00  0.00    +0.000 A 
ATOM      6  C   UNL     1       1.503   2.116  19.297  0.00  0.00    +0.000 A 
ATOM      7  C   UNL     1       2.822   1.736  19.111  0.00  0.00    +0.000 A 
ATOM      8  N   UNL     1       3.661   2.316  18.223  0.00  0.00    +0.000 NA
ENDBRANCH   2   3
BRANCH   1   9
ATOM      9  C   UNL     1       5.648   5.670  15.779  0.00  0.00    +0.000 C 
ATOM     10  O   UNL     1       5.297   6.684  15.192  0.00  0.00    +0.000 OA
BRANCH   9  11
ATOM     11  O   UNL     1       6.735   4.921  15.454  0.00  0.00    +0.000 OA
BRANCH  11  13
ATOM     12  C   UNL     1       6.115   3.776  13.445  0.00  0.00    +0.000 C 
ATOM     13  C   UNL     1       7.019   4.838  14.050  0.00  0.00    +0.000 C 
ENDBRANCH  11  13
ENDBRANCH   9  11
ENDBRANCH   1   9
BRANCH   1  14
ATOM     14  C   UNL     1       4.760   5.757  18.201  0.00  0.00    +0.000 C 
ATOM     15  O   UNL     1       5.551   5.525  19.114  0.00  0.00    +0.000 OA
BRANCH  14  16
ATOM     16  C   UNL     1       3.641   6.703  18.471  0.00  0.00    +0.000 A 
ATOM     17  C   UNL     1       2.947   6.546  19.682  0.00  0.00    +0.000 A 
ATOM     18  C   UNL     1       1.918   7.419  20.034  0.00  0.00    +0.000 A 
ATOM     19  C   UNL     1       1.574   8.464  19.180  0.00  0.00    +0.000 A 
ATOM     20  C   UNL     1       2.255   8.630  17.973  0.00  0.00    +0.000 A 
ATOM     21  C   UNL     1       3.292   7.756  17.616  0.00  0.00    +0.000 A 
ENDBRANCH  14  16
ENDBRANCH   1  14
TORSDOF 6
ENDMDL
