MODEL 1
REMARK VINA RESULT:      -7.1      0.000      0.000
REMARK  Name = 
REMARK  1 active torsions:
REMARK  status: ('A' for Active; 'I' for Inactive)
REMARK    1  A    between atoms: N_6  and  C_7
REMARK                            x       y       z     vdW  Elec       q    Type
REMARK                         _______ _______ _______ _____ _____    ______ ____
ROOT
ATOM      1  N   UNL     1       7.477   4.978  16.098  0.00  0.00    +0.000 N 
ATOM      2  C   UNL     1       6.480   4.760  17.015  0.00  0.00    +0.000 A 
ATOM      3  N   UNL     1       5.450   4.095  16.586  0.00  0.00    +0.000 NA
ATOM      4  C   UNL     1       4.397   3.812  17.432  0.00  0.00    +0.000 A 
ATOM      5  O   UNL     1       3.432   3.185  17.000  0.00  0.00    +0.000 OA
ATOM      6  N   UNL     1       4.455   4.293  18.763  0.00  0.00    +0.000 N 
ATOM      7  C   UNL     1       5.546   5.023  19.199  0.00  0.00    +0.000 A 
ATOM      8  C   UNL     1       6.584   5.275  18.405  0.00  0.00    +0.000 A 
ATOM      9 CL   UNL     1       7.987   6.107  18.916  0.00  0.00    +0.000 Cl
ATOM     10  H   UNL     1       7.182   4.854  15.134  0.00  0.00    +0.000 HD
ATOM     11  H   UNL     1       8.098   5.766  16.252  0.00  0.00    +0.000 HD
ENDROOT
BRANCH   6  12
ATOM     12  C   UNL     1       3.405   3.967  19.674  0.00  0.00    +0.000 A 
ATOM     13  C   UNL     1       2.239   4.742  19.714  0.00  0.00    +0.000 A 
ATOM     14  C   UNL     1       1.172   4.367  20.531  0.00  0.00    +0.000 A 
ATOM     15  C   UNL     1       1.274   3.238  21.342  0.00  0.00    +0.000 A 
ATOM     16  C   UNL     1       2.441   2.476  21.330  0.00  0.00    +0.000 A 
ATOM     17  C   UNL     1       3.497   2.827  20.485  0.00  0.00    +0.000 A 
ENDBRANCH   6  12
TORSDOF 1
ENDMDL
MODEL 2
REMARK VINA RESULT:      -7.1      0.382      1.301
REMARK  Name = 
REMARK  1 active torsions:
REMARK  status: ('A' for Active; 'I' for Inactive)
REMARK    1  A    between atoms: N_6  and  C_7
REMARK                            x       y       z     vdW  Elec       q    Type
REMARK                         _______ _______ _______ _____ _____    ______ ____
ROOT
ATOM      1  N   UNL     1       7.368   5.578  15.943  0.00  0.00    +0.000 N 
ATOM      2  C   UNL     1       6.395   5.243  16.851  0.00  0.00    +0.000 A 
ATOM      3  N   UNL     1       5.366   4.611  16.372  0.00  0.00    +0.000 NA
ATOM      4  C   UNL     1       4.337   4.217  17.203  0.00  0.00    +0.000 A 
ATOM      5  O   UNL     1       3.373   3.625  16.724  0.00  0.00    +0.000 OA
ATOM      6  N   UNL     1       4.418   4.549  18.577  0.00  0.00    +0.000 N 
ATOM      7  C   UNL     1       5.507   5.246  19.069  0.00  0.00    +0.000 A 
ATOM      8  C   UNL     1       6.523   5.603  18.286  0.00  0.00    +0.000 A 
ATOM      9 CL   UNL     1       7.924   6.398  18.858  0.00  0.00    +0.000 Cl
ATOM     10  H   UNL     1       7.053   5.556  14.978  0.00  0.00    +0.000 HD
ATOM     11  H   UNL     1       7.980   6.355  16.170  0.00  0.00    +0.000 HD
ENDROOT
BRANCH   6  12
ATOM     12  C   UNL     1       3.394   4.106  19.469  0.00  0.00    +0.000 A 
ATOM     13  C   UNL     1       3.552   2.916  20.189  0.00  0.00    +0.000 A 
ATOM     14  C   UNL     1       2.599   2.534  21.135  0.00  0.00    +0.000 A 
ATOM     15  C   UNL     1       1.465   3.318  21.342  0.00  0.00    +0.000 A 
ATOM     16  C   UNL     1       1.286   4.490  20.609  0.00  0.00    +0.000 A 
ATOM     17  C   UNL     1       2.256   4.895  19.690  0.00  0.00    +0.000 A 
ENDBRANCH   6  12
TORSDOF 1
ENDMDL
MODEL 3
REMARK VINA RESULT:      -7.0      2.112      2.418
REMARK  Name = 
REMARK  1 active torsions:
REMARK  status: ('A' for Active; 'I' for Inactive)
REMARK    1  A    between atoms: N_6  and  C_7
REMARK                            x       y       z     vdW  Elec       q    Type
REMARK                         _______ _______ _______ _____ _____    ______ ____
ROOT
ATOM      1  N   UNL     1       7.694   5.341  15.360  0.00  0.00    +0.000 N 
ATOM      2  C   UNL     1       6.752   5.039  16.310  0.00  0.00    +0.000 A 
ATOM      3  N   UNL     1       7.100   5.254  17.543  0.00  0.00    +0.000 NA
ATOM      4  C   UNL     1       6.221   4.994  18.575  0.00  0.00    +0.000 A 
ATOM      5  O   UNL     1       6.577   5.201  19.732  0.00  0.00    +0.000 OA
ATOM      6  N   UNL     1       4.949   4.459  18.256  0.00  0.00    +0.000 N 
ATOM      7  C   UNL     1       4.601   4.210  16.941  0.00  0.00    +0.000 A 
ATOM      8  C   UNL     1       5.425   4.486  15.933  0.00  0.00    +0.000 A 
ATOM      9 CL   UNL     1       5.015   4.268  14.288  0.00  0.00    +0.000 Cl
ATOM     10  H   UNL     1       8.637   5.422  15.728  0.00  0.00    +0.000 HD
ATOM     11  H   UNL     1       7.629   4.872  14.463  0.00  0.00    +0.000 HD
ENDROOT
BRANCH   6  12
ATOM     12  C   UNL     1       4.001   4.232  19.299  0.00  0.00    +0.000 A 
ATOM     13  C   UNL     1       3.164   5.270  19.730  0.00  0.00    +0.000 A 
ATOM     14  C   UNL     1       2.168   5.024  20.677  0.00  0.00    +0.000 A 
ATOM     15  C   UNL     1       2.026   3.751  21.228  0.00  0.00    +0.000 A 
ATOM     16  C   UNL     1       2.872   2.720  20.827  0.00  0.00    +0.000 A 
ATOM     17  C   UNL     1       3.844   2.953  19.851  0.00  0.00    +0.000 A 
ENDBRANCH   6  12
TORSDOF 1
ENDMDL
MODEL 4
REMARK VINA RESULT:      -6.9      2.042      2.162
REMARK  Name = 
REMARK  1 active torsions:
REMARK  status: ('A' for Active; 'I' for Inactive)
REMARK    1  A    between atoms: N_6  and  C_7
REMARK                            x       y       z     vdW  Elec       q    Type
REMARK                         _______ _______ _______ _____ _____    ______ ____
ROOT
ATOM      1  N   UNL     1       7.082   7.257  16.722  0.00  0.00    +0.000 N 
ATOM      2  C   UNL     1       6.060   6.544  17.296  0.00  0.00    +0.000 A 
ATOM      3  N   UNL     1       4.904   7.136  17.329  0.00  0.00    +0.000 NA
ATOM      4  C   UNL     1       3.807   6.500  17.874  0.00  0.00    +0.000 A 
ATOM      5  O   UNL     1       2.726   7.084  17.897  0.00  0.00    +0.000 OA
ATOM      6  N   UNL     1       3.984   5.208  18.425  0.00  0.00    +0.000 N 
ATOM      7  C   UNL     1       5.227   4.601  18.408  0.00  0.00    +0.000 A 
ATOM      8  C   UNL     1       6.286   5.187  17.855  0.00  0.00    +0.000 A 
ATOM      9 CL   UNL     1       7.824   4.449  17.742  0.00  0.00    +0.000 Cl
ATOM     10  H   UNL     1       6.897   8.253  16.650  0.00  0.00    +0.000 HD
ATOM     11  H   UNL     1       8.032   7.021  16.988  0.00  0.00    +0.000 HD
ENDROOT
BRANCH   6  12
ATOM     12  C   UNL     1       2.855   4.506  18.946  0.00  0.00    +0.000 A 
ATOM     13  C   UNL     1       2.106   3.659  18.119  0.00  0.00    +0.000 A 
ATOM     14  C   UNL     1       1.066   2.895  18.651  0.00  0.00    +0.000 A 
ATOM     15  C   UNL     1       0.741   2.999  20.003  0.00  0.00    +0.000 A 
ATOM     16  C   UNL     1       1.463   3.860  20.827  0.00  0.00    +0.000 A 
ATOM     17  C   UNL     1       2.529   4.597  20.307  0.00  0.00    +0.000 A 
ENDBRANCH   6  12
TORSDOF 1
ENDMDL
MODEL 5
REMARK VINA RESULT:      -6.9      2.049      2.556
REMARK  Name = 
REMARK  1 active torsions:
REMARK  status: ('A' for Active; 'I' for Inactive)
REMARK    1  A    between atoms: N_6  and  C_7
REMARK                            x       y       z     vdW  Elec       q    Type
REMARK                         _______ _______ _______ _____ _____    ______ ____
ROOT
ATOM      1  N   UNL     1       7.772   4.717  15.919  0.00  0.00    +0.000 N 
ATOM      2  C   UNL     1       6.626   4.498  16.641  0.00  0.00    +0.000 A 
ATOM      3  N   UNL     1       6.753   4.537  17.933  0.00  0.00    +0.000 NA
ATOM      4  C   UNL     1       5.659   4.342  18.751  0.00  0.00    +0.000 A 
ATOM      5  O   UNL     1       5.807   4.379  19.970  0.00  0.00    +0.000 OA
ATOM      6  N   UNL     1       4.409   4.066  18.147  0.00  0.00    +0.000 N 
ATOM      7  C   UNL     1       4.293   4.000  16.769  0.00  0.00    +0.000 A 
ATOM      8  C   UNL     1       5.332   4.219  15.967  0.00  0.00    +0.000 A 
ATOM      9 CL   UNL     1       5.226   4.224  14.261  0.00  0.00    +0.000 Cl
ATOM     10  H   UNL     1       8.625   4.600  16.458  0.00  0.00    +0.000 HD
ATOM     11  H   UNL     1       7.815   4.349  14.975  0.00  0.00    +0.000 HD
ENDROOT
BRANCH   6  12
ATOM     12  C   UNL     1       3.250   3.914  18.967  0.00  0.00    +0.000 A 
ATOM     13  C   UNL     1       2.760   2.636  19.267  0.00  0.00    +0.000 A 
ATOM     14  C   UNL     1       1.690   2.482  20.149  0.00  0.00    +0.000 A 
ATOM     15  C   UNL     1       1.077   3.603  20.709  0.00  0.00    +0.000 A 
ATOM     16  C   UNL     1       1.540   4.879  20.395  0.00  0.00    +0.000 A 
ATOM     17  C   UNL     1       2.635   5.035  19.542  0.00  0.00    +0.000 A 
ENDBRANCH   6  12
TORSDOF 1
ENDMDL
MODEL 6
REMARK VINA RESULT:      -6.9      1.992      2.129
REMARK  Name = 
REMARK  1 active torsions:
REMARK  status: ('A' for Active; 'I' for Inactive)
REMARK    1  A    between atoms: N_6  and  C_7
REMARK                            x       y       z     vdW  Elec       q    Type
REMARK                         _______ _______ _______ _____ _____    ______ ____
ROOT
ATOM      1  N   UNL     1       7.088   7.215  16.741  0.00  0.00    +0.000 N 
ATOM      2  C   UNL     1       6.086   6.481  17.323  0.00  0.00    +0.000 A 
ATOM      3  N   UNL     1       4.916   7.043  17.354  0.00  0.00    +0.000 NA
ATOM      4  C   UNL     1       3.836   6.384  17.907  0.00  0.00    +0.000 A 
ATOM      5  O   UNL     1       2.741   6.941  17.928  0.00  0.00    +0.000 OA
ATOM      6  N   UNL     1       4.046   5.101  18.467  0.00  0.00    +0.000 N 
ATOM      7  C   UNL     1       5.305   4.526  18.453  0.00  0.00    +0.000 A 
ATOM      8  C   UNL     1       6.347   5.134  17.893  0.00  0.00    +0.000 A 
ATOM      9 CL   UNL     1       7.903   4.434  17.781  0.00  0.00    +0.000 Cl
ATOM     10  H   UNL     1       6.879   8.205  16.662  0.00  0.00    +0.000 HD
ATOM     11  H   UNL     1       8.045   7.005  17.007  0.00  0.00    +0.000 HD
ENDROOT
BRANCH   6  12
ATOM     12  C   UNL     1       2.937   4.375  18.997  0.00  0.00    +0.000 A 
ATOM     13  C   UNL     1       2.565   4.533  20.338  0.00  0.00    +0.000 A 
ATOM     14  C   UNL     1       1.421   3.903  20.831  0.00  0.00    +0.000 A 
ATOM     15  C   UNL     1       0.662   3.081  19.999  0.00  0.00    +0.000 A 
ATOM     16  C   UNL     1       1.040   2.895  18.670  0.00  0.00    +0.000 A 
ATOM     17  C   UNL     1       2.163   3.555  18.164  0.00  0.00    +0.000 A 
ENDBRANCH   6  12
TORSDOF 1
ENDMDL
MODEL 7
REMARK VINA RESULT:      -6.7      2.580      5.148
REMARK  Name = 
REMARK  1 active torsions:
REMARK  status: ('A' for Active; 'I' for Inactive)
REMARK    1  A    between atoms: N_6  and  C_7
REMARK                            x       y       z     vdW  Elec       q    Type
REMARK                         _______ _______ _______ _____ _____    ______ ____
ROOT
ATOM      1  N   UNL     1       1.278   1.971  18.617  0.00  0.00    +0.000 N 
ATOM      2  C   UNL     1       2.330   2.851  18.587  0.00  0.00    +0.000 A 
ATOM      3  N   UNL     1       3.167   2.701  17.604  0.00  0.00    +0.000 NA
ATOM      4  C   UNL     1       4.254   3.542  17.475  0.00  0.00    +0.000 A 
ATOM      5  O   UNL     1       5.033   3.376  16.540  0.00  0.00    +0.000 OA
ATOM      6  N   UNL     1       4.449   4.544  18.456  0.00  0.00    +0.000 N 
ATOM      7  C   UNL     1       3.565   4.675  19.513  0.00  0.00    +0.000 A 
ATOM      8  C   UNL     1       2.494   3.894  19.632  0.00  0.00    +0.000 A 
ATOM      9 CL   UNL     1       1.333   4.063  20.874  0.00  0.00    +0.000 Cl
ATOM     10  H   UNL     1       1.422   1.140  18.052  0.00  0.00    +0.000 HD
ATOM     11  H   UNL     1       0.827   1.803  19.510  0.00  0.00    +0.000 HD
ENDROOT
BRANCH   6  12
ATOM     12  C   UNL     1       5.534   5.462  18.317  0.00  0.00    +0.000 A 
ATOM     13  C   UNL     1       6.696   5.302  19.082  0.00  0.00    +0.000 A 
ATOM     14  C   UNL     1       7.796   6.137  18.875  0.00  0.00    +0.000 A 
ATOM     15  C   UNL     1       7.729   7.161  17.931  0.00  0.00    +0.000 A 
ATOM     16  C   UNL     1       6.566   7.345  17.185  0.00  0.00    +0.000 A 
ATOM     17  C   UNL     1       5.478   6.488  17.363  0.00  0.00    +0.000 A 
ENDBRANCH   6  12
TORSDOF 1
ENDMDL
MODEL 8
REMARK VINA RESULT:      -6.7      2.328      2.881
REMARK  Name = 
REMARK  1 active torsions:
REMARK  status: ('A' for Active; 'I' for Inactive)
REMARK    1  A    between atoms: N_6  and  C_7
REMARK                            x       y       z     vdW  Elec       q    Type
REMARK                         _______ _______ _______ _____ _____    ______ ____
ROOT
ATOM      1  N   UNL     1       7.723   6.645  16.400  0.00  0.00    +0.000 N 
ATOM      2  C   UNL     1       6.644   5.872  16.746  0.00  0.00    +0.000 A 
ATOM      3  N   UNL     1       6.180   6.050  17.947  0.00  0.00    +0.000 NA
ATOM      4  C   UNL     1       5.089   5.331  18.390  0.00  0.00    +0.000 A 
ATOM      5  O   UNL     1       4.673   5.515  19.532  0.00  0.00    +0.000 OA
ATOM      6  N   UNL     1       4.513   4.376  17.518  0.00  0.00    +0.000 N 
ATOM      7  C   UNL     1       5.034   4.177  16.251  0.00  0.00    +0.000 A 
ATOM      8  C   UNL     1       6.064   4.887  15.798  0.00  0.00    +0.000 A 
ATOM      9 CL   UNL     1       6.696   4.733  14.217  0.00  0.00    +0.000 Cl
ATOM     10  H   UNL     1       8.209   7.049  17.195  0.00  0.00    +0.000 HD
ATOM     11  H   UNL     1       8.329   6.307  15.660  0.00  0.00    +0.000 HD
ENDROOT
BRANCH   6  12
ATOM     12  C   UNL     1       3.350   3.658  17.931  0.00  0.00    +0.000 A 
ATOM     13  C   UNL     1       3.474   2.396  18.527  0.00  0.00    +0.000 A 
ATOM     14  C   UNL     1       2.348   1.738  19.022  0.00  0.00    +0.000 A 
ATOM     15  C   UNL     1       1.086   2.316  18.892  0.00  0.00    +0.000 A 
ATOM     16  C   UNL     1       0.949   3.558  18.276  0.00  0.00    +0.000 A 
ATOM     17  C   UNL     1       2.079   4.237  17.813  0.00  0.00    +0.000 A 
ENDBRANCH   6  12
TORSDOF 1
ENDMDL
MODEL 9
REMARK VINA RESULT:      -6.7      2.232      2.868
REMARK  Name = 
REMARK  1 active torsions:
REMARK  status: ('A' for Active; 'I' for Inactive)
REMARK    1  A    between atoms: N_6  and  C_7
REMARK                            x       y       z     vdW  Elec       q    Type
REMARK                         _______ _______ _______ _____ _____    ______ ____
ROOT
ATOM      1  N   UNL     1       7.761   5.209  14.825  0.00  0.00    +0.000 N 
ATOM      2  C   UNL     1       6.849   4.891  15.799  0.00  0.00    +0.000 A 
ATOM      3  N   UNL     1       7.229   5.101  17.023  0.00  0.00    +0.000 NA
ATOM      4  C   UNL     1       6.382   4.826  18.077  0.00  0.00    +0.000 A 
ATOM      5  O   UNL     1       6.768   5.030  19.226  0.00  0.00    +0.000 OA
ATOM      6  N   UNL     1       5.108   4.279  17.791  0.00  0.00    +0.000 N 
ATOM      7  C   UNL     1       4.726   4.034  16.484  0.00  0.00    +0.000 A 
ATOM      8  C   UNL     1       5.519   4.326  15.455  0.00  0.00    +0.000 A 
ATOM      9 CL   UNL     1       5.065   4.113  13.821  0.00  0.00    +0.000 Cl
ATOM     10  H   UNL     1       8.713   5.298  15.167  0.00  0.00    +0.000 HD
ATOM     11  H   UNL     1       7.676   4.745  13.927  0.00  0.00    +0.000 HD
ENDROOT
BRANCH   6  12
ATOM     12  C   UNL     1       4.192   4.035  18.858  0.00  0.00    +0.000 A 
ATOM     13  C   UNL     1       4.143   2.778  19.474  0.00  0.00    +0.000 A 
ATOM     14  C   UNL     1       3.321   2.569  20.583  0.00  0.00    +0.000 A 
ATOM     15  C   UNL     1       2.514   3.601  21.060  0.00  0.00    +0.000 A 
ATOM     16  C   UNL     1       2.535   4.847  20.437  0.00  0.00    +0.000 A 
ATOM     17  C   UNL     1       3.385   5.071  19.352  0.00  0.00    +0.000 A 
ENDBRANCH   6  12
TORSDOF 1
ENDMDL
