MODEL 1
REMARK VINA RESULT:      -7.7      0.000      0.000
REMARK  Name = 
REMARK  9 active torsions:
REMARK  status: ('A' for Active; 'I' for Inactive)
REMARK    1  A    between atoms: C_1  and  C_2
REMARK    2  A    between atoms: C_2  and  N_3
REMARK    3  A    between atoms: N_3  and  C_4
REMARK    4  A    between atoms: C_4  and  C_5
REMARK    5  A    between atoms: N_7  and  C_8
REMARK    6  A    between atoms: C_13  and  O_14
REMARK    7  A    between atoms: O_14  and  C_15
REMARK    8  A    between atoms: C_16  and  C_18
REMARK    9  A    between atoms: C_18  and  C_19
REMARK                            x       y       z     vdW  Elec       q    Type
REMARK                         _______ _______ _______ _____ _____    ______ ____
ROOT
ATOM      1  N   UNL     1       2.792   2.948  19.993  0.00  0.00    +0.000 N 
ATOM      2  C   UNL     1       3.752   2.764  19.002  0.00  0.00    +0.000 C 
ATOM      3  O   UNL     1       3.712   1.791  18.247  0.00  0.00    +0.000 OA
ENDROOT
BRANCH   1   5
ATOM      4  C   UNL     1       0.634   2.284  18.902  0.00  0.00    +0.000 C 
ATOM      5  C   UNL     1       1.647   2.025  20.006  0.00  0.00    +0.000 C 
ENDBRANCH   1   5
BRANCH   1   6
ATOM      6  C   UNL     1       2.763   4.084  20.929  0.00  0.00    +0.000 C 
BRANCH   6   7
ATOM      7  C   UNL     1       1.973   5.329  20.493  0.00  0.00    +0.000 C 
ATOM      8  O   UNL     1       0.746   5.312  20.461  0.00  0.00    +0.000 OA
ATOM      9  N   UNL     1       2.760   6.432  20.203  0.00  0.00    +0.000 N 
ATOM     10  H   UNL     1       3.650   6.164  19.799  0.00  0.00    +0.000 HD
BRANCH   9  11
ATOM     11  C   UNL     1       2.173   7.600  19.667  0.00  0.00    +0.000 A 
ATOM     12  C   UNL     1       2.364   7.816  18.294  0.00  0.00    +0.000 A 
ATOM     13  C   UNL     1       1.758   8.898  17.658  0.00  0.00    +0.000 A 
ATOM     14  C   UNL     1       0.990   9.796  18.393  0.00  0.00    +0.000 A 
ATOM     15  C   UNL     1       0.821   9.601  19.767  0.00  0.00    +0.000 A 
ATOM     16  C   UNL     1       1.414   8.513  20.419  0.00  0.00    +0.000 A 
BRANCH  16  17
ATOM     17  O   UNL     1       1.154   8.481  21.763  0.00  0.00    +0.000 OA
ATOM     18  C   UNL     1      -0.152   8.865  22.165  0.00  0.00    +0.000 C 
ENDBRANCH  16  17
ENDBRANCH   9  11
ENDBRANCH   6   7
ENDBRANCH   1   6
BRANCH   2  19
ATOM     19  C   UNL     1       4.889   3.768  18.856  0.00  0.00    +0.000 C 
BRANCH  19  20
ATOM     20  C   UNL     1       4.623   4.830  17.784  0.00  0.00    +0.000 C 
ATOM     21  C   UNL     1       4.671   4.314  16.324  0.00  0.00    +0.000 C 
ATOM     22  C   UNL     1       5.662   5.275  15.640  0.00  0.00    +0.000 C 
ATOM     23  C   UNL     1       7.082   4.934  16.123  0.00  0.00    +0.000 C 
ATOM     24  C   UNL     1       7.094   5.483  17.556  0.00  0.00    +0.000 C 
ATOM     25  C   UNL     1       5.653   5.993  17.748  0.00  0.00    +0.000 C 
ATOM     26  C   UNL     1       5.385   6.592  16.363  0.00  0.00    +0.000 C 
ENDBRANCH  19  20
ENDBRANCH   2  19
TORSDOF 7
ENDMDL
MODEL 2
REMARK VINA RESULT:      -7.5      3.272      7.320
REMARK  Name = 
REMARK  9 active torsions:
REMARK  status: ('A' for Active; 'I' for Inactive)
REMARK    1  A    between atoms: C_1  and  C_2
REMARK    2  A    between atoms: C_2  and  N_3
REMARK    3  A    between atoms: N_3  and  C_4
REMARK    4  A    between atoms: C_4  and  C_5
REMARK    5  A    between atoms: N_7  and  C_8
REMARK    6  A    between atoms: C_13  and  O_14
REMARK    7  A    between atoms: O_14  and  C_15
REMARK    8  A    between atoms: C_16  and  C_18
REMARK    9  A    between atoms: C_18  and  C_19
REMARK                            x       y       z     vdW  Elec       q    Type
REMARK                         _______ _______ _______ _____ _____    ______ ____
ROOT
ATOM      1  N   UNL     1       5.784   5.352  18.409  0.00  0.00    +0.000 N 
ATOM      2  C   UNL     1       5.034   4.217  18.697  0.00  0.00    +0.000 C 
ATOM      3  O   UNL     1       5.437   3.372  19.499  0.00  0.00    +0.000 OA
ENDROOT
BRANCH   1   5
ATOM      4  C   UNL     1       7.942   6.615  18.609  0.00  0.00    +0.000 C 
ATOM      5  C   UNL     1       6.998   5.583  19.207  0.00  0.00    +0.000 C 
ENDBRANCH   1   5
BRANCH   1   6
ATOM      6  C   UNL     1       5.373   6.412  17.471  0.00  0.00    +0.000 C 
BRANCH   6   7
ATOM      7  C   UNL     1       5.539   6.120  15.971  0.00  0.00    +0.000 C 
ATOM      8  O   UNL     1       5.089   6.893  15.130  0.00  0.00    +0.000 OA
ATOM      9  N   UNL     1       6.260   4.970  15.689  0.00  0.00    +0.000 N 
ATOM     10  H   UNL     1       6.108   4.250  16.385  0.00  0.00    +0.000 HD
BRANCH   9  11
ATOM     11  C   UNL     1       6.376   4.517  14.356  0.00  0.00    +0.000 A 
ATOM     12  C   UNL     1       5.368   3.650  13.906  0.00  0.00    +0.000 A 
ATOM     13  C   UNL     1       5.351   3.212  12.583  0.00  0.00    +0.000 A 
ATOM     14  C   UNL     1       6.363   3.600  11.709  0.00  0.00    +0.000 A 
ATOM     15  C   UNL     1       7.385   4.440  12.161  0.00  0.00    +0.000 A 
ATOM     16  C   UNL     1       7.410   4.898  13.483  0.00  0.00    +0.000 A 
BRANCH  16  17
ATOM     17  O   UNL     1       8.485   5.700  13.758  0.00  0.00    +0.000 OA
ATOM     18  C   UNL     1       9.162   6.256  12.641  0.00  0.00    +0.000 C 
ENDBRANCH  16  17
ENDBRANCH   9  11
ENDBRANCH   6   7
ENDBRANCH   1   6
BRANCH   2  19
ATOM     19  C   UNL     1       3.699   3.995  17.996  0.00  0.00    +0.000 C 
BRANCH  19  20
ATOM     20  C   UNL     1       2.497   4.461  18.825  0.00  0.00    +0.000 C 
ATOM     21  C   UNL     1       2.847   5.044  20.217  0.00  0.00    +0.000 C 
ATOM     22  C   UNL     1       1.954   4.235  21.176  0.00  0.00    +0.000 C 
ATOM     23  C   UNL     1       2.532   2.814  21.295  0.00  0.00    +0.000 C 
ATOM     24  C   UNL     1       2.154   2.180  19.949  0.00  0.00    +0.000 C 
ATOM     25  C   UNL     1       1.483   3.342  19.191  0.00  0.00    +0.000 C 
ATOM     26  C   UNL     1       0.702   4.002  20.332  0.00  0.00    +0.000 C 
ENDBRANCH  19  20
ENDBRANCH   2  19
TORSDOF 7
ENDMDL
MODEL 3
REMARK VINA RESULT:      -7.4      0.590      1.208
REMARK  Name = 
REMARK  9 active torsions:
REMARK  status: ('A' for Active; 'I' for Inactive)
REMARK    1  A    between atoms: C_1  and  C_2
REMARK    2  A    between atoms: C_2  and  N_3
REMARK    3  A    between atoms: N_3  and  C_4
REMARK    4  A    between atoms: C_4  and  C_5
REMARK    5  A    between atoms: N_7  and  C_8
REMARK    6  A    between atoms: C_13  and  O_14
REMARK    7  A    between atoms: O_14  and  C_15
REMARK    8  A    between atoms: C_16  and  C_18
REMARK    9  A    between atoms: C_18  and  C_19
REMARK                            x       y       z     vdW  Elec       q    Type
REMARK                         _______ _______ _______ _____ _____    ______ ____
ROOT
ATOM      1  N   UNL     1       2.847   3.173  19.997  0.00  0.00    +0.000 N 
ATOM      2  C   UNL     1       3.886   3.165  19.072  0.00  0.00    +0.000 C 
ATOM      3  O   UNL     1       4.003   2.253  18.251  0.00  0.00    +0.000 OA
ENDROOT
BRANCH   1   5
ATOM      4  C   UNL     1       0.784   2.434  18.776  0.00  0.00    +0.000 C 
ATOM      5  C   UNL     1       1.810   2.139  19.860  0.00  0.00    +0.000 C 
ENDBRANCH   1   5
BRANCH   1   6
ATOM      6  C   UNL     1       2.630   4.225  21.004  0.00  0.00    +0.000 C 
BRANCH   6   7
ATOM      7  C   UNL     1       1.836   5.464  20.560  0.00  0.00    +0.000 C 
ATOM      8  O   UNL     1       0.614   5.417  20.449  0.00  0.00    +0.000 OA
ATOM      9  N   UNL     1       2.609   6.597  20.360  0.00  0.00    +0.000 N 
ATOM     10  H   UNL     1       3.529   6.367  20.005  0.00  0.00    +0.000 HD
BRANCH   9  11
ATOM     11  C   UNL     1       2.025   7.768  19.828  0.00  0.00    +0.000 A 
ATOM     12  C   UNL     1       2.191   7.973  18.450  0.00  0.00    +0.000 A 
ATOM     13  C   UNL     1       1.584   9.057  17.818  0.00  0.00    +0.000 A 
ATOM     14  C   UNL     1       0.843   9.969  18.562  0.00  0.00    +0.000 A 
ATOM     15  C   UNL     1       0.699   9.786  19.941  0.00  0.00    +0.000 A 
ATOM     16  C   UNL     1       1.292   8.696  20.588  0.00  0.00    +0.000 A 
BRANCH  16  17
ATOM     17  O   UNL     1       1.059   8.677  21.938  0.00  0.00    +0.000 OA
ATOM     18  C   UNL     1      -0.192   9.187  22.372  0.00  0.00    +0.000 C 
ENDBRANCH  16  17
ENDBRANCH   9  11
ENDBRANCH   6   7
ENDBRANCH   1   6
BRANCH   2  19
ATOM     19  C   UNL     1       4.915   4.288  19.082  0.00  0.00    +0.000 C 
BRANCH  19  20
ATOM     20  C   UNL     1       5.816   4.294  17.842  0.00  0.00    +0.000 C 
ATOM     21  C   UNL     1       7.185   4.994  18.029  0.00  0.00    +0.000 C 
ATOM     22  C   UNL     1       7.232   6.001  16.865  0.00  0.00    +0.000 C 
ATOM     23  C   UNL     1       6.263   7.153  17.180  0.00  0.00    +0.000 C 
ATOM     24  C   UNL     1       4.887   6.513  16.950  0.00  0.00    +0.000 C 
ATOM     25  C   UNL     1       5.234   5.049  16.615  0.00  0.00    +0.000 C 
ATOM     26  C   UNL     1       6.489   5.250  15.761  0.00  0.00    +0.000 C 
ENDBRANCH  19  20
ENDBRANCH   2  19
TORSDOF 7
ENDMDL
MODEL 4
REMARK VINA RESULT:      -7.2      0.946      1.210
REMARK  Name = 
REMARK  9 active torsions:
REMARK  status: ('A' for Active; 'I' for Inactive)
REMARK    1  A    between atoms: C_1  and  C_2
REMARK    2  A    between atoms: C_2  and  N_3
REMARK    3  A    between atoms: N_3  and  C_4
REMARK    4  A    between atoms: C_4  and  C_5
REMARK    5  A    between atoms: N_7  and  C_8
REMARK    6  A    between atoms: C_13  and  O_14
REMARK    7  A    between atoms: O_14  and  C_15
REMARK    8  A    between atoms: C_16  and  C_18
REMARK    9  A    between atoms: C_18  and  C_19
REMARK                            x       y       z     vdW  Elec       q    Type
REMARK                         _______ _______ _______ _____ _____    ______ ____
ROOT
ATOM      1  N   UNL     1       2.846   3.768  19.054  0.00  0.00    +0.000 N 
ATOM      2  C   UNL     1       4.102   3.562  18.491  0.00  0.00    +0.000 C 
ATOM      3  O   UNL     1       4.231   2.969  17.418  0.00  0.00    +0.000 OA
ENDROOT
BRANCH   1   5
ATOM      4  C   UNL     1       0.719   2.442  18.959  0.00  0.00    +0.000 C 
ATOM      5  C   UNL     1       1.674   3.391  18.250  0.00  0.00    +0.000 C 
ENDBRANCH   1   5
BRANCH   1   6
ATOM      6  C   UNL     1       2.604   4.471  20.325  0.00  0.00    +0.000 C 
BRANCH   6   7
ATOM      7  C   UNL     1       1.794   5.776  20.258  0.00  0.00    +0.000 C 
ATOM      8  O   UNL     1       0.598   5.785  20.532  0.00  0.00    +0.000 OA
ATOM      9  N   UNL     1       2.540   6.895  19.921  0.00  0.00    +0.000 N 
ATOM     10  H   UNL     1       3.289   6.667  19.277  0.00  0.00    +0.000 HD
BRANCH   9  11
ATOM     11  C   UNL     1       1.899   8.133  19.698  0.00  0.00    +0.000 A 
ATOM     12  C   UNL     1       1.793   8.546  18.361  0.00  0.00    +0.000 A 
ATOM     13  C   UNL     1       1.107   9.714  18.034  0.00  0.00    +0.000 A 
ATOM     14  C   UNL     1       0.557  10.503  19.040  0.00  0.00    +0.000 A 
ATOM     15  C   UNL     1       0.686  10.111  20.376  0.00  0.00    +0.000 A 
ATOM     16  C   UNL     1       1.361   8.934  20.720  0.00  0.00    +0.000 A 
BRANCH  16  17
ATOM     17  O   UNL     1       1.401   8.709  22.071  0.00  0.00    +0.000 OA
ATOM     18  C   UNL     1       0.325   9.234  22.832  0.00  0.00    +0.000 C 
ENDBRANCH  16  17
ENDBRANCH   9  11
ENDBRANCH   6   7
ENDBRANCH   1   6
BRANCH   2  19
ATOM     19  C   UNL     1       5.347   4.054  19.220  0.00  0.00    +0.000 C 
BRANCH  19  20
ATOM     20  C   UNL     1       5.792   5.452  18.776  0.00  0.00    +0.000 C 
ATOM     21  C   UNL     1       5.047   6.017  17.541  0.00  0.00    +0.000 C 
ATOM     22  C   UNL     1       6.188   6.418  16.589  0.00  0.00    +0.000 C 
ATOM     23  C   UNL     1       6.805   5.136  16.003  0.00  0.00    +0.000 C 
ATOM     24  C   UNL     1       7.604   4.572  17.186  0.00  0.00    +0.000 C 
ATOM     25  C   UNL     1       7.277   5.553  18.329  0.00  0.00    +0.000 C 
ATOM     26  C   UNL     1       7.272   6.879  17.561  0.00  0.00    +0.000 C 
ENDBRANCH  19  20
ENDBRANCH   2  19
TORSDOF 7
ENDMDL
MODEL 5
REMARK VINA RESULT:      -7.1      0.944      1.065
REMARK  Name = 
REMARK  9 active torsions:
REMARK  status: ('A' for Active; 'I' for Inactive)
REMARK    1  A    between atoms: C_1  and  C_2
REMARK    2  A    between atoms: C_2  and  N_3
REMARK    3  A    between atoms: N_3  and  C_4
REMARK    4  A    between atoms: C_4  and  C_5
REMARK    5  A    between atoms: N_7  and  C_8
REMARK    6  A    between atoms: C_13  and  O_14
REMARK    7  A    between atoms: O_14  and  C_15
REMARK    8  A    between atoms: C_16  and  C_18
REMARK    9  A    between atoms: C_18  and  C_19
REMARK                            x       y       z     vdW  Elec       q    Type
REMARK                         _______ _______ _______ _____ _____    ______ ____
ROOT
ATOM      1  N   UNL     1       2.937   3.420  19.720  0.00  0.00    +0.000 N 
ATOM      2  C   UNL     1       3.759   2.859  18.748  0.00  0.00    +0.000 C 
ATOM      3  O   UNL     1       3.543   1.730  18.303  0.00  0.00    +0.000 OA
ENDROOT
BRANCH   1   5
ATOM      4  C   UNL     1       1.456   2.621  21.580  0.00  0.00    +0.000 C 
ATOM      5  C   UNL     1       1.717   2.682  20.083  0.00  0.00    +0.000 C 
ENDBRANCH   1   5
BRANCH   1   6
ATOM      6  C   UNL     1       3.120   4.762  20.298  0.00  0.00    +0.000 C 
BRANCH   6   7
ATOM      7  C   UNL     1       2.339   5.915  19.648  0.00  0.00    +0.000 C 
ATOM      8  O   UNL     1       1.861   5.792  18.524  0.00  0.00    +0.000 OA
ATOM      9  N   UNL     1       2.197   7.035  20.452  0.00  0.00    +0.000 N 
ATOM     10  H   UNL     1       3.004   7.173  21.050  0.00  0.00    +0.000 HD
BRANCH   9  11
ATOM     11  C   UNL     1       1.614   8.212  19.933  0.00  0.00    +0.000 A 
ATOM     12  C   UNL     1       2.062   8.619  18.667  0.00  0.00    +0.000 A 
ATOM     13  C   UNL     1       1.490   9.723  18.036  0.00  0.00    +0.000 A 
ATOM     14  C   UNL     1       0.496  10.454  18.680  0.00  0.00    +0.000 A 
ATOM     15  C   UNL     1       0.067  10.069  19.953  0.00  0.00    +0.000 A 
ATOM     16  C   UNL     1       0.623   8.956  20.595  0.00  0.00    +0.000 A 
BRANCH  16  17
ATOM     17  O   UNL     1       0.095   8.729  21.839  0.00  0.00    +0.000 OA
ATOM     18  C   UNL     1      -0.117   9.871  22.654  0.00  0.00    +0.000 C 
ENDBRANCH  16  17
ENDBRANCH   9  11
ENDBRANCH   6   7
ENDBRANCH   1   6
BRANCH   2  19
ATOM     19  C   UNL     1       4.964   3.638  18.235  0.00  0.00    +0.000 C 
BRANCH  19  20
ATOM     20  C   UNL     1       4.636   4.541  17.041  0.00  0.00    +0.000 C 
ATOM     21  C   UNL     1       5.177   4.045  15.676  0.00  0.00    +0.000 C 
ATOM     22  C   UNL     1       5.950   5.263  15.136  0.00  0.00    +0.000 C 
ATOM     23  C   UNL     1       7.254   5.405  15.939  0.00  0.00    +0.000 C 
ATOM     24  C   UNL     1       6.765   5.952  17.288  0.00  0.00    +0.000 C 
ATOM     25  C   UNL     1       5.233   5.973  17.122  0.00  0.00    +0.000 C 
ATOM     26  C   UNL     1       5.119   6.431  15.664  0.00  0.00    +0.000 C 
ENDBRANCH  19  20
ENDBRANCH   2  19
TORSDOF 7
ENDMDL
MODEL 6
REMARK VINA RESULT:      -7.0      1.238      2.375
REMARK  Name = 
REMARK  9 active torsions:
REMARK  status: ('A' for Active; 'I' for Inactive)
REMARK    1  A    between atoms: C_1  and  C_2
REMARK    2  A    between atoms: C_2  and  N_3
REMARK    3  A    between atoms: N_3  and  C_4
REMARK    4  A    between atoms: C_4  and  C_5
REMARK    5  A    between atoms: N_7  and  C_8
REMARK    6  A    between atoms: C_13  and  O_14
REMARK    7  A    between atoms: O_14  and  C_15
REMARK    8  A    between atoms: C_16  and  C_18
REMARK    9  A    between atoms: C_18  and  C_19
REMARK                            x       y       z     vdW  Elec       q    Type
REMARK                         _______ _______ _______ _____ _____    ______ ____
ROOT
ATOM      1  N   UNL     1       2.553   3.408  19.533  0.00  0.00    +0.000 N 
ATOM      2  C   UNL     1       2.752   3.264  18.164  0.00  0.00    +0.000 C 
ATOM      3  O   UNL     1       2.405   2.239  17.573  0.00  0.00    +0.000 OA
ENDROOT
BRANCH   1   5
ATOM      4  C   UNL     1       1.764   2.500  21.733  0.00  0.00    +0.000 C 
ATOM      5  C   UNL     1       1.778   2.363  20.219  0.00  0.00    +0.000 C 
ENDBRANCH   1   5
BRANCH   1   6
ATOM      6  C   UNL     1       2.929   4.600  20.312  0.00  0.00    +0.000 C 
BRANCH   6   7
ATOM      7  C   UNL     1       1.890   5.730  20.407  0.00  0.00    +0.000 C 
ATOM      8  O   UNL     1       0.691   5.474  20.445  0.00  0.00    +0.000 OA
ATOM      9  N   UNL     1       2.435   7.001  20.493  0.00  0.00    +0.000 N 
ATOM     10  H   UNL     1       3.298   7.077  19.966  0.00  0.00    +0.000 HD
BRANCH   9  11
ATOM     11  C   UNL     1       1.595   8.136  20.455  0.00  0.00    +0.000 A 
ATOM     12  C   UNL     1       1.142   8.613  21.694  0.00  0.00    +0.000 A 
ATOM     13  C   UNL     1       0.374   9.774  21.767  0.00  0.00    +0.000 A 
ATOM     14  C   UNL     1       0.016  10.445  20.601  0.00  0.00    +0.000 A 
ATOM     15  C   UNL     1       0.440   9.956  19.362  0.00  0.00    +0.000 A 
ATOM     16  C   UNL     1       1.222   8.799  19.273  0.00  0.00    +0.000 A 
BRANCH  16  17
ATOM     17  O   UNL     1       1.539   8.458  17.985  0.00  0.00    +0.000 OA
ATOM     18  C   UNL     1       2.913   8.511  17.636  0.00  0.00    +0.000 C 
ENDBRANCH  16  17
ENDBRANCH   9  11
ENDBRANCH   6   7
ENDBRANCH   1   6
BRANCH   2  19
ATOM     19  C   UNL     1       3.431   4.378  17.376  0.00  0.00    +0.000 C 
BRANCH  19  20
ATOM     20  C   UNL     1       4.887   4.063  17.017  0.00  0.00    +0.000 C 
ATOM     21  C   UNL     1       5.932   4.494  18.077  0.00  0.00    +0.000 C 
ATOM     22  C   UNL     1       6.937   5.333  17.266  0.00  0.00    +0.000 C 
ATOM     23  C   UNL     1       6.282   6.683  16.926  0.00  0.00    +0.000 C 
ATOM     24  C   UNL     1       5.273   6.306  15.832  0.00  0.00    +0.000 C 
ATOM     25  C   UNL     1       5.413   4.774  15.740  0.00  0.00    +0.000 C 
ATOM     26  C   UNL     1       6.928   4.623  15.913  0.00  0.00    +0.000 C 
ENDBRANCH  19  20
ENDBRANCH   2  19
TORSDOF 7
ENDMDL
MODEL 7
REMARK VINA RESULT:      -6.9      3.451      7.238
REMARK  Name = 
REMARK  9 active torsions:
REMARK  status: ('A' for Active; 'I' for Inactive)
REMARK    1  A    between atoms: C_1  and  C_2
REMARK    2  A    between atoms: C_2  and  N_3
REMARK    3  A    between atoms: N_3  and  C_4
REMARK    4  A    between atoms: C_4  and  C_5
REMARK    5  A    between atoms: N_7  and  C_8
REMARK    6  A    between atoms: C_13  and  O_14
REMARK    7  A    between atoms: O_14  and  C_15
REMARK    8  A    between atoms: C_16  and  C_18
REMARK    9  A    between atoms: C_18  and  C_19
REMARK                            x       y       z     vdW  Elec       q    Type
REMARK                         _______ _______ _______ _____ _____    ______ ____
ROOT
ATOM      1  N   UNL     1       5.830   5.653  18.159  0.00  0.00    +0.000 N 
ATOM      2  C   UNL     1       5.409   5.168  19.393  0.00  0.00    +0.000 C 
ATOM      3  O   UNL     1       6.212   4.703  20.204  0.00  0.00    +0.000 OA
ENDROOT
BRANCH   1   5
ATOM      4  C   UNL     1       7.873   7.108  18.182  0.00  0.00    +0.000 C 
ATOM      5  C   UNL     1       7.280   5.732  17.922  0.00  0.00    +0.000 C 
ENDBRANCH   1   5
BRANCH   1   6
ATOM      6  C   UNL     1       4.940   6.230  17.138  0.00  0.00    +0.000 C 
BRANCH   6   7
ATOM      7  C   UNL     1       5.315   5.989  15.667  0.00  0.00    +0.000 C 
ATOM      8  O   UNL     1       5.244   6.899  14.846  0.00  0.00    +0.000 OA
ATOM      9  N   UNL     1       5.768   4.708  15.395  0.00  0.00    +0.000 N 
ATOM     10  H   UNL     1       5.309   4.016  15.975  0.00  0.00    +0.000 HD
BRANCH   9  11
ATOM     11  C   UNL     1       6.023   4.315  14.063  0.00  0.00    +0.000 A 
ATOM     12  C   UNL     1       5.064   3.482  13.467  0.00  0.00    +0.000 A 
ATOM     13  C   UNL     1       5.187   3.105  12.130  0.00  0.00    +0.000 A 
ATOM     14  C   UNL     1       6.288   3.522  11.389  0.00  0.00    +0.000 A 
ATOM     15  C   UNL     1       7.262   4.328  11.987  0.00  0.00    +0.000 A 
ATOM     16  C   UNL     1       7.147   4.724  13.324  0.00  0.00    +0.000 A 
BRANCH  16  17
ATOM     17  O   UNL     1       8.192   5.500  13.750  0.00  0.00    +0.000 OA
ATOM     18  C   UNL     1       9.007   6.074  12.739  0.00  0.00    +0.000 C 
ENDBRANCH  16  17
ENDBRANCH   9  11
ENDBRANCH   6   7
ENDBRANCH   1   6
BRANCH   2  19
ATOM     19  C   UNL     1       3.927   5.187  19.747  0.00  0.00    +0.000 C 
BRANCH  19  20
ATOM     20  C   UNL     1       3.289   3.793  19.751  0.00  0.00    +0.000 C 
ATOM     21  C   UNL     1       3.990   2.749  18.846  0.00  0.00    +0.000 C 
ATOM     22  C   UNL     1       2.842   2.202  17.978  0.00  0.00    +0.000 C 
ATOM     23  C   UNL     1       2.456   3.278  16.948  0.00  0.00    +0.000 C 
ATOM     24  C   UNL     1       1.705   4.311  17.799  0.00  0.00    +0.000 C 
ATOM     25  C   UNL     1       1.827   3.742  19.227  0.00  0.00    +0.000 C 
ATOM     26  C   UNL     1       1.659   2.246  18.944  0.00  0.00    +0.000 C 
ENDBRANCH  19  20
ENDBRANCH   2  19
TORSDOF 7
ENDMDL
MODEL 8
REMARK VINA RESULT:      -6.7      1.398      1.770
REMARK  Name = 
REMARK  9 active torsions:
REMARK  status: ('A' for Active; 'I' for Inactive)
REMARK    1  A    between atoms: C_1  and  C_2
REMARK    2  A    between atoms: C_2  and  N_3
REMARK    3  A    between atoms: N_3  and  C_4
REMARK    4  A    between atoms: C_4  and  C_5
REMARK    5  A    between atoms: N_7  and  C_8
REMARK    6  A    between atoms: C_13  and  O_14
REMARK    7  A    between atoms: O_14  and  C_15
REMARK    8  A    between atoms: C_16  and  C_18
REMARK    9  A    between atoms: C_18  and  C_19
REMARK                            x       y       z     vdW  Elec       q    Type
REMARK                         _______ _______ _______ _____ _____    ______ ____
ROOT
ATOM      1  N   UNL     1       2.696   4.356  19.189  0.00  0.00    +0.000 N 
ATOM      2  C   UNL     1       3.921   3.889  18.725  0.00  0.00    +0.000 C 
ATOM      3  O   UNL     1       3.985   3.035  17.838  0.00  0.00    +0.000 OA
ENDROOT
BRANCH   1   5
ATOM      4  C   UNL     1       0.776   2.743  19.147  0.00  0.00    +0.000 C 
ATOM      5  C   UNL     1       1.488   3.908  18.479  0.00  0.00    +0.000 C 
ENDBRANCH   1   5
BRANCH   1   6
ATOM      6  C   UNL     1       2.531   5.378  20.237  0.00  0.00    +0.000 C 
BRANCH   6   7
ATOM      7  C   UNL     1       2.242   6.814  19.772  0.00  0.00    +0.000 C 
ATOM      8  O   UNL     1       2.654   7.216  18.688  0.00  0.00    +0.000 OA
ATOM      9  N   UNL     1       1.459   7.551  20.648  0.00  0.00    +0.000 N 
ATOM     10  H   UNL     1       1.637   7.300  21.613  0.00  0.00    +0.000 HD
BRANCH   9  11
ATOM     11  C   UNL     1       1.226   8.922  20.406  0.00  0.00    +0.000 A 
ATOM     12  C   UNL     1       1.160   9.313  19.060  0.00  0.00    +0.000 A 
ATOM     13  C   UNL     1       0.855  10.630  18.720  0.00  0.00    +0.000 A 
ATOM     14  C   UNL     1       0.653  11.577  19.720  0.00  0.00    +0.000 A 
ATOM     15  C   UNL     1       0.746  11.199  21.062  0.00  0.00    +0.000 A 
ATOM     16  C   UNL     1       1.040   9.879  21.420  0.00  0.00    +0.000 A 
BRANCH  16  17
ATOM     17  O   UNL     1       1.103   9.687  22.775  0.00  0.00    +0.000 OA
ATOM     18  C   UNL     1      -0.134   9.520  23.449  0.00  0.00    +0.000 C 
ENDBRANCH  16  17
ENDBRANCH   9  11
ENDBRANCH   6   7
ENDBRANCH   1   6
BRANCH   2  19
ATOM     19  C   UNL     1       5.213   4.421  19.334  0.00  0.00    +0.000 C 
BRANCH  19  20
ATOM     20  C   UNL     1       5.747   5.670  18.624  0.00  0.00    +0.000 C 
ATOM     21  C   UNL     1       5.192   5.899  17.195  0.00  0.00    +0.000 C 
ATOM     22  C   UNL     1       6.464   6.064  16.342  0.00  0.00    +0.000 C 
ATOM     23  C   UNL     1       7.128   4.685  16.187  0.00  0.00    +0.000 C 
ATOM     24  C   UNL     1       7.742   4.446  17.574  0.00  0.00    +0.000 C 
ATOM     25  C   UNL     1       7.280   5.677  18.378  0.00  0.00    +0.000 C 
ATOM     26  C   UNL     1       7.412   6.769  17.311  0.00  0.00    +0.000 C 
ENDBRANCH  19  20
ENDBRANCH   2  19
TORSDOF 7
ENDMDL
MODEL 9
REMARK VINA RESULT:      -6.5      3.282      7.609
REMARK  Name = 
REMARK  9 active torsions:
REMARK  status: ('A' for Active; 'I' for Inactive)
REMARK    1  A    between atoms: C_1  and  C_2
REMARK    2  A    between atoms: C_2  and  N_3
REMARK    3  A    between atoms: N_3  and  C_4
REMARK    4  A    between atoms: C_4  and  C_5
REMARK    5  A    between atoms: N_7  and  C_8
REMARK    6  A    between atoms: C_13  and  O_14
REMARK    7  A    between atoms: O_14  and  C_15
REMARK    8  A    between atoms: C_16  and  C_18
REMARK    9  A    between atoms: C_18  and  C_19
REMARK                            x       y       z     vdW  Elec       q    Type
REMARK                         _______ _______ _______ _____ _____    ______ ____
ROOT
ATOM      1  N   UNL     1       5.528   6.427  17.692  0.00  0.00    +0.000 N 
ATOM      2  C   UNL     1       4.137   6.392  17.705  0.00  0.00    +0.000 C 
ATOM      3  O   UNL     1       3.472   7.428  17.639  0.00  0.00    +0.000 OA
ENDROOT
BRANCH   1   5
ATOM      4  C   UNL     1       7.677   7.719  17.652  0.00  0.00    +0.000 C 
ATOM      5  C   UNL     1       6.171   7.726  17.441  0.00  0.00    +0.000 C 
ENDBRANCH   1   5
BRANCH   1   6
ATOM      6  C   UNL     1       6.395   5.239  17.758  0.00  0.00    +0.000 C 
BRANCH   6   7
ATOM      7  C   UNL     1       6.808   4.599  16.423  0.00  0.00    +0.000 C 
ATOM      8  O   UNL     1       7.841   3.941  16.337  0.00  0.00    +0.000 OA
ATOM      9  N   UNL     1       5.904   4.796  15.391  0.00  0.00    +0.000 N 
ATOM     10  H   UNL     1       5.443   5.696  15.461  0.00  0.00    +0.000 HD
BRANCH   9  11
ATOM     11  C   UNL     1       6.221   4.374  14.081  0.00  0.00    +0.000 A 
ATOM     12  C   UNL     1       5.353   3.432  13.506  0.00  0.00    +0.000 A 
ATOM     13  C   UNL     1       5.537   3.013  12.189  0.00  0.00    +0.000 A 
ATOM     14  C   UNL     1       6.610   3.499  11.449  0.00  0.00    +0.000 A 
ATOM     15  C   UNL     1       7.494   4.415  12.027  0.00  0.00    +0.000 A 
ATOM     16  C   UNL     1       7.317   4.854  13.344  0.00  0.00    +0.000 A 
BRANCH  16  17
ATOM     17  O   UNL     1       8.279   5.740  13.752  0.00  0.00    +0.000 OA
ATOM     18  C   UNL     1       9.233   6.131  12.778  0.00  0.00    +0.000 C 
ENDBRANCH  16  17
ENDBRANCH   9  11
ENDBRANCH   6   7
ENDBRANCH   1   6
BRANCH   2  19
ATOM     19  C   UNL     1       3.415   5.056  17.826  0.00  0.00    +0.000 C 
BRANCH  19  20
ATOM     20  C   UNL     1       2.284   5.072  18.860  0.00  0.00    +0.000 C 
ATOM     21  C   UNL     1       2.742   5.229  20.332  0.00  0.00    +0.000 C 
ATOM     22  C   UNL     1       2.058   4.047  21.045  0.00  0.00    +0.000 C 
ATOM     23  C   UNL     1       2.783   2.751  20.643  0.00  0.00    +0.000 C 
ATOM     24  C   UNL     1       2.308   2.529  19.200  0.00  0.00    +0.000 C 
ATOM     25  C   UNL     1       1.438   3.771  18.924  0.00  0.00    +0.000 C 
ATOM     26  C   UNL     1       0.741   3.928  20.280  0.00  0.00    +0.000 C 
ENDBRANCH  19  20
ENDBRANCH   2  19
TORSDOF 7
ENDMDL
