MODEL 1
REMARK VINA RESULT:      -8.2      0.000      0.000
REMARK  Name = 
REMARK  14 active torsions:
REMARK  status: ('A' for Active; 'I' for Inactive)
REMARK    1  A    between atoms: C_1  and  O_2
REMARK    2  A    between atoms: O_2  and  C_3
REMARK    3  A    between atoms: C_3  and  C_4
REMARK    4  A    between atoms: C_4  and  O_5
REMARK    5  A    between atoms: O_5  and  C_6
REMARK    6  A    between atoms: C_8  and  C_9
REMARK    7  A    between atoms: C_12  and  C_13
REMARK    8  A    between atoms: C_15  and  C_16
REMARK    9  A    between atoms: C_16  and  C_17
REMARK   10  A    between atoms: C_16  and  C_18
REMARK   11  A    between atoms: N_20  and  C_21
REMARK   12  A    between atoms: C_21  and  C_22
REMARK   13  A    between atoms: C_25  and  O_26
REMARK   14  A    between atoms: O_26  and  C_27
REMARK                            x       y       z     vdW  Elec       q    Type
REMARK                         _______ _______ _______ _____ _____    ______ ____
ROOT
ATOM      1  C   UNL     1       1.522   8.157  20.160  0.00  0.00    +0.000 A 
ATOM      2  C   UNL     1       1.575   6.942  20.847  0.00  0.00    +0.000 A 
ATOM      3  C   UNL     1       2.134   5.801  20.265  0.00  0.00    +0.000 A 
ATOM      4  C   UNL     1       2.231   4.535  21.073  0.00  0.00    +0.000 C 
ATOM      5  C   UNL     1       2.675   5.885  18.972  0.00  0.00    +0.000 A 
ATOM      6  C   UNL     1       2.759   7.151  18.337  0.00  0.00    +0.000 A 
ATOM      7  C   UNL     1       2.121   8.277  18.899  0.00  0.00    +0.000 A 
ATOM      8  C   UNL     1       2.074   9.620  18.199  0.00  0.00    +0.000 C 
ATOM      9  C   UNL     1       3.572   7.294  17.084  0.00  0.00    +0.000 C 
ATOM     10  C   UNL     1       4.625   6.197  16.930  0.00  0.00    +0.000 C 
ATOM     11  C   UNL     1       3.957   4.831  17.028  0.00  0.00    +0.000 C 
ATOM     12  C   UNL     1       3.194   4.621  18.319  0.00  0.00    +0.000 C 
ENDROOT
BRANCH  10  13
ATOM     13  C   UNL     1       5.942   6.384  17.766  0.00  0.00    +0.000 C 
ATOM     14  C   UNL     1       6.848   7.564  17.385  0.00  0.00    +0.000 C 
BRANCH  13  15
ATOM     15  C   UNL     1       6.840   5.127  17.827  0.00  0.00    +0.000 C 
ATOM     16  O   UNL     1       7.058   4.508  18.867  0.00  0.00    +0.000 OA
ATOM     17  N   UNL     1       7.373   4.633  16.672  0.00  0.00    +0.000 N 
ATOM     18  H   UNL     1       7.971   3.825  16.817  0.00  0.00    +0.000 HD
BRANCH  17  19
ATOM     19  C   UNL     1       7.446   5.327  15.427  0.00  0.00    +0.000 C 
BRANCH  19  20
ATOM     20  C   UNL     1       6.896   4.570  14.274  0.00  0.00    +0.000 A 
ATOM     21  C   UNL     1       5.704   3.854  14.433  0.00  0.00    +0.000 A 
ATOM     22  C   UNL     1       5.104   3.265  13.330  0.00  0.00    +0.000 A 
ATOM     23  C   UNL     1       5.694   3.386  12.071  0.00  0.00    +0.000 A 
ATOM     24  C   UNL     1       6.907   4.060  11.924  0.00  0.00    +0.000 A 
ATOM     25  C   UNL     1       7.516   4.647  13.026  0.00  0.00    +0.000 A 
BRANCH  23  26
ATOM     26  O   UNL     1       5.010   2.783  11.051  0.00  0.00    +0.000 OA
ATOM     27  C   UNL     1       3.649   3.179  10.926  0.00  0.00    +0.000 C 
ENDBRANCH  23  26
ENDBRANCH  19  20
ENDBRANCH  17  19
ENDBRANCH  13  15
ENDBRANCH  10  13
BRANCH   1  28
ATOM     28  O   UNL     1       0.943   9.295  20.654  0.00  0.00    +0.000 OA
BRANCH  28  29
ATOM     29  C   UNL     1      -0.127   9.115  21.575  0.00  0.00    +0.000 C 
BRANCH  29  30
ATOM     30  C   UNL     1       0.343   9.549  22.951  0.00  0.00    +0.000 C 
BRANCH  30  32
ATOM     31  C   UNL     1      -1.157  11.215  22.252  0.00  0.00    +0.000 C 
ATOM     32  O   UNL     1      -0.237  10.814  23.255  0.00  0.00    +0.000 OA
ENDBRANCH  30  32
ENDBRANCH  29  30
ENDBRANCH  28  29
ENDBRANCH   1  28
TORSDOF 9
ENDMDL
MODEL 2
REMARK VINA RESULT:      -8.0      2.888      7.877
REMARK  Name = 
REMARK  14 active torsions:
REMARK  status: ('A' for Active; 'I' for Inactive)
REMARK    1  A    between atoms: C_1  and  O_2
REMARK    2  A    between atoms: O_2  and  C_3
REMARK    3  A    between atoms: C_3  and  C_4
REMARK    4  A    between atoms: C_4  and  O_5
REMARK    5  A    between atoms: O_5  and  C_6
REMARK    6  A    between atoms: C_8  and  C_9
REMARK    7  A    between atoms: C_12  and  C_13
REMARK    8  A    between atoms: C_15  and  C_16
REMARK    9  A    between atoms: C_16  and  C_17
REMARK   10  A    between atoms: C_16  and  C_18
REMARK   11  A    between atoms: N_20  and  C_21
REMARK   12  A    between atoms: C_21  and  C_22
REMARK   13  A    between atoms: C_25  and  O_26
REMARK   14  A    between atoms: O_26  and  C_27
REMARK                            x       y       z     vdW  Elec       q    Type
REMARK                         _______ _______ _______ _____ _____    ______ ____
ROOT
ATOM      1  C   UNL     1       7.411   6.788  17.980  0.00  0.00    +0.000 A 
ATOM      2  C   UNL     1       6.744   6.966  16.765  0.00  0.00    +0.000 A 
ATOM      3  C   UNL     1       5.806   6.036  16.308  0.00  0.00    +0.000 A 
ATOM      4  C   UNL     1       5.063   6.310  15.028  0.00  0.00    +0.000 C 
ATOM      5  C   UNL     1       5.511   4.914  17.098  0.00  0.00    +0.000 A 
ATOM      6  C   UNL     1       6.073   4.813  18.396  0.00  0.00    +0.000 A 
ATOM      7  C   UNL     1       7.077   5.713  18.813  0.00  0.00    +0.000 A 
ATOM      8  C   UNL     1       7.798   5.571  20.138  0.00  0.00    +0.000 C 
ATOM      9  C   UNL     1       5.559   3.768  19.343  0.00  0.00    +0.000 C 
ATOM     10  C   UNL     1       4.153   3.285  18.988  0.00  0.00    +0.000 C 
ATOM     11  C   UNL     1       4.125   2.811  17.540  0.00  0.00    +0.000 C 
ATOM     12  C   UNL     1       4.561   3.869  16.549  0.00  0.00    +0.000 C 
ENDROOT
BRANCH  10  13
ATOM     13  C   UNL     1       2.971   4.221  19.431  0.00  0.00    +0.000 C 
ATOM     14  C   UNL     1       2.163   3.788  20.663  0.00  0.00    +0.000 C 
BRANCH  13  15
ATOM     15  C   UNL     1       1.952   4.532  18.311  0.00  0.00    +0.000 C 
ATOM     16  O   UNL     1       1.202   3.684  17.831  0.00  0.00    +0.000 OA
ATOM     17  N   UNL     1       1.822   5.816  17.867  0.00  0.00    +0.000 N 
ATOM     18  H   UNL     1       1.151   5.916  17.112  0.00  0.00    +0.000 HD
BRANCH  17  19
ATOM     19  C   UNL     1       2.746   6.877  18.109  0.00  0.00    +0.000 C 
BRANCH  19  20
ATOM     20  C   UNL     1       2.149   8.069  18.762  0.00  0.00    +0.000 A 
ATOM     21  C   UNL     1       1.920   9.222  18.001  0.00  0.00    +0.000 A 
ATOM     22  C   UNL     1       1.232  10.287  18.560  0.00  0.00    +0.000 A 
ATOM     23  C   UNL     1       0.776  10.207  19.876  0.00  0.00    +0.000 A 
ATOM     24  C   UNL     1       1.048   9.076  20.648  0.00  0.00    +0.000 A 
ATOM     25  C   UNL     1       1.742   8.007  20.095  0.00  0.00    +0.000 A 
BRANCH  23  26
ATOM     26  O   UNL     1       0.095  11.307  20.321  0.00  0.00    +0.000 OA
ATOM     27  C   UNL     1      -1.238  11.422  19.834  0.00  0.00    +0.000 C 
ENDBRANCH  23  26
ENDBRANCH  19  20
ENDBRANCH  17  19
ENDBRANCH  13  15
ENDBRANCH  10  13
BRANCH   1  28
ATOM     28  O   UNL     1       8.376   7.633  18.459  0.00  0.00    +0.000 OA
BRANCH  28  29
ATOM     29  C   UNL     1       8.301   8.990  18.033  0.00  0.00    +0.000 C 
BRANCH  29  30
ATOM     30  C   UNL     1       9.072   9.848  19.019  0.00  0.00    +0.000 C 
BRANCH  30  32
ATOM     31  C   UNL     1      10.332  11.549  18.003  0.00  0.00    +0.000 C 
ATOM     32  O   UNL     1       9.073  11.194  18.551  0.00  0.00    +0.000 OA
ENDBRANCH  30  32
ENDBRANCH  29  30
ENDBRANCH  28  29
ENDBRANCH   1  28
TORSDOF 9
ENDMDL
MODEL 3
REMARK VINA RESULT:      -8.0      0.614      1.152
REMARK  Name = 
REMARK  14 active torsions:
REMARK  status: ('A' for Active; 'I' for Inactive)
REMARK    1  A    between atoms: C_1  and  O_2
REMARK    2  A    between atoms: O_2  and  C_3
REMARK    3  A    between atoms: C_3  and  C_4
REMARK    4  A    between atoms: C_4  and  O_5
REMARK    5  A    between atoms: O_5  and  C_6
REMARK    6  A    between atoms: C_8  and  C_9
REMARK    7  A    between atoms: C_12  and  C_13
REMARK    8  A    between atoms: C_15  and  C_16
REMARK    9  A    between atoms: C_16  and  C_17
REMARK   10  A    between atoms: C_16  and  C_18
REMARK   11  A    between atoms: N_20  and  C_21
REMARK   12  A    between atoms: C_21  and  C_22
REMARK   13  A    between atoms: C_25  and  O_26
REMARK   14  A    between atoms: O_26  and  C_27
REMARK                            x       y       z     vdW  Elec       q    Type
REMARK                         _______ _______ _______ _____ _____    ______ ____
ROOT
ATOM      1  C   UNL     1       1.493   8.316  20.039  0.00  0.00    +0.000 A 
ATOM      2  C   UNL     1       1.524   7.132  20.780  0.00  0.00    +0.000 A 
ATOM      3  C   UNL     1       2.079   5.961  20.256  0.00  0.00    +0.000 A 
ATOM      4  C   UNL     1       2.152   4.732  21.120  0.00  0.00    +0.000 C 
ATOM      5  C   UNL     1       2.637   5.984  18.968  0.00  0.00    +0.000 A 
ATOM      6  C   UNL     1       2.743   7.219  18.280  0.00  0.00    +0.000 A 
ATOM      7  C   UNL     1       2.110   8.375  18.783  0.00  0.00    +0.000 A 
ATOM      8  C   UNL     1       2.085   9.686  18.024  0.00  0.00    +0.000 C 
ATOM      9  C   UNL     1       3.574   7.299  17.032  0.00  0.00    +0.000 C 
ATOM     10  C   UNL     1       4.617   6.186  16.941  0.00  0.00    +0.000 C 
ATOM     11  C   UNL     1       3.934   4.832  17.090  0.00  0.00    +0.000 C 
ATOM     12  C   UNL     1       3.152   4.687  18.378  0.00  0.00    +0.000 C 
ENDROOT
BRANCH  10  13
ATOM     13  C   UNL     1       5.925   6.397  17.786  0.00  0.00    +0.000 C 
ATOM     14  C   UNL     1       6.804   7.601  17.421  0.00  0.00    +0.000 C 
BRANCH  13  15
ATOM     15  C   UNL     1       6.853   5.161  17.840  0.00  0.00    +0.000 C 
ATOM     16  O   UNL     1       7.077   4.535  18.874  0.00  0.00    +0.000 OA
ATOM     17  N   UNL     1       7.407   4.693  16.684  0.00  0.00    +0.000 N 
ATOM     18  H   UNL     1       8.024   3.899  16.824  0.00  0.00    +0.000 HD
BRANCH  17  19
ATOM     19  C   UNL     1       7.473   5.404  15.447  0.00  0.00    +0.000 C 
BRANCH  19  20
ATOM     20  C   UNL     1       6.846   4.696  14.303  0.00  0.00    +0.000 A 
ATOM     21  C   UNL     1       7.503   4.680  13.066  0.00  0.00    +0.000 A 
ATOM     22  C   UNL     1       7.002   3.903  12.033  0.00  0.00    +0.000 A 
ATOM     23  C   UNL     1       5.847   3.145  12.230  0.00  0.00    +0.000 A 
ATOM     24  C   UNL     1       5.168   3.201  13.448  0.00  0.00    +0.000 A 
ATOM     25  C   UNL     1       5.661   3.982  14.485  0.00  0.00    +0.000 A 
BRANCH  23  26
ATOM     26  O   UNL     1       5.451   2.403  11.151  0.00  0.00    +0.000 OA
ATOM     27  C   UNL     1       6.056   1.118  11.055  0.00  0.00    +0.000 C 
ENDBRANCH  23  26
ENDBRANCH  19  20
ENDBRANCH  17  19
ENDBRANCH  13  15
ENDBRANCH  10  13
BRANCH   1  28
ATOM     28  O   UNL     1       0.919   9.481  20.475  0.00  0.00    +0.000 OA
BRANCH  28  29
ATOM     29  C   UNL     1       0.434   9.489  21.813  0.00  0.00    +0.000 C 
BRANCH  29  30
ATOM     30  C   UNL     1      -0.681  10.514  21.916  0.00  0.00    +0.000 C 
BRANCH  30  32
ATOM     31  C   UNL     1      -1.287  12.507  22.999  0.00  0.00    +0.000 C 
ATOM     32  O   UNL     1      -0.233  11.598  22.725  0.00  0.00    +0.000 OA
ENDBRANCH  30  32
ENDBRANCH  29  30
ENDBRANCH  28  29
ENDBRANCH   1  28
TORSDOF 9
ENDMDL
MODEL 4
REMARK VINA RESULT:      -7.9      3.000      7.873
REMARK  Name = 
REMARK  14 active torsions:
REMARK  status: ('A' for Active; 'I' for Inactive)
REMARK    1  A    between atoms: C_1  and  O_2
REMARK    2  A    between atoms: O_2  and  C_3
REMARK    3  A    between atoms: C_3  and  C_4
REMARK    4  A    between atoms: C_4  and  O_5
REMARK    5  A    between atoms: O_5  and  C_6
REMARK    6  A    between atoms: C_8  and  C_9
REMARK    7  A    between atoms: C_12  and  C_13
REMARK    8  A    between atoms: C_15  and  C_16
REMARK    9  A    between atoms: C_16  and  C_17
REMARK   10  A    between atoms: C_16  and  C_18
REMARK   11  A    between atoms: N_20  and  C_21
REMARK   12  A    between atoms: C_21  and  C_22
REMARK   13  A    between atoms: C_25  and  O_26
REMARK   14  A    between atoms: O_26  and  C_27
REMARK                            x       y       z     vdW  Elec       q    Type
REMARK                         _______ _______ _______ _____ _____    ______ ____
ROOT
ATOM      1  C   UNL     1       7.414   6.942  18.000  0.00  0.00    +0.000 A 
ATOM      2  C   UNL     1       6.707   7.175  16.818  0.00  0.00    +0.000 A 
ATOM      3  C   UNL     1       5.768   6.257  16.339  0.00  0.00    +0.000 A 
ATOM      4  C   UNL     1       4.983   6.588  15.099  0.00  0.00    +0.000 C 
ATOM      5  C   UNL     1       5.514   5.089  17.075  0.00  0.00    +0.000 A 
ATOM      6  C   UNL     1       6.117   4.927  18.349  0.00  0.00    +0.000 A 
ATOM      7  C   UNL     1       7.120   5.818  18.783  0.00  0.00    +0.000 A 
ATOM      8  C   UNL     1       7.884   5.616  20.077  0.00  0.00    +0.000 C 
ATOM      9  C   UNL     1       5.646   3.825  19.253  0.00  0.00    +0.000 C 
ATOM     10  C   UNL     1       4.236   3.341  18.914  0.00  0.00    +0.000 C 
ATOM     11  C   UNL     1       4.171   2.945  17.444  0.00  0.00    +0.000 C 
ATOM     12  C   UNL     1       4.561   4.062  16.499  0.00  0.00    +0.000 C 
ENDROOT
BRANCH  10  13
ATOM     13  C   UNL     1       3.056   4.233  19.443  0.00  0.00    +0.000 C 
ATOM     14  C   UNL     1       2.314   3.739  20.693  0.00  0.00    +0.000 C 
BRANCH  13  15
ATOM     15  C   UNL     1       1.981   4.561  18.381  0.00  0.00    +0.000 C 
ATOM     16  O   UNL     1       1.248   3.708  17.882  0.00  0.00    +0.000 OA
ATOM     17  N   UNL     1       1.781   5.859  18.014  0.00  0.00    +0.000 N 
ATOM     18  H   UNL     1       1.077   5.971  17.291  0.00  0.00    +0.000 HD
BRANCH  17  19
ATOM     19  C   UNL     1       2.671   6.944  18.280  0.00  0.00    +0.000 C 
BRANCH  19  20
ATOM     20  C   UNL     1       1.998   8.186  18.739  0.00  0.00    +0.000 A 
ATOM     21  C   UNL     1       1.539   8.265  20.060  0.00  0.00    +0.000 A 
ATOM     22  C   UNL     1       1.042   9.466  20.542  0.00  0.00    +0.000 A 
ATOM     23  C   UNL     1       0.999  10.586  19.710  0.00  0.00    +0.000 A 
ATOM     24  C   UNL     1       1.414  10.491  18.381  0.00  0.00    +0.000 A 
ATOM     25  C   UNL     1       1.906   9.289  17.889  0.00  0.00    +0.000 A 
BRANCH  23  26
ATOM     26  O   UNL     1       0.508  11.722  20.293  0.00  0.00    +0.000 OA
ATOM     27  C   UNL     1       1.486  12.712  20.592  0.00  0.00    +0.000 C 
ENDBRANCH  23  26
ENDBRANCH  19  20
ENDBRANCH  17  19
ENDBRANCH  13  15
ENDBRANCH  10  13
BRANCH   1  28
ATOM     28  O   UNL     1       8.382   7.774  18.495  0.00  0.00    +0.000 OA
BRANCH  28  29
ATOM     29  C   UNL     1       8.319   9.136  18.086  0.00  0.00    +0.000 C 
BRANCH  29  30
ATOM     30  C   UNL     1       9.150   9.968  19.046  0.00  0.00    +0.000 C 
BRANCH  30  32
ATOM     31  C   UNL     1       9.052  12.107  18.083  0.00  0.00    +0.000 C 
ATOM     32  O   UNL     1       9.854  10.958  18.302  0.00  0.00    +0.000 OA
ENDBRANCH  30  32
ENDBRANCH  29  30
ENDBRANCH  28  29
ENDBRANCH   1  28
TORSDOF 9
ENDMDL
MODEL 5
REMARK VINA RESULT:      -7.6      4.170      7.595
REMARK  Name = 
REMARK  14 active torsions:
REMARK  status: ('A' for Active; 'I' for Inactive)
REMARK    1  A    between atoms: C_1  and  O_2
REMARK    2  A    between atoms: O_2  and  C_3
REMARK    3  A    between atoms: C_3  and  C_4
REMARK    4  A    between atoms: C_4  and  O_5
REMARK    5  A    between atoms: O_5  and  C_6
REMARK    6  A    between atoms: C_8  and  C_9
REMARK    7  A    between atoms: C_12  and  C_13
REMARK    8  A    between atoms: C_15  and  C_16
REMARK    9  A    between atoms: C_16  and  C_17
REMARK   10  A    between atoms: C_16  and  C_18
REMARK   11  A    between atoms: N_20  and  C_21
REMARK   12  A    between atoms: C_21  and  C_22
REMARK   13  A    between atoms: C_25  and  O_26
REMARK   14  A    between atoms: O_26  and  C_27
REMARK                            x       y       z     vdW  Elec       q    Type
REMARK                         _______ _______ _______ _____ _____    ______ ____
ROOT
ATOM      1  C   UNL     1      -3.946  11.868  18.804  0.00  0.00    +0.000 A 
ATOM      2  C   UNL     1      -3.498  10.982  17.822  0.00  0.00    +0.000 A 
ATOM      3  C   UNL     1      -2.151  10.621  17.729  0.00  0.00    +0.000 A 
ATOM      4  C   UNL     1      -1.731   9.608  16.699  0.00  0.00    +0.000 C 
ATOM      5  C   UNL     1      -1.235  11.142  18.657  0.00  0.00    +0.000 A 
ATOM      6  C   UNL     1      -1.715  11.917  19.743  0.00  0.00    +0.000 A 
ATOM      7  C   UNL     1      -3.060  12.340  19.781  0.00  0.00    +0.000 A 
ATOM      8  C   UNL     1      -3.591  13.274  20.850  0.00  0.00    +0.000 C 
ATOM      9  C   UNL     1      -0.790  12.248  20.879  0.00  0.00    +0.000 C 
ATOM     10  C   UNL     1       0.391  11.283  20.982  0.00  0.00    +0.000 C 
ATOM     11  C   UNL     1       1.121  11.224  19.646  0.00  0.00    +0.000 C 
ATOM     12  C   UNL     1       0.234  10.813  18.490  0.00  0.00    +0.000 C 
ENDROOT
BRANCH  10  13
ATOM     13  C   UNL     1       0.095   9.903  21.669  0.00  0.00    +0.000 C 
ATOM     14  C   UNL     1      -0.932   9.897  22.811  0.00  0.00    +0.000 C 
BRANCH  13  15
ATOM     15  C   UNL     1       1.352   9.169  22.192  0.00  0.00    +0.000 C 
ATOM     16  O   UNL     1       1.889   9.440  23.264  0.00  0.00    +0.000 OA
ATOM     17  N   UNL     1       1.864   8.130  21.471  0.00  0.00    +0.000 N 
ATOM     18  H   UNL     1       2.705   7.733  21.878  0.00  0.00    +0.000 HD
BRANCH  17  19
ATOM     19  C   UNL     1       1.549   7.826  20.112  0.00  0.00    +0.000 C 
BRANCH  19  20
ATOM     20  C   UNL     1       2.248   6.630  19.578  0.00  0.00    +0.000 A 
ATOM     21  C   UNL     1       2.289   5.461  20.348  0.00  0.00    +0.000 A 
ATOM     22  C   UNL     1       2.809   4.298  19.803  0.00  0.00    +0.000 A 
ATOM     23  C   UNL     1       3.291   4.298  18.493  0.00  0.00    +0.000 A 
ATOM     24  C   UNL     1       3.292   5.476  17.744  0.00  0.00    +0.000 A 
ATOM     25  C   UNL     1       2.778   6.647  18.287  0.00  0.00    +0.000 A 
BRANCH  23  26
ATOM     26  O   UNL     1       3.764   3.094  18.050  0.00  0.00    +0.000 OA
ATOM     27  C   UNL     1       2.814   2.035  18.067  0.00  0.00    +0.000 C 
ENDBRANCH  23  26
ENDBRANCH  19  20
ENDBRANCH  17  19
ENDBRANCH  13  15
ENDBRANCH  10  13
BRANCH   1  28
ATOM     28  O   UNL     1      -5.240  12.302  18.916  0.00  0.00    +0.000 OA
BRANCH  28  29
ATOM     29  C   UNL     1      -6.103  12.016  17.821  0.00  0.00    +0.000 C 
BRANCH  29  30
ATOM     30  C   UNL     1      -6.697  13.320  17.321  0.00  0.00    +0.000 C 
BRANCH  30  32
ATOM     31  C   UNL     1      -6.677  15.559  18.030  0.00  0.00    +0.000 C 
ATOM     32  O   UNL     1      -6.848  14.207  18.425  0.00  0.00    +0.000 OA
ENDBRANCH  30  32
ENDBRANCH  29  30
ENDBRANCH  28  29
ENDBRANCH   1  28
TORSDOF 9
ENDMDL
MODEL 6
REMARK VINA RESULT:      -7.1      2.701      5.269
REMARK  Name = 
REMARK  14 active torsions:
REMARK  status: ('A' for Active; 'I' for Inactive)
REMARK    1  A    between atoms: C_1  and  O_2
REMARK    2  A    between atoms: O_2  and  C_3
REMARK    3  A    between atoms: C_3  and  C_4
REMARK    4  A    between atoms: C_4  and  O_5
REMARK    5  A    between atoms: O_5  and  C_6
REMARK    6  A    between atoms: C_8  and  C_9
REMARK    7  A    between atoms: C_12  and  C_13
REMARK    8  A    between atoms: C_15  and  C_16
REMARK    9  A    between atoms: C_16  and  C_17
REMARK   10  A    between atoms: C_16  and  C_18
REMARK   11  A    between atoms: N_20  and  C_21
REMARK   12  A    between atoms: C_21  and  C_22
REMARK   13  A    between atoms: C_25  and  O_26
REMARK   14  A    between atoms: O_26  and  C_27
REMARK                            x       y       z     vdW  Elec       q    Type
REMARK                         _______ _______ _______ _____ _____    ______ ____
ROOT
ATOM      1  C   UNL     1       1.859   7.354  20.089  0.00  0.00    +0.000 A 
ATOM      2  C   UNL     1       1.724   6.198  20.862  0.00  0.00    +0.000 A 
ATOM      3  C   UNL     1       2.130   4.950  20.381  0.00  0.00    +0.000 A 
ATOM      4  C   UNL     1       2.029   3.748  21.280  0.00  0.00    +0.000 C 
ATOM      5  C   UNL     1       2.708   4.862  19.105  0.00  0.00    +0.000 A 
ATOM      6  C   UNL     1       2.984   6.052  18.385  0.00  0.00    +0.000 A 
ATOM      7  C   UNL     1       2.498   7.295  18.844  0.00  0.00    +0.000 A 
ATOM      8  C   UNL     1       2.657   8.575  18.050  0.00  0.00    +0.000 C 
ATOM      9  C   UNL     1       3.839   5.988  17.153  0.00  0.00    +0.000 C 
ATOM     10  C   UNL     1       4.730   4.747  17.114  0.00  0.00    +0.000 C 
ATOM     11  C   UNL     1       3.875   3.497  17.285  0.00  0.00    +0.000 C 
ATOM     12  C   UNL     1       3.060   3.493  18.561  0.00  0.00    +0.000 C 
ENDROOT
BRANCH  10  13
ATOM     13  C   UNL     1       6.040   4.812  17.978  0.00  0.00    +0.000 C 
ATOM     14  C   UNL     1       6.004   5.691  19.236  0.00  0.00    +0.000 C 
BRANCH  13  15
ATOM     15  C   UNL     1       7.306   5.212  17.185  0.00  0.00    +0.000 C 
ATOM     16  O   UNL     1       8.113   4.392  16.750  0.00  0.00    +0.000 OA
ATOM     17  N   UNL     1       7.520   6.527  16.892  0.00  0.00    +0.000 N 
ATOM     18  H   UNL     1       8.390   6.694  16.396  0.00  0.00    +0.000 HD
BRANCH  17  19
ATOM     19  C   UNL     1       6.855   7.634  17.502  0.00  0.00    +0.000 C 
BRANCH  19  20
ATOM     20  C   UNL     1       7.748   8.767  17.848  0.00  0.00    +0.000 A 
ATOM     21  C   UNL     1       7.527  10.017  17.257  0.00  0.00    +0.000 A 
ATOM     22  C   UNL     1       8.260  11.115  17.679  0.00  0.00    +0.000 A 
ATOM     23  C   UNL     1       9.214  10.969  18.687  0.00  0.00    +0.000 A 
ATOM     24  C   UNL     1       9.466   9.713  19.241  0.00  0.00    +0.000 A 
ATOM     25  C   UNL     1       8.740   8.607  18.818  0.00  0.00    +0.000 A 
BRANCH  23  26
ATOM     26  O   UNL     1       9.865  12.119  19.039  0.00  0.00    +0.000 OA
ATOM     27  C   UNL     1       9.143  12.970  19.922  0.00  0.00    +0.000 C 
ENDBRANCH  23  26
ENDBRANCH  19  20
ENDBRANCH  17  19
ENDBRANCH  13  15
ENDBRANCH  10  13
BRANCH   1  28
ATOM     28  O   UNL     1       1.434   8.595  20.481  0.00  0.00    +0.000 OA
BRANCH  28  29
ATOM     29  C   UNL     1       1.157   8.764  21.867  0.00  0.00    +0.000 C 
BRANCH  29  30
ATOM     30  C   UNL     1      -0.016   9.716  22.012  0.00  0.00    +0.000 C 
BRANCH  30  32
ATOM     31  C   UNL     1      -0.591  11.993  21.983  0.00  0.00    +0.000 C 
ATOM     32  O   UNL     1       0.473  11.054  21.971  0.00  0.00    +0.000 OA
ENDBRANCH  30  32
ENDBRANCH  29  30
ENDBRANCH  28  29
ENDBRANCH   1  28
TORSDOF 9
ENDMDL
MODEL 7
REMARK VINA RESULT:      -7.1      2.732      5.125
REMARK  Name = 
REMARK  14 active torsions:
REMARK  status: ('A' for Active; 'I' for Inactive)
REMARK    1  A    between atoms: C_1  and  O_2
REMARK    2  A    between atoms: O_2  and  C_3
REMARK    3  A    between atoms: C_3  and  C_4
REMARK    4  A    between atoms: C_4  and  O_5
REMARK    5  A    between atoms: O_5  and  C_6
REMARK    6  A    between atoms: C_8  and  C_9
REMARK    7  A    between atoms: C_12  and  C_13
REMARK    8  A    between atoms: C_15  and  C_16
REMARK    9  A    between atoms: C_16  and  C_17
REMARK   10  A    between atoms: C_16  and  C_18
REMARK   11  A    between atoms: N_20  and  C_21
REMARK   12  A    between atoms: C_21  and  C_22
REMARK   13  A    between atoms: C_25  and  O_26
REMARK   14  A    between atoms: O_26  and  C_27
REMARK                            x       y       z     vdW  Elec       q    Type
REMARK                         _______ _______ _______ _____ _____    ______ ____
ROOT
ATOM      1  C   UNL     1       1.925   7.444  19.845  0.00  0.00    +0.000 A 
ATOM      2  C   UNL     1       1.701   6.336  20.666  0.00  0.00    +0.000 A 
ATOM      3  C   UNL     1       2.067   5.048  20.264  0.00  0.00    +0.000 A 
ATOM      4  C   UNL     1       1.869   3.898  21.214  0.00  0.00    +0.000 C 
ATOM      5  C   UNL     1       2.694   4.870  19.020  0.00  0.00    +0.000 A 
ATOM      6  C   UNL     1       3.058   6.008  18.258  0.00  0.00    +0.000 A 
ATOM      7  C   UNL     1       2.614   7.293  18.634  0.00  0.00    +0.000 A 
ATOM      8  C   UNL     1       2.867   8.524  17.787  0.00  0.00    +0.000 C 
ATOM      9  C   UNL     1       3.961   5.843  17.070  0.00  0.00    +0.000 C 
ATOM     10  C   UNL     1       4.791   4.561  17.130  0.00  0.00    +0.000 C 
ATOM     11  C   UNL     1       3.870   3.363  17.322  0.00  0.00    +0.000 C 
ATOM     12  C   UNL     1       3.002   3.460  18.559  0.00  0.00    +0.000 C 
ENDROOT
BRANCH  10  13
ATOM     13  C   UNL     1       6.065   4.608  18.048  0.00  0.00    +0.000 C 
ATOM     14  C   UNL     1       5.989   5.492  19.302  0.00  0.00    +0.000 C 
BRANCH  13  15
ATOM     15  C   UNL     1       7.369   4.988  17.308  0.00  0.00    +0.000 C 
ATOM     16  O   UNL     1       8.262   4.178  17.067  0.00  0.00    +0.000 OA
ATOM     17  N   UNL     1       7.523   6.260  16.841  0.00  0.00    +0.000 N 
ATOM     18  H   UNL     1       8.422   6.421  16.397  0.00  0.00    +0.000 HD
BRANCH  17  19
ATOM     19  C   UNL     1       6.735   7.388  17.224  0.00  0.00    +0.000 C 
BRANCH  19  20
ATOM     20  C   UNL     1       7.520   8.520  17.777  0.00  0.00    +0.000 A 
ATOM     21  C   UNL     1       8.500   8.264  18.744  0.00  0.00    +0.000 A 
ATOM     22  C   UNL     1       9.337   9.288  19.161  0.00  0.00    +0.000 A 
ATOM     23  C   UNL     1       9.196  10.566  18.618  0.00  0.00    +0.000 A 
ATOM     24  C   UNL     1       8.187  10.829  17.690  0.00  0.00    +0.000 A 
ATOM     25  C   UNL     1       7.342   9.809  17.272  0.00  0.00    +0.000 A 
BRANCH  23  26
ATOM     26  O   UNL     1      10.084  11.495  19.086  0.00  0.00    +0.000 OA
ATOM     27  C   UNL     1       9.526  12.777  19.348  0.00  0.00    +0.000 C 
ENDBRANCH  23  26
ENDBRANCH  19  20
ENDBRANCH  17  19
ENDBRANCH  13  15
ENDBRANCH  10  13
BRANCH   1  28
ATOM     28  O   UNL     1       1.544   8.722  20.157  0.00  0.00    +0.000 OA
BRANCH  28  29
ATOM     29  C   UNL     1       0.419   8.857  21.019  0.00  0.00    +0.000 C 
BRANCH  29  30
ATOM     30  C   UNL     1       0.197  10.333  21.294  0.00  0.00    +0.000 C 
BRANCH  30  32
ATOM     31  C   UNL     1      -0.128   9.526  23.475  0.00  0.00    +0.000 C 
ATOM     32  O   UNL     1       0.405  10.576  22.682  0.00  0.00    +0.000 OA
ENDBRANCH  30  32
ENDBRANCH  29  30
ENDBRANCH  28  29
ENDBRANCH   1  28
TORSDOF 9
ENDMDL
MODEL 8
REMARK VINA RESULT:      -7.1      3.023      5.063
REMARK  Name = 
REMARK  14 active torsions:
REMARK  status: ('A' for Active; 'I' for Inactive)
REMARK    1  A    between atoms: C_1  and  O_2
REMARK    2  A    between atoms: O_2  and  C_3
REMARK    3  A    between atoms: C_3  and  C_4
REMARK    4  A    between atoms: C_4  and  O_5
REMARK    5  A    between atoms: O_5  and  C_6
REMARK    6  A    between atoms: C_8  and  C_9
REMARK    7  A    between atoms: C_12  and  C_13
REMARK    8  A    between atoms: C_15  and  C_16
REMARK    9  A    between atoms: C_16  and  C_17
REMARK   10  A    between atoms: C_16  and  C_18
REMARK   11  A    between atoms: N_20  and  C_21
REMARK   12  A    between atoms: C_21  and  C_22
REMARK   13  A    between atoms: C_25  and  O_26
REMARK   14  A    between atoms: O_26  and  C_27
REMARK                            x       y       z     vdW  Elec       q    Type
REMARK                         _______ _______ _______ _____ _____    ______ ____
ROOT
ATOM      1  C   UNL     1      -0.294  10.091  21.232  0.00  0.00    +0.000 A 
ATOM      2  C   UNL     1      -0.875  10.281  19.976  0.00  0.00    +0.000 A 
ATOM      3  C   UNL     1      -0.286   9.768  18.817  0.00  0.00    +0.000 A 
ATOM      4  C   UNL     1      -0.990   9.939  17.498  0.00  0.00    +0.000 C 
ATOM      5  C   UNL     1       0.901   9.025  18.922  0.00  0.00    +0.000 A 
ATOM      6  C   UNL     1       1.406   8.703  20.207  0.00  0.00    +0.000 A 
ATOM      7  C   UNL     1       0.850   9.292  21.362  0.00  0.00    +0.000 A 
ATOM      8  C   UNL     1       1.433   9.081  22.745  0.00  0.00    +0.000 C 
ATOM      9  C   UNL     1       2.509   7.693  20.334  0.00  0.00    +0.000 C 
ATOM     10  C   UNL     1       2.599   6.758  19.129  0.00  0.00    +0.000 C 
ATOM     11  C   UNL     1       2.717   7.579  17.851  0.00  0.00    +0.000 C 
ATOM     12  C   UNL     1       1.575   8.553  17.650  0.00  0.00    +0.000 C 
ENDROOT
BRANCH  10  13
ATOM     13  C   UNL     1       1.565   5.575  19.097  0.00  0.00    +0.000 C 
ATOM     14  C   UNL     1       1.419   4.741  20.378  0.00  0.00    +0.000 C 
BRANCH  13  15
ATOM     15  C   UNL     1       1.774   4.579  17.932  0.00  0.00    +0.000 C 
ATOM     16  O   UNL     1       0.883   4.274  17.142  0.00  0.00    +0.000 OA
ATOM     17  N   UNL     1       3.015   4.054  17.720  0.00  0.00    +0.000 N 
ATOM     18  H   UNL     1       3.047   3.389  16.953  0.00  0.00    +0.000 HD
BRANCH  17  19
ATOM     19  C   UNL     1       4.100   4.083  18.648  0.00  0.00    +0.000 C 
BRANCH  19  20
ATOM     20  C   UNL     1       5.231   4.953  18.237  0.00  0.00    +0.000 A 
ATOM     21  C   UNL     1       5.227   5.519  16.957  0.00  0.00    +0.000 A 
ATOM     22  C   UNL     1       6.198   6.446  16.613  0.00  0.00    +0.000 A 
ATOM     23  C   UNL     1       7.176   6.806  17.542  0.00  0.00    +0.000 A 
ATOM     24  C   UNL     1       7.205   6.204  18.801  0.00  0.00    +0.000 A 
ATOM     25  C   UNL     1       6.238   5.270  19.150  0.00  0.00    +0.000 A 
BRANCH  23  26
ATOM     26  O   UNL     1       8.074   7.741  17.106  0.00  0.00    +0.000 OA
ATOM     27  C   UNL     1       8.188   8.893  17.933  0.00  0.00    +0.000 C 
ENDBRANCH  23  26
ENDBRANCH  19  20
ENDBRANCH  17  19
ENDBRANCH  13  15
ENDBRANCH  10  13
BRANCH   1  28
ATOM     28  O   UNL     1      -0.791  10.610  22.397  0.00  0.00    +0.000 OA
BRANCH  28  29
ATOM     29  C   UNL     1      -0.875  12.029  22.475  0.00  0.00    +0.000 C 
BRANCH  29  30
ATOM     30  C   UNL     1      -2.125  12.397  23.253  0.00  0.00    +0.000 C 
BRANCH  30  32
ATOM     31  C   UNL     1      -1.805  14.147  21.721  0.00  0.00    +0.000 C 
ATOM     32  O   UNL     1      -2.584  13.669  22.806  0.00  0.00    +0.000 OA
ENDBRANCH  30  32
ENDBRANCH  29  30
ENDBRANCH  28  29
ENDBRANCH   1  28
TORSDOF 9
ENDMDL
MODEL 9
REMARK VINA RESULT:      -7.0      5.416     11.842
REMARK  Name = 
REMARK  14 active torsions:
REMARK  status: ('A' for Active; 'I' for Inactive)
REMARK    1  A    between atoms: C_1  and  O_2
REMARK    2  A    between atoms: O_2  and  C_3
REMARK    3  A    between atoms: C_3  and  C_4
REMARK    4  A    between atoms: C_4  and  O_5
REMARK    5  A    between atoms: O_5  and  C_6
REMARK    6  A    between atoms: C_8  and  C_9
REMARK    7  A    between atoms: C_12  and  C_13
REMARK    8  A    between atoms: C_15  and  C_16
REMARK    9  A    between atoms: C_16  and  C_17
REMARK   10  A    between atoms: C_16  and  C_18
REMARK   11  A    between atoms: N_20  and  C_21
REMARK   12  A    between atoms: C_21  and  C_22
REMARK   13  A    between atoms: C_25  and  O_26
REMARK   14  A    between atoms: O_26  and  C_27
REMARK                            x       y       z     vdW  Elec       q    Type
REMARK                         _______ _______ _______ _____ _____    ______ ____
ROOT
ATOM      1  C   UNL     1       1.330   8.526  20.264  0.00  0.00    +0.000 A 
ATOM      2  C   UNL     1       0.736   8.750  21.508  0.00  0.00    +0.000 A 
ATOM      3  C   UNL     1      -0.119   9.835  21.721  0.00  0.00    +0.000 A 
ATOM      4  C   UNL     1      -0.789   9.991  23.059  0.00  0.00    +0.000 C 
ATOM      5  C   UNL     1      -0.405  10.702  20.654  0.00  0.00    +0.000 A 
ATOM      6  C   UNL     1       0.075  10.387  19.357  0.00  0.00    +0.000 A 
ATOM      7  C   UNL     1       0.999   9.338  19.172  0.00  0.00    +0.000 A 
ATOM      8  C   UNL     1       1.638   9.043  17.830  0.00  0.00    +0.000 C 
ATOM      9  C   UNL     1      -0.445  11.151  18.174  0.00  0.00    +0.000 C 
ATOM     10  C   UNL     1      -1.797  11.812  18.441  0.00  0.00    +0.000 C 
ATOM     11  C   UNL     1      -1.704  12.681  19.689  0.00  0.00    +0.000 C 
ATOM     12  C   UNL     1      -1.260  11.924  20.922  0.00  0.00    +0.000 C 
ENDROOT
BRANCH  10  13
ATOM     13  C   UNL     1      -3.053  10.874  18.345  0.00  0.00    +0.000 C 
ATOM     14  C   UNL     1      -2.926   9.625  17.461  0.00  0.00    +0.000 C 
BRANCH  13  15
ATOM     15  C   UNL     1      -4.354  11.594  17.921  0.00  0.00    +0.000 C 
ATOM     16  O   UNL     1      -4.571  11.964  16.768  0.00  0.00    +0.000 OA
ATOM     17  N   UNL     1      -5.343  11.780  18.842  0.00  0.00    +0.000 N 
ATOM     18  H   UNL     1      -6.144  12.287  18.479  0.00  0.00    +0.000 HD
BRANCH  17  19
ATOM     19  C   UNL     1      -5.196  11.653  20.257  0.00  0.00    +0.000 C 
BRANCH  19  20
ATOM     20  C   UNL     1      -5.170  12.946  20.985  0.00  0.00    +0.000 A 
ATOM     21  C   UNL     1      -4.590  13.001  22.259  0.00  0.00    +0.000 A 
ATOM     22  C   UNL     1      -4.429  14.227  22.887  0.00  0.00    +0.000 A 
ATOM     23  C   UNL     1      -4.847  15.396  22.250  0.00  0.00    +0.000 A 
ATOM     24  C   UNL     1      -5.468  15.333  21.001  0.00  0.00    +0.000 A 
ATOM     25  C   UNL     1      -5.638  14.108  20.369  0.00  0.00    +0.000 A 
BRANCH  23  26
ATOM     26  O   UNL     1      -4.624  16.549  22.951  0.00  0.00    +0.000 OA
ATOM     27  C   UNL     1      -5.455  16.725  24.093  0.00  0.00    +0.000 C 
ENDBRANCH  23  26
ENDBRANCH  19  20
ENDBRANCH  17  19
ENDBRANCH  13  15
ENDBRANCH  10  13
BRANCH   1  28
ATOM     28  O   UNL     1       2.215   7.513  20.005  0.00  0.00    +0.000 OA
BRANCH  28  29
ATOM     29  C   UNL     1       1.839   6.213  20.444  0.00  0.00    +0.000 C 
BRANCH  29  30
ATOM     30  C   UNL     1       2.629   5.188  19.651  0.00  0.00    +0.000 C 
BRANCH  30  32
ATOM     31  C   UNL     1       2.630   2.879  19.222  0.00  0.00    +0.000 C 
ATOM     32  O   UNL     1       2.357   3.893  20.177  0.00  0.00    +0.000 OA
ENDBRANCH  30  32
ENDBRANCH  29  30
ENDBRANCH  28  29
ENDBRANCH   1  28
TORSDOF 9
ENDMDL
