MODEL 1
REMARK VINA RESULT:      -7.3      0.000      0.000
REMARK  Name = 
REMARK  7 active torsions:
REMARK  status: ('A' for Active; 'I' for Inactive)
REMARK    1  A    between atoms: C_1  and  C_2
REMARK    2  A    between atoms: C_8  and  N_9
REMARK    3  A    between atoms: C_14  and  S_15
REMARK    4  A    between atoms: S_15  and  C_16
REMARK    5  A    between atoms: C_16  and  C_17
REMARK    6  A    between atoms: C_17  and  C_18
REMARK    7  A    between atoms: C_18  and  C_19
REMARK                            x       y       z     vdW  Elec       q    Type
REMARK                         _______ _______ _______ _____ _____    ______ ____
ROOT
ATOM      1  N   UNL     1       0.903   9.561  19.323  0.00  0.00    +0.000 N 
ATOM      2  C   UNL     1       0.825   8.725  20.430  0.00  0.00    +0.000 A 
ATOM      3  N   UNL     1       1.485   7.624  20.635  0.00  0.00    +0.000 NA
ATOM      4  C   UNL     1       2.366   7.275  19.600  0.00  0.00    +0.000 A 
ATOM      5  N   UNL     1       3.121   6.117  19.598  0.00  0.00    +0.000 NA
ATOM      6  C   UNL     1       3.871   6.105  18.515  0.00  0.00    +0.000 A 
ATOM      7  S   UNL     1       3.662   7.434  17.436  0.00  0.00    +0.000 S 
ATOM      8  C   UNL     1       2.534   8.087  18.510  0.00  0.00    +0.000 A 
ATOM      9  C   UNL     1       1.841   9.323  18.314  0.00  0.00    +0.000 A 
ATOM     10  O   UNL     1       2.065  10.094  17.382  0.00  0.00    +0.000 OA
ENDROOT
BRANCH   1  18
ATOM     11  C   UNL     1       1.467  11.923  20.991  0.00  0.00    +0.000 C 
ATOM     12  C   UNL     1       0.300  11.841  20.042  0.00  0.00    +0.000 A 
ATOM     13  C   UNL     1      -0.540  12.963  19.929  0.00  0.00    +0.000 A 
ATOM     14  C   UNL     1      -1.597  12.981  19.023  0.00  0.00    +0.000 A 
ATOM     15  C   UNL     1      -1.841  11.870  18.221  0.00  0.00    +0.000 A 
ATOM     16  C   UNL     1      -1.027  10.739  18.321  0.00  0.00    +0.000 A 
ATOM     17 CL   UNL     1      -1.455   9.371  17.350  0.00  0.00    +0.000 Cl
ATOM     18  C   UNL     1       0.054  10.708  19.228  0.00  0.00    +0.000 A 
ENDBRANCH   1  18
BRANCH   6  19
ATOM     19  S   UNL     1       5.092   4.906  18.169  0.00  0.00    +0.000 S 
BRANCH  19  20
ATOM     20  C   UNL     1       4.560   4.153  16.608  0.00  0.00    +0.000 C 
BRANCH  20  21
ATOM     21  C   UNL     1       3.168   3.553  16.854  0.00  0.00    +0.000 C 
BRANCH  21  22
ATOM     22  C   UNL     1       3.202   2.317  17.755  0.00  0.00    +0.000 C 
BRANCH  22  23
ATOM     23  C   UNL     1       2.547   2.574  19.093  0.00  0.00    +0.000 A 
ATOM     24  C   UNL     1       3.270   2.404  20.283  0.00  0.00    +0.000 A 
ATOM     25  C   UNL     1       2.671   2.653  21.522  0.00  0.00    +0.000 A 
ATOM     26  C   UNL     1       1.343   3.066  21.585  0.00  0.00    +0.000 A 
ATOM     27  C   UNL     1       0.607   3.218  20.412  0.00  0.00    +0.000 A 
ATOM     28  C   UNL     1       1.204   2.970  19.172  0.00  0.00    +0.000 A 
ENDBRANCH  22  23
ENDBRANCH  21  22
ENDBRANCH  20  21
ENDBRANCH  19  20
ENDBRANCH   6  19
TORSDOF 6
ENDMDL
MODEL 2
REMARK VINA RESULT:      -7.3      1.904      3.479
REMARK  Name = 
REMARK  7 active torsions:
REMARK  status: ('A' for Active; 'I' for Inactive)
REMARK    1  A    between atoms: C_1  and  C_2
REMARK    2  A    between atoms: C_8  and  N_9
REMARK    3  A    between atoms: C_14  and  S_15
REMARK    4  A    between atoms: S_15  and  C_16
REMARK    5  A    between atoms: C_16  and  C_17
REMARK    6  A    between atoms: C_17  and  C_18
REMARK    7  A    between atoms: C_18  and  C_19
REMARK                            x       y       z     vdW  Elec       q    Type
REMARK                         _______ _______ _______ _____ _____    ______ ____
ROOT
ATOM      1  N   UNL     1       0.856  10.012  19.608  0.00  0.00    +0.000 N 
ATOM      2  C   UNL     1       0.597   9.491  20.870  0.00  0.00    +0.000 A 
ATOM      3  N   UNL     1       0.912   8.312  21.315  0.00  0.00    +0.000 NA
ATOM      4  C   UNL     1       1.588   7.503  20.388  0.00  0.00    +0.000 A 
ATOM      5  N   UNL     1       1.964   6.198  20.644  0.00  0.00    +0.000 NA
ATOM      6  C   UNL     1       2.612   5.732  19.597  0.00  0.00    +0.000 A 
ATOM      7  S   UNL     1       2.744   6.804  18.251  0.00  0.00    +0.000 S 
ATOM      8  C   UNL     1       1.925   7.978  19.148  0.00  0.00    +0.000 A 
ATOM      9  C   UNL     1       1.620   9.295  18.683  0.00  0.00    +0.000 A 
ATOM     10  O   UNL     1       2.008   9.748  17.606  0.00  0.00    +0.000 OA
ENDROOT
BRANCH   1  18
ATOM     11  C   UNL     1       2.324  12.389  20.545  0.00  0.00    +0.000 C 
ATOM     12  C   UNL     1       1.064  12.467  19.722  0.00  0.00    +0.000 A 
ATOM     13  C   UNL     1       0.588  13.740  19.362  0.00  0.00    +0.000 A 
ATOM     14  C   UNL     1      -0.532  13.884  18.547  0.00  0.00    +0.000 A 
ATOM     15  C   UNL     1      -1.205  12.756  18.088  0.00  0.00    +0.000 A 
ATOM     16  C   UNL     1      -0.758  11.479  18.441  0.00  0.00    +0.000 A 
ATOM     17 CL   UNL     1      -1.705  10.135  17.899  0.00  0.00    +0.000 Cl
ATOM     18  C   UNL     1       0.381  11.316  19.258  0.00  0.00    +0.000 A 
ENDBRANCH   1  18
BRANCH   6  19
ATOM     19  S   UNL     1       3.399   4.175  19.530  0.00  0.00    +0.000 S 
BRANCH  19  20
ATOM     20  C   UNL     1       3.202   3.639  17.809  0.00  0.00    +0.000 C 
BRANCH  20  21
ATOM     21  C   UNL     1       4.614   3.452  17.236  0.00  0.00    +0.000 C 
BRANCH  21  22
ATOM     22  C   UNL     1       5.092   4.656  16.422  0.00  0.00    +0.000 C 
BRANCH  22  23
ATOM     23  C   UNL     1       6.140   5.458  17.161  0.00  0.00    +0.000 A 
ATOM     24  C   UNL     1       6.433   6.774  16.773  0.00  0.00    +0.000 A 
ATOM     25  C   UNL     1       7.392   7.522  17.462  0.00  0.00    +0.000 A 
ATOM     26  C   UNL     1       8.073   6.963  18.540  0.00  0.00    +0.000 A 
ATOM     27  C   UNL     1       7.806   5.651  18.923  0.00  0.00    +0.000 A 
ATOM     28  C   UNL     1       6.848   4.899  18.235  0.00  0.00    +0.000 A 
ENDBRANCH  22  23
ENDBRANCH  21  22
ENDBRANCH  20  21
ENDBRANCH  19  20
ENDBRANCH   6  19
TORSDOF 6
ENDMDL
MODEL 3
REMARK VINA RESULT:      -7.2      2.392      4.643
REMARK  Name = 
REMARK  7 active torsions:
REMARK  status: ('A' for Active; 'I' for Inactive)
REMARK    1  A    between atoms: C_1  and  C_2
REMARK    2  A    between atoms: C_8  and  N_9
REMARK    3  A    between atoms: C_14  and  S_15
REMARK    4  A    between atoms: S_15  and  C_16
REMARK    5  A    between atoms: C_16  and  C_17
REMARK    6  A    between atoms: C_17  and  C_18
REMARK    7  A    between atoms: C_18  and  C_19
REMARK                            x       y       z     vdW  Elec       q    Type
REMARK                         _______ _______ _______ _____ _____    ______ ____
ROOT
ATOM      1  N   UNL     1       0.915   9.709  19.336  0.00  0.00    +0.000 N 
ATOM      2  C   UNL     1       0.753   8.985  20.510  0.00  0.00    +0.000 A 
ATOM      3  N   UNL     1       1.301   7.847  20.816  0.00  0.00    +0.000 NA
ATOM      4  C   UNL     1       2.145   7.325  19.824  0.00  0.00    +0.000 A 
ATOM      5  N   UNL     1       2.783   6.103  19.930  0.00  0.00    +0.000 NA
ATOM      6  C   UNL     1       3.530   5.923  18.860  0.00  0.00    +0.000 A 
ATOM      7  S   UNL     1       3.453   7.166  17.667  0.00  0.00    +0.000 S 
ATOM      8  C   UNL     1       2.393   8.018  18.669  0.00  0.00    +0.000 A 
ATOM      9  C   UNL     1       1.826   9.294  18.361  0.00  0.00    +0.000 A 
ATOM     10  O   UNL     1       2.126   9.955  17.367  0.00  0.00    +0.000 OA
ENDROOT
BRANCH   1  18
ATOM     11  C   UNL     1      -1.536   9.666  17.700  0.00  0.00    +0.000 C 
ATOM     12  C   UNL     1      -0.985  10.919  18.330  0.00  0.00    +0.000 A 
ATOM     13  C   UNL     1      -1.698  12.117  18.150  0.00  0.00    +0.000 A 
ATOM     14  C   UNL     1      -1.282  13.299  18.758  0.00  0.00    +0.000 A 
ATOM     15  C   UNL     1      -0.137  13.305  19.550  0.00  0.00    +0.000 A 
ATOM     16  C   UNL     1       0.594  12.129  19.736  0.00  0.00    +0.000 A 
ATOM     17 CL   UNL     1       2.053  12.245  20.662  0.00  0.00    +0.000 Cl
ATOM     18  C   UNL     1       0.182  10.921  19.134  0.00  0.00    +0.000 A 
ENDBRANCH   1  18
BRANCH   6  19
ATOM     19  S   UNL     1       4.627   4.584  18.631  0.00  0.00    +0.000 S 
BRANCH  19  20
ATOM     20  C   UNL     1       6.164   5.350  18.051  0.00  0.00    +0.000 C 
BRANCH  20  21
ATOM     21  C   UNL     1       6.699   4.470  16.913  0.00  0.00    +0.000 C 
BRANCH  21  22
ATOM     22  C   UNL     1       5.637   4.145  15.861  0.00  0.00    +0.000 C 
BRANCH  22  23
ATOM     23  C   UNL     1       6.192   4.218  14.456  0.00  0.00    +0.000 A 
ATOM     24  C   UNL     1       7.272   5.062  14.161  0.00  0.00    +0.000 A 
ATOM     25  C   UNL     1       7.796   5.122  12.866  0.00  0.00    +0.000 A 
ATOM     26  C   UNL     1       7.241   4.347  11.851  0.00  0.00    +0.000 A 
ATOM     27  C   UNL     1       6.155   3.520  12.126  0.00  0.00    +0.000 A 
ATOM     28  C   UNL     1       5.629   3.458  13.420  0.00  0.00    +0.000 A 
ENDBRANCH  22  23
ENDBRANCH  21  22
ENDBRANCH  20  21
ENDBRANCH  19  20
ENDBRANCH   6  19
TORSDOF 6
ENDMDL
MODEL 4
REMARK VINA RESULT:      -7.2      1.133      1.925
REMARK  Name = 
REMARK  7 active torsions:
REMARK  status: ('A' for Active; 'I' for Inactive)
REMARK    1  A    between atoms: C_1  and  C_2
REMARK    2  A    between atoms: C_8  and  N_9
REMARK    3  A    between atoms: C_14  and  S_15
REMARK    4  A    between atoms: S_15  and  C_16
REMARK    5  A    between atoms: C_16  and  C_17
REMARK    6  A    between atoms: C_17  and  C_18
REMARK    7  A    between atoms: C_18  and  C_19
REMARK                            x       y       z     vdW  Elec       q    Type
REMARK                         _______ _______ _______ _____ _____    ______ ____
ROOT
ATOM      1  N   UNL     1       0.830   9.760  19.443  0.00  0.00    +0.000 N 
ATOM      2  C   UNL     1       0.758   8.945  20.566  0.00  0.00    +0.000 A 
ATOM      3  N   UNL     1       1.394   7.831  20.773  0.00  0.00    +0.000 NA
ATOM      4  C   UNL     1       2.239   7.441  19.723  0.00  0.00    +0.000 A 
ATOM      5  N   UNL     1       2.963   6.264  19.722  0.00  0.00    +0.000 NA
ATOM      6  C   UNL     1       3.686   6.214  18.622  0.00  0.00    +0.000 A 
ATOM      7  S   UNL     1       3.484   7.530  17.525  0.00  0.00    +0.000 S 
ATOM      8  C   UNL     1       2.400   8.231  18.616  0.00  0.00    +0.000 A 
ATOM      9  C   UNL     1       1.736   9.481  18.416  0.00  0.00    +0.000 A 
ATOM     10  O   UNL     1       1.957  10.230  17.465  0.00  0.00    +0.000 OA
ENDROOT
BRANCH   1  18
ATOM     11  C   UNL     1      -1.785   9.588  18.097  0.00  0.00    +0.000 C 
ATOM     12  C   UNL     1      -1.241  10.864  18.685  0.00  0.00    +0.000 A 
ATOM     13  C   UNL     1      -2.039  12.019  18.611  0.00  0.00    +0.000 A 
ATOM     14  C   UNL     1      -1.627  13.216  19.191  0.00  0.00    +0.000 A 
ATOM     15  C   UNL     1      -0.401  13.282  19.847  0.00  0.00    +0.000 A 
ATOM     16  C   UNL     1       0.415  12.150  19.926  0.00  0.00    +0.000 A 
ATOM     17 CL   UNL     1       1.961  12.344  20.682  0.00  0.00    +0.000 Cl
ATOM     18  C   UNL     1       0.009  10.928  19.350  0.00  0.00    +0.000 A 
ENDBRANCH   1  18
BRANCH   6  19
ATOM     19  S   UNL     1       4.865   4.977  18.267  0.00  0.00    +0.000 S 
BRANCH  19  20
ATOM     20  C   UNL     1       4.403   4.367  16.623  0.00  0.00    +0.000 C 
BRANCH  20  21
ATOM     21  C   UNL     1       3.286   3.334  16.829  0.00  0.00    +0.000 C 
BRANCH  21  22
ATOM     22  C   UNL     1       3.595   2.336  17.946  0.00  0.00    +0.000 C 
BRANCH  22  23
ATOM     23  C   UNL     1       2.767   2.598  19.185  0.00  0.00    +0.000 A 
ATOM     24  C   UNL     1       1.448   3.060  19.073  0.00  0.00    +0.000 A 
ATOM     25  C   UNL     1       0.676   3.291  20.215  0.00  0.00    +0.000 A 
ATOM     26  C   UNL     1       1.215   3.072  21.480  0.00  0.00    +0.000 A 
ATOM     27  C   UNL     1       2.531   2.633  21.606  0.00  0.00    +0.000 A 
ATOM     28  C   UNL     1       3.306   2.401  20.464  0.00  0.00    +0.000 A 
ENDBRANCH  22  23
ENDBRANCH  21  22
ENDBRANCH  20  21
ENDBRANCH  19  20
ENDBRANCH   6  19
TORSDOF 6
ENDMDL
MODEL 5
REMARK VINA RESULT:      -7.2      2.366      4.649
REMARK  Name = 
REMARK  7 active torsions:
REMARK  status: ('A' for Active; 'I' for Inactive)
REMARK    1  A    between atoms: C_1  and  C_2
REMARK    2  A    between atoms: C_8  and  N_9
REMARK    3  A    between atoms: C_14  and  S_15
REMARK    4  A    between atoms: S_15  and  C_16
REMARK    5  A    between atoms: C_16  and  C_17
REMARK    6  A    between atoms: C_17  and  C_18
REMARK    7  A    between atoms: C_18  and  C_19
REMARK                            x       y       z     vdW  Elec       q    Type
REMARK                         _______ _______ _______ _____ _____    ______ ____
ROOT
ATOM      1  N   UNL     1       0.904   9.903  19.485  0.00  0.00    +0.000 N 
ATOM      2  C   UNL     1       0.685   9.254  20.694  0.00  0.00    +0.000 A 
ATOM      3  N   UNL     1       1.119   8.082  21.049  0.00  0.00    +0.000 NA
ATOM      4  C   UNL     1       1.893   7.431  20.076  0.00  0.00    +0.000 A 
ATOM      5  N   UNL     1       2.406   6.157  20.234  0.00  0.00    +0.000 NA
ATOM      6  C   UNL     1       3.117   5.853  19.168  0.00  0.00    +0.000 A 
ATOM      7  S   UNL     1       3.152   7.042  17.918  0.00  0.00    +0.000 S 
ATOM      8  C   UNL     1       2.196   8.042  18.888  0.00  0.00    +0.000 A 
ATOM      9  C   UNL     1       1.757   9.353  18.524  0.00  0.00    +0.000 A 
ATOM     10  O   UNL     1       2.109   9.934  17.498  0.00  0.00    +0.000 OA
ENDROOT
BRANCH   1  18
ATOM     11  C   UNL     1      -1.580  10.030  17.906  0.00  0.00    +0.000 C 
ATOM     12  C   UNL     1      -0.887  11.250  18.455  0.00  0.00    +0.000 A 
ATOM     13  C   UNL     1      -1.477  12.505  18.224  0.00  0.00    +0.000 A 
ATOM     14  C   UNL     1      -0.925  13.667  18.758  0.00  0.00    +0.000 A 
ATOM     15  C   UNL     1       0.235  13.596  19.523  0.00  0.00    +0.000 A 
ATOM     16  C   UNL     1       0.845  12.361  19.759  0.00  0.00    +0.000 A 
ATOM     17 CL   UNL     1       2.332  12.373  20.647  0.00  0.00    +0.000 Cl
ATOM     18  C   UNL     1       0.295  11.173  19.232  0.00  0.00    +0.000 A 
ENDBRANCH   1  18
BRANCH   6  19
ATOM     19  S   UNL     1       4.071   4.401  18.994  0.00  0.00    +0.000 S 
BRANCH  19  20
ATOM     20  C   UNL     1       3.763   3.857  17.292  0.00  0.00    +0.000 C 
BRANCH  20  21
ATOM     21  C   UNL     1       5.129   3.772  16.597  0.00  0.00    +0.000 C 
BRANCH  21  22
ATOM     22  C   UNL     1       5.444   5.007  15.750  0.00  0.00    +0.000 C 
BRANCH  22  23
ATOM     23  C   UNL     1       6.022   4.636  14.402  0.00  0.00    +0.000 A 
ATOM     24  C   UNL     1       5.370   3.704  13.581  0.00  0.00    +0.000 A 
ATOM     25  C   UNL     1       5.895   3.369  12.330  0.00  0.00    +0.000 A 
ATOM     26  C   UNL     1       7.079   3.954  11.889  0.00  0.00    +0.000 A 
ATOM     27  C   UNL     1       7.748   4.865  12.703  0.00  0.00    +0.000 A 
ATOM     28  C   UNL     1       7.225   5.202  13.956  0.00  0.00    +0.000 A 
ENDBRANCH  22  23
ENDBRANCH  21  22
ENDBRANCH  20  21
ENDBRANCH  19  20
ENDBRANCH   6  19
TORSDOF 6
ENDMDL
MODEL 6
REMARK VINA RESULT:      -7.0      2.736      8.086
REMARK  Name = 
REMARK  7 active torsions:
REMARK  status: ('A' for Active; 'I' for Inactive)
REMARK    1  A    between atoms: C_1  and  C_2
REMARK    2  A    between atoms: C_8  and  N_9
REMARK    3  A    between atoms: C_14  and  S_15
REMARK    4  A    between atoms: S_15  and  C_16
REMARK    5  A    between atoms: C_16  and  C_17
REMARK    6  A    between atoms: C_17  and  C_18
REMARK    7  A    between atoms: C_18  and  C_19
REMARK                            x       y       z     vdW  Elec       q    Type
REMARK                         _______ _______ _______ _____ _____    ______ ____
ROOT
ATOM      1  N   UNL     1       3.898   6.012  18.107  0.00  0.00    +0.000 N 
ATOM      2  C   UNL     1       3.640   5.444  19.348  0.00  0.00    +0.000 A 
ATOM      3  N   UNL     1       2.889   5.924  20.293  0.00  0.00    +0.000 NA
ATOM      4  C   UNL     1       2.287   7.154  19.988  0.00  0.00    +0.000 A 
ATOM      5  N   UNL     1       1.493   7.858  20.875  0.00  0.00    +0.000 NA
ATOM      6  C   UNL     1       1.049   8.942  20.274  0.00  0.00    +0.000 A 
ATOM      7  S   UNL     1       1.605   9.195  18.661  0.00  0.00    +0.000 S 
ATOM      8  C   UNL     1       2.452   7.737  18.759  0.00  0.00    +0.000 A 
ATOM      9  C   UNL     1       3.240   7.178  17.705  0.00  0.00    +0.000 A 
ATOM     10  O   UNL     1       3.309   7.657  16.573  0.00  0.00    +0.000 OA
ENDROOT
BRANCH   1  18
ATOM     11  C   UNL     1       6.544   7.217  17.627  0.00  0.00    +0.000 C 
ATOM     12  C   UNL     1       6.073   5.959  16.945  0.00  0.00    +0.000 A 
ATOM     13  C   UNL     1       6.957   5.317  16.060  0.00  0.00    +0.000 A 
ATOM     14  C   UNL     1       6.612   4.115  15.446  0.00  0.00    +0.000 A 
ATOM     15  C   UNL     1       5.370   3.540  15.697  0.00  0.00    +0.000 A 
ATOM     16  C   UNL     1       4.470   4.164  16.566  0.00  0.00    +0.000 A 
ATOM     17 CL   UNL     1       2.914   3.426  16.752  0.00  0.00    +0.000 Cl
ATOM     18  C   UNL     1       4.807   5.377  17.202  0.00  0.00    +0.000 A 
ENDBRANCH   1  18
BRANCH   6  19
ATOM     19  S   UNL     1      -0.107  10.054  20.965  0.00  0.00    +0.000 S 
BRANCH  19  20
ATOM     20  C   UNL     1       0.274  11.647  20.186  0.00  0.00    +0.000 C 
BRANCH  20  21
ATOM     21  C   UNL     1      -0.846  11.927  19.174  0.00  0.00    +0.000 C 
BRANCH  21  22
ATOM     22  C   UNL     1      -1.911  10.828  19.143  0.00  0.00    +0.000 C 
BRANCH  22  23
ATOM     23  C   UNL     1      -2.583  10.730  17.792  0.00  0.00    +0.000 A 
ATOM     24  C   UNL     1      -3.770  11.432  17.535  0.00  0.00    +0.000 A 
ATOM     25  C   UNL     1      -4.387  11.353  16.284  0.00  0.00    +0.000 A 
ATOM     26  C   UNL     1      -3.831  10.566  15.279  0.00  0.00    +0.000 A 
ATOM     27  C   UNL     1      -2.664   9.847  15.527  0.00  0.00    +0.000 A 
ATOM     28  C   UNL     1      -2.045   9.924  16.779  0.00  0.00    +0.000 A 
ENDBRANCH  22  23
ENDBRANCH  21  22
ENDBRANCH  20  21
ENDBRANCH  19  20
ENDBRANCH   6  19
TORSDOF 6
ENDMDL
MODEL 7
REMARK VINA RESULT:      -7.0      2.503      4.142
REMARK  Name = 
REMARK  7 active torsions:
REMARK  status: ('A' for Active; 'I' for Inactive)
REMARK    1  A    between atoms: C_1  and  C_2
REMARK    2  A    between atoms: C_8  and  N_9
REMARK    3  A    between atoms: C_14  and  S_15
REMARK    4  A    between atoms: S_15  and  C_16
REMARK    5  A    between atoms: C_16  and  C_17
REMARK    6  A    between atoms: C_17  and  C_18
REMARK    7  A    between atoms: C_18  and  C_19
REMARK                            x       y       z     vdW  Elec       q    Type
REMARK                         _______ _______ _______ _____ _____    ______ ____
ROOT
ATOM      1  N   UNL     1       0.681  10.226  19.205  0.00  0.00    +0.000 N 
ATOM      2  C   UNL     1       1.365  10.143  17.999  0.00  0.00    +0.000 A 
ATOM      3  N   UNL     1       2.129   9.173  17.592  0.00  0.00    +0.000 NA
ATOM      4  C   UNL     1       2.251   8.111  18.500  0.00  0.00    +0.000 A 
ATOM      5  N   UNL     1       3.057   7.009  18.283  0.00  0.00    +0.000 NA
ATOM      6  C   UNL     1       2.918   6.178  19.296  0.00  0.00    +0.000 A 
ATOM      7  S   UNL     1       1.877   6.703  20.566  0.00  0.00    +0.000 S 
ATOM      8  C   UNL     1       1.556   8.105  19.681  0.00  0.00    +0.000 A 
ATOM      9  C   UNL     1       0.677   9.152  20.100  0.00  0.00    +0.000 A 
ATOM     10  O   UNL     1      -0.018   9.099  21.114  0.00  0.00    +0.000 OA
ENDROOT
BRANCH   1  18
ATOM     11  C   UNL     1      -2.137  10.415  18.365  0.00  0.00    +0.000 C 
ATOM     12  C   UNL     1      -1.420  11.514  19.105  0.00  0.00    +0.000 A 
ATOM     13  C   UNL     1      -2.147  12.672  19.435  0.00  0.00    +0.000 A 
ATOM     14  C   UNL     1      -1.566  13.699  20.175  0.00  0.00    +0.000 A 
ATOM     15  C   UNL     1      -0.241  13.591  20.589  0.00  0.00    +0.000 A 
ATOM     16  C   UNL     1       0.505  12.454  20.266  0.00  0.00    +0.000 A 
ATOM     17 CL   UNL     1       2.169  12.441  20.745  0.00  0.00    +0.000 Cl
ATOM     18  C   UNL     1      -0.071  11.401  19.524  0.00  0.00    +0.000 A 
ENDBRANCH   1  18
BRANCH   6  19
ATOM     19  S   UNL     1       3.635   4.588  19.378  0.00  0.00    +0.000 S 
BRANCH  19  20
ATOM     20  C   UNL     1       3.452   3.920  17.703  0.00  0.00    +0.000 C 
BRANCH  20  21
ATOM     21  C   UNL     1       4.866   3.780  17.122  0.00  0.00    +0.000 C 
BRANCH  21  22
ATOM     22  C   UNL     1       5.333   5.035  16.380  0.00  0.00    +0.000 C 
BRANCH  22  23
ATOM     23  C   UNL     1       6.354   5.816  17.177  0.00  0.00    +0.000 A 
ATOM     24  C   UNL     1       6.983   5.236  18.288  0.00  0.00    +0.000 A 
ATOM     25  C   UNL     1       7.937   5.951  19.019  0.00  0.00    +0.000 A 
ATOM     26  C   UNL     1       8.266   7.253  18.653  0.00  0.00    +0.000 A 
ATOM     27  C   UNL     1       7.633   7.848  17.564  0.00  0.00    +0.000 A 
ATOM     28  C   UNL     1       6.678   7.136  16.832  0.00  0.00    +0.000 A 
ENDBRANCH  22  23
ENDBRANCH  21  22
ENDBRANCH  20  21
ENDBRANCH  19  20
ENDBRANCH   6  19
TORSDOF 6
ENDMDL
MODEL 8
REMARK VINA RESULT:      -6.9      2.171      4.356
REMARK  Name = 
REMARK  7 active torsions:
REMARK  status: ('A' for Active; 'I' for Inactive)
REMARK    1  A    between atoms: C_1  and  C_2
REMARK    2  A    between atoms: C_8  and  N_9
REMARK    3  A    between atoms: C_14  and  S_15
REMARK    4  A    between atoms: S_15  and  C_16
REMARK    5  A    between atoms: C_16  and  C_17
REMARK    6  A    between atoms: C_17  and  C_18
REMARK    7  A    between atoms: C_18  and  C_19
REMARK                            x       y       z     vdW  Elec       q    Type
REMARK                         _______ _______ _______ _____ _____    ______ ____
ROOT
ATOM      1  N   UNL     1       0.978   9.821  19.477  0.00  0.00    +0.000 N 
ATOM      2  C   UNL     1       0.789   9.204  20.708  0.00  0.00    +0.000 A 
ATOM      3  N   UNL     1       1.217   8.033  21.076  0.00  0.00    +0.000 NA
ATOM      4  C   UNL     1       1.946   7.347  20.093  0.00  0.00    +0.000 A 
ATOM      5  N   UNL     1       2.443   6.068  20.264  0.00  0.00    +0.000 NA
ATOM      6  C   UNL     1       3.112   5.727  19.182  0.00  0.00    +0.000 A 
ATOM      7  S   UNL     1       3.123   6.886  17.904  0.00  0.00    +0.000 S 
ATOM      8  C   UNL     1       2.218   7.925  18.881  0.00  0.00    +0.000 A 
ATOM      9  C   UNL     1       1.787   9.234  18.501  0.00  0.00    +0.000 A 
ATOM     10  O   UNL     1       2.114   9.785  17.450  0.00  0.00    +0.000 OA
ENDROOT
BRANCH   1  18
ATOM     11  C   UNL     1       2.159  12.247  20.663  0.00  0.00    +0.000 C 
ATOM     12  C   UNL     1       0.925  12.266  19.797  0.00  0.00    +0.000 A 
ATOM     13  C   UNL     1       0.332  13.510  19.521  0.00  0.00    +0.000 A 
ATOM     14  C   UNL     1      -0.771  13.608  18.676  0.00  0.00    +0.000 A 
ATOM     15  C   UNL     1      -1.307  12.461  18.100  0.00  0.00    +0.000 A 
ATOM     16  C   UNL     1      -0.741  11.211  18.367  0.00  0.00    +0.000 A 
ATOM     17 CL   UNL     1      -1.524   9.828  17.680  0.00  0.00    +0.000 Cl
ATOM     18  C   UNL     1       0.381  11.095  19.215  0.00  0.00    +0.000 A 
ENDBRANCH   1  18
BRANCH   6  19
ATOM     19  S   UNL     1       4.035   4.256  19.010  0.00  0.00    +0.000 S 
BRANCH  19  20
ATOM     20  C   UNL     1       5.610   4.788  18.287  0.00  0.00    +0.000 C 
BRANCH  20  21
ATOM     21  C   UNL     1       5.563   4.419  16.797  0.00  0.00    +0.000 C 
BRANCH  21  22
ATOM     22  C   UNL     1       6.380   5.371  15.921  0.00  0.00    +0.000 C 
BRANCH  22  23
ATOM     23  C   UNL     1       6.544   4.843  14.513  0.00  0.00    +0.000 A 
ATOM     24  C   UNL     1       7.569   5.327  13.687  0.00  0.00    +0.000 A 
ATOM     25  C   UNL     1       7.732   4.833  12.390  0.00  0.00    +0.000 A 
ATOM     26  C   UNL     1       6.868   3.856  11.901  0.00  0.00    +0.000 A 
ATOM     27  C   UNL     1       5.833   3.382  12.703  0.00  0.00    +0.000 A 
ATOM     28  C   UNL     1       5.668   3.875  14.001  0.00  0.00    +0.000 A 
ENDBRANCH  22  23
ENDBRANCH  21  22
ENDBRANCH  20  21
ENDBRANCH  19  20
ENDBRANCH   6  19
TORSDOF 6
ENDMDL
MODEL 9
REMARK VINA RESULT:      -6.9      2.777      8.323
REMARK  Name = 
REMARK  7 active torsions:
REMARK  status: ('A' for Active; 'I' for Inactive)
REMARK    1  A    between atoms: C_1  and  C_2
REMARK    2  A    between atoms: C_8  and  N_9
REMARK    3  A    between atoms: C_14  and  S_15
REMARK    4  A    between atoms: S_15  and  C_16
REMARK    5  A    between atoms: C_16  and  C_17
REMARK    6  A    between atoms: C_17  and  C_18
REMARK    7  A    between atoms: C_18  and  C_19
REMARK                            x       y       z     vdW  Elec       q    Type
REMARK                         _______ _______ _______ _____ _____    ______ ____
ROOT
ATOM      1  N   UNL     1       3.948   6.145  18.009  0.00  0.00    +0.000 N 
ATOM      2  C   UNL     1       3.613   5.632  19.256  0.00  0.00    +0.000 A 
ATOM      3  N   UNL     1       2.828   6.167  20.143  0.00  0.00    +0.000 NA
ATOM      4  C   UNL     1       2.276   7.399  19.761  0.00  0.00    +0.000 A 
ATOM      5  N   UNL     1       1.459   8.157  20.579  0.00  0.00    +0.000 NA
ATOM      6  C   UNL     1       1.074   9.228  19.916  0.00  0.00    +0.000 A 
ATOM      7  S   UNL     1       1.717   9.403  18.325  0.00  0.00    +0.000 S 
ATOM      8  C   UNL     1       2.519   7.929  18.521  0.00  0.00    +0.000 A 
ATOM      9  C   UNL     1       3.344   7.311  17.531  0.00  0.00    +0.000 A 
ATOM     10  O   UNL     1       3.482   7.743  16.387  0.00  0.00    +0.000 OA
ENDROOT
BRANCH   1  18
ATOM     11  C   UNL     1       3.210   3.534  16.859  0.00  0.00    +0.000 C 
ATOM     12  C   UNL     1       4.550   4.186  16.637  0.00  0.00    +0.000 A 
ATOM     13  C   UNL     1       5.478   3.524  15.813  0.00  0.00    +0.000 A 
ATOM     14  C   UNL     1       6.710   4.100  15.512  0.00  0.00    +0.000 A 
ATOM     15  C   UNL     1       7.041   5.345  16.039  0.00  0.00    +0.000 A 
ATOM     16  C   UNL     1       6.139   6.018  16.868  0.00  0.00    +0.000 A 
ATOM     17 CL   UNL     1       6.667   7.519  17.551  0.00  0.00    +0.000 Cl
ATOM     18  C   UNL     1       4.884   5.452  17.177  0.00  0.00    +0.000 A 
ENDBRANCH   1  18
BRANCH   6  19
ATOM     19  S   UNL     1      -0.084  10.394  20.504  0.00  0.00    +0.000 S 
BRANCH  19  20
ATOM     20  C   UNL     1       0.173  11.855  19.461  0.00  0.00    +0.000 C 
BRANCH  20  21
ATOM     21  C   UNL     1      -1.193  12.540  19.308  0.00  0.00    +0.000 C 
BRANCH  21  22
ATOM     22  C   UNL     1      -2.362  11.555  19.361  0.00  0.00    +0.000 C 
BRANCH  22  23
ATOM     23  C   UNL     1      -2.815  11.139  17.979  0.00  0.00    +0.000 A 
ATOM     24  C   UNL     1      -4.034  11.601  17.462  0.00  0.00    +0.000 A 
ATOM     25  C   UNL     1      -4.450  11.230  16.180  0.00  0.00    +0.000 A 
ATOM     26  C   UNL     1      -3.657  10.387  15.405  0.00  0.00    +0.000 A 
ATOM     27  C   UNL     1      -2.454   9.905  15.914  0.00  0.00    +0.000 A 
ATOM     28  C   UNL     1      -2.036  10.275  17.197  0.00  0.00    +0.000 A 
ENDBRANCH  22  23
ENDBRANCH  21  22
ENDBRANCH  20  21
ENDBRANCH  19  20
ENDBRANCH   6  19
TORSDOF 6
ENDMDL
