MODEL 1
REMARK VINA RESULT:      -9.0      0.000      0.000
REMARK  Name = 
REMARK  10 active torsions:
REMARK  status: ('A' for Active; 'I' for Inactive)
REMARK    1  A    between atoms: C_1  and  O_2
REMARK    2  A    between atoms: O_2  and  C_3
REMARK    3  A    between atoms: C_4  and  C_5
REMARK    4  A    between atoms: C_9  and  C_10
REMARK    5  A    between atoms: C_15  and  C_16
REMARK    6  A    between atoms: C_16  and  C_17
REMARK    7  A    between atoms: C_16  and  C_21
REMARK    8  A    between atoms: C_17  and  C_18
REMARK    9  A    between atoms: C_18  and  O_20
REMARK   10  A    between atoms: C_24  and  C_25
REMARK                            x       y       z     vdW  Elec       q    Type
REMARK                         _______ _______ _______ _____ _____    ______ ____
ROOT
ATOM      1  C   UNL     1       3.017   6.386  18.016  0.00  0.00    +0.000 A 
ATOM      2  C   UNL     1       2.404   5.130  17.874  0.00  0.00    +0.000 A 
ATOM      3  C   UNL     1       3.115   4.031  17.399  0.00  0.00    +0.000 A 
ATOM      4  F   UNL     1       2.506   2.841  17.314  0.00  0.00    +0.000 F 
ATOM      5  C   UNL     1       4.452   4.140  17.026  0.00  0.00    +0.000 A 
ATOM      6  C   UNL     1       5.098   5.374  17.114  0.00  0.00    +0.000 A 
ATOM      7  C   UNL     1       4.371   6.468  17.631  0.00  0.00    +0.000 A 
ENDROOT
BRANCH   1  14
ATOM      8  C   UNL     1       1.853   7.630  19.967  0.00  0.00    +0.000 A 
ATOM      9  C   UNL     1       1.135   8.762  20.432  0.00  0.00    +0.000 A 
ATOM     10  C   UNL     1       0.601   8.969  21.821  0.00  0.00    +0.000 C 
ATOM     11  C   UNL     1       0.848   9.801  19.531  0.00  0.00    +0.000 A 
ATOM     12  C   UNL     1       1.279   9.757  18.213  0.00  0.00    +0.000 A 
ATOM     13  C   UNL     1       1.974   8.643  17.757  0.00  0.00    +0.000 A 
ATOM     14  C   UNL     1       2.283   7.555  18.604  0.00  0.00    +0.000 A 
BRANCH   8  16
ATOM     15  C   UNL     1       1.517   5.453  20.954  0.00  0.00    +0.000 C 
ATOM     16  O   UNL     1       2.309   6.620  20.781  0.00  0.00    +0.000 OA
ENDBRANCH   8  16
ENDBRANCH   1  14
BRANCH   6  17
ATOM     17  C   UNL     1       6.557   5.571  16.693  0.00  0.00    +0.000 C 
BRANCH  17  18
ATOM     18  C   UNL     1       6.847   5.079  15.279  0.00  0.00    +0.000 A 
ATOM     19  N   UNL     1       7.833   5.540  14.535  0.00  0.00    +0.000 NA
ATOM     20  C   UNL     1       7.803   4.935  13.292  0.00  0.00    +0.000 A 
ATOM     21  C   UNL     1       6.788   4.024  13.097  0.00  0.00    +0.000 A 
ATOM     22  C   UNL     1       6.460   3.228  11.886  0.00  0.00    +0.000 C 
ATOM     23  S   UNL     1       5.853   3.895  14.529  0.00  0.00    +0.000 S 
ENDBRANCH  17  18
BRANCH  17  24
ATOM     24  C   UNL     1       7.539   4.875  17.648  0.00  0.00    +0.000 C 
BRANCH  24  25
ATOM     25  C   UNL     1       7.714   5.597  18.952  0.00  0.00    +0.000 C 
ATOM     26  O   UNL     1       7.357   5.181  20.044  0.00  0.00    +0.000 OA
BRANCH  25  27
ATOM     27  O   UNL     1       8.252   6.828  18.794  0.00  0.00    +0.000 OA
ATOM     28  H   UNL     1       8.099   7.440  19.539  0.00  0.00    +0.000 HD
ENDBRANCH  25  27
ENDBRANCH  24  25
ENDBRANCH  17  24
ENDBRANCH   6  17
TORSDOF 7
ENDMDL
MODEL 2
REMARK VINA RESULT:      -8.8      1.883      3.522
REMARK  Name = 
REMARK  10 active torsions:
REMARK  status: ('A' for Active; 'I' for Inactive)
REMARK    1  A    between atoms: C_1  and  O_2
REMARK    2  A    between atoms: O_2  and  C_3
REMARK    3  A    between atoms: C_4  and  C_5
REMARK    4  A    between atoms: C_9  and  C_10
REMARK    5  A    between atoms: C_15  and  C_16
REMARK    6  A    between atoms: C_16  and  C_17
REMARK    7  A    between atoms: C_16  and  C_21
REMARK    8  A    between atoms: C_17  and  C_18
REMARK    9  A    between atoms: C_18  and  O_20
REMARK   10  A    between atoms: C_24  and  C_25
REMARK                            x       y       z     vdW  Elec       q    Type
REMARK                         _______ _______ _______ _____ _____    ______ ____
ROOT
ATOM      1  C   UNL     1       3.124   5.333  18.238  0.00  0.00    +0.000 A 
ATOM      2  C   UNL     1       2.510   6.583  18.055  0.00  0.00    +0.000 A 
ATOM      3  C   UNL     1       3.183   7.633  17.436  0.00  0.00    +0.000 A 
ATOM      4  F   UNL     1       2.551   8.799  17.247  0.00  0.00    +0.000 F 
ATOM      5  C   UNL     1       4.496   7.492  16.996  0.00  0.00    +0.000 A 
ATOM      6  C   UNL     1       5.164   6.281  17.185  0.00  0.00    +0.000 A 
ATOM      7  C   UNL     1       4.453   5.217  17.781  0.00  0.00    +0.000 A 
ENDROOT
BRANCH   1  14
ATOM      8  C   UNL     1       2.126   4.005  20.226  0.00  0.00    +0.000 A 
ATOM      9  C   UNL     1       1.441   2.857  20.700  0.00  0.00    +0.000 A 
ATOM     10  C   UNL     1       1.127   2.536  22.134  0.00  0.00    +0.000 C 
ATOM     11  C   UNL     1       1.023   1.886  19.774  0.00  0.00    +0.000 A 
ATOM     12  C   UNL     1       1.237   2.042  18.413  0.00  0.00    +0.000 A 
ATOM     13  C   UNL     1       1.917   3.163  17.951  0.00  0.00    +0.000 A 
ATOM     14  C   UNL     1       2.379   4.172  18.827  0.00  0.00    +0.000 A 
BRANCH   8  16
ATOM     15  C   UNL     1       1.527   6.140  21.179  0.00  0.00    +0.000 C 
ATOM     16  O   UNL     1       2.461   5.082  21.013  0.00  0.00    +0.000 OA
ENDBRANCH   8  16
ENDBRANCH   1  14
BRANCH   6  17
ATOM     17  C   UNL     1       6.617   6.066  16.751  0.00  0.00    +0.000 C 
BRANCH  17  18
ATOM     18  C   UNL     1       6.745   5.354  15.409  0.00  0.00    +0.000 A 
ATOM     19  N   UNL     1       7.756   5.535  14.582  0.00  0.00    +0.000 NA
ATOM     20  C   UNL     1       7.559   4.789  13.434  0.00  0.00    +0.000 A 
ATOM     21  C   UNL     1       6.395   4.055  13.392  0.00  0.00    +0.000 A 
ATOM     22  C   UNL     1       5.874   3.180  12.311  0.00  0.00    +0.000 C 
ATOM     23  S   UNL     1       5.527   4.276  14.855  0.00  0.00    +0.000 S 
ENDBRANCH  17  18
BRANCH  17  24
ATOM     24  C   UNL     1       7.425   5.272  17.790  0.00  0.00    +0.000 C 
BRANCH  24  25
ATOM     25  C   UNL     1       7.929   6.116  18.923  0.00  0.00    +0.000 C 
ATOM     26  O   UNL     1       8.369   7.251  18.818  0.00  0.00    +0.000 OA
BRANCH  25  27
ATOM     27  O   UNL     1       7.923   5.455  20.103  0.00  0.00    +0.000 OA
ATOM     28  H   UNL     1       8.195   4.518  20.049  0.00  0.00    +0.000 HD
ENDBRANCH  25  27
ENDBRANCH  24  25
ENDBRANCH  17  24
ENDBRANCH   6  17
TORSDOF 7
ENDMDL
MODEL 3
REMARK VINA RESULT:      -8.5      2.241      3.812
REMARK  Name = 
REMARK  10 active torsions:
REMARK  status: ('A' for Active; 'I' for Inactive)
REMARK    1  A    between atoms: C_1  and  O_2
REMARK    2  A    between atoms: O_2  and  C_3
REMARK    3  A    between atoms: C_4  and  C_5
REMARK    4  A    between atoms: C_9  and  C_10
REMARK    5  A    between atoms: C_15  and  C_16
REMARK    6  A    between atoms: C_16  and  C_17
REMARK    7  A    between atoms: C_16  and  C_21
REMARK    8  A    between atoms: C_17  and  C_18
REMARK    9  A    between atoms: C_18  and  O_20
REMARK   10  A    between atoms: C_24  and  C_25
REMARK                            x       y       z     vdW  Elec       q    Type
REMARK                         _______ _______ _______ _____ _____    ______ ____
ROOT
ATOM      1  C   UNL     1       3.295   5.652  18.617  0.00  0.00    +0.000 A 
ATOM      2  C   UNL     1       2.662   6.864  18.296  0.00  0.00    +0.000 A 
ATOM      3  C   UNL     1       3.290   7.817  17.500  0.00  0.00    +0.000 A 
ATOM      4  F   UNL     1       2.639   8.944  17.185  0.00  0.00    +0.000 F 
ATOM      5  C   UNL     1       4.578   7.616  17.011  0.00  0.00    +0.000 A 
ATOM      6  C   UNL     1       5.267   6.444  17.330  0.00  0.00    +0.000 A 
ATOM      7  C   UNL     1       4.598   5.474  18.108  0.00  0.00    +0.000 A 
ENDROOT
BRANCH   1  14
ATOM      8  C   UNL     1       1.865   3.502  18.818  0.00  0.00    +0.000 A 
ATOM      9  C   UNL     1       1.204   2.553  19.640  0.00  0.00    +0.000 A 
ATOM     10  C   UNL     1       0.384   1.385  19.170  0.00  0.00    +0.000 C 
ATOM     11  C   UNL     1       1.272   2.700  21.036  0.00  0.00    +0.000 A 
ATOM     12  C   UNL     1       1.995   3.728  21.622  0.00  0.00    +0.000 A 
ATOM     13  C   UNL     1       2.634   4.662  20.815  0.00  0.00    +0.000 A 
ATOM     14  C   UNL     1       2.595   4.585  19.404  0.00  0.00    +0.000 A 
BRANCH   8  16
ATOM     15  C   UNL     1       2.913   2.460  16.910  0.00  0.00    +0.000 C 
ATOM     16  O   UNL     1       1.984   3.388  17.453  0.00  0.00    +0.000 OA
ENDBRANCH   8  16
ENDBRANCH   1  14
BRANCH   6  17
ATOM     17  C   UNL     1       6.694   6.172  16.850  0.00  0.00    +0.000 C 
BRANCH  17  18
ATOM     18  C   UNL     1       6.751   5.437  15.515  0.00  0.00    +0.000 A 
ATOM     19  N   UNL     1       7.753   5.547  14.665  0.00  0.00    +0.000 NA
ATOM     20  C   UNL     1       7.487   4.801  13.531  0.00  0.00    +0.000 A 
ATOM     21  C   UNL     1       6.281   4.137  13.523  0.00  0.00    +0.000 A 
ATOM     22  C   UNL     1       5.685   3.283  12.465  0.00  0.00    +0.000 C 
ATOM     23  S   UNL     1       5.459   4.428  15.001  0.00  0.00    +0.000 S 
ENDBRANCH  17  18
BRANCH  17  24
ATOM     24  C   UNL     1       7.509   5.363  17.872  0.00  0.00    +0.000 C 
BRANCH  24  25
ATOM     25  C   UNL     1       8.007   6.189  19.022  0.00  0.00    +0.000 C 
ATOM     26  O   UNL     1       8.516   7.296  18.930  0.00  0.00    +0.000 OA
BRANCH  25  27
ATOM     27  O   UNL     1       7.908   5.541  20.205  0.00  0.00    +0.000 OA
ATOM     28  H   UNL     1       8.572   4.838  20.344  0.00  0.00    +0.000 HD
ENDBRANCH  25  27
ENDBRANCH  24  25
ENDBRANCH  17  24
ENDBRANCH   6  17
TORSDOF 7
ENDMDL
MODEL 4
REMARK VINA RESULT:      -8.3      4.577      8.520
REMARK  Name = 
REMARK  10 active torsions:
REMARK  status: ('A' for Active; 'I' for Inactive)
REMARK    1  A    between atoms: C_1  and  O_2
REMARK    2  A    between atoms: O_2  and  C_3
REMARK    3  A    between atoms: C_4  and  C_5
REMARK    4  A    between atoms: C_9  and  C_10
REMARK    5  A    between atoms: C_15  and  C_16
REMARK    6  A    between atoms: C_16  and  C_17
REMARK    7  A    between atoms: C_16  and  C_21
REMARK    8  A    between atoms: C_17  and  C_18
REMARK    9  A    between atoms: C_18  and  O_20
REMARK   10  A    between atoms: C_24  and  C_25
REMARK                            x       y       z     vdW  Elec       q    Type
REMARK                         _______ _______ _______ _____ _____    ______ ____
ROOT
ATOM      1  C   UNL     1       2.165   7.730  18.886  0.00  0.00    +0.000 A 
ATOM      2  C   UNL     1       2.045   7.690  20.286  0.00  0.00    +0.000 A 
ATOM      3  C   UNL     1       1.210   8.574  20.963  0.00  0.00    +0.000 A 
ATOM      4  F   UNL     1       1.094   8.480  22.294  0.00  0.00    +0.000 F 
ATOM      5  C   UNL     1       0.479   9.545  20.283  0.00  0.00    +0.000 A 
ATOM      6  C   UNL     1       0.589   9.650  18.895  0.00  0.00    +0.000 A 
ATOM      7  C   UNL     1       1.413   8.722  18.223  0.00  0.00    +0.000 A 
ENDROOT
BRANCH   1  14
ATOM      8  C   UNL     1       2.763   5.317  18.157  0.00  0.00    +0.000 A 
ATOM      9  C   UNL     1       3.621   4.439  17.448  0.00  0.00    +0.000 A 
ATOM     10  C   UNL     1       3.515   2.940  17.393  0.00  0.00    +0.000 C 
ATOM     11  C   UNL     1       4.707   4.978  16.737  0.00  0.00    +0.000 A 
ATOM     12  C   UNL     1       4.935   6.345  16.689  0.00  0.00    +0.000 A 
ATOM     13  C   UNL     1       4.098   7.204  17.393  0.00  0.00    +0.000 A 
ATOM     14  C   UNL     1       2.997   6.729  18.141  0.00  0.00    +0.000 A 
BRANCH   8  16
ATOM     15  C   UNL     1       1.662   4.204  19.994  0.00  0.00    +0.000 C 
ATOM     16  O   UNL     1       1.597   4.925  18.772  0.00  0.00    +0.000 OA
ENDBRANCH   8  16
ENDBRANCH   1  14
BRANCH   6  17
ATOM     17  C   UNL     1      -0.163  10.712  18.089  0.00  0.00    +0.000 C 
BRANCH  17  18
ATOM     18  C   UNL     1       0.168  12.138  18.516  0.00  0.00    +0.000 A 
ATOM     19  N   UNL     1      -0.745  13.060  18.746  0.00  0.00    +0.000 NA
ATOM     20  C   UNL     1      -0.131  14.258  19.064  0.00  0.00    +0.000 A 
ATOM     21  C   UNL     1       1.247  14.240  19.063  0.00  0.00    +0.000 A 
ATOM     22  C   UNL     1       2.201  15.345  19.331  0.00  0.00    +0.000 C 
ATOM     23  S   UNL     1       1.797  12.660  18.682  0.00  0.00    +0.000 S 
ENDBRANCH  17  18
BRANCH  17  24
ATOM     24  C   UNL     1      -1.688  10.535  18.170  0.00  0.00    +0.000 C 
BRANCH  24  25
ATOM     25  C   UNL     1      -2.358  10.538  16.827  0.00  0.00    +0.000 C 
ATOM     26  O   UNL     1      -2.896   9.573  16.304  0.00  0.00    +0.000 OA
BRANCH  25  27
ATOM     27  O   UNL     1      -2.242  11.726  16.192  0.00  0.00    +0.000 OA
ATOM     28  H   UNL     1      -1.691  11.707  15.386  0.00  0.00    +0.000 HD
ENDBRANCH  25  27
ENDBRANCH  24  25
ENDBRANCH  17  24
ENDBRANCH   6  17
TORSDOF 7
ENDMDL
MODEL 5
REMARK VINA RESULT:      -8.2      2.156      3.385
REMARK  Name = 
REMARK  10 active torsions:
REMARK  status: ('A' for Active; 'I' for Inactive)
REMARK    1  A    between atoms: C_1  and  O_2
REMARK    2  A    between atoms: O_2  and  C_3
REMARK    3  A    between atoms: C_4  and  C_5
REMARK    4  A    between atoms: C_9  and  C_10
REMARK    5  A    between atoms: C_15  and  C_16
REMARK    6  A    between atoms: C_16  and  C_17
REMARK    7  A    between atoms: C_16  and  C_21
REMARK    8  A    between atoms: C_17  and  C_18
REMARK    9  A    between atoms: C_18  and  O_20
REMARK   10  A    between atoms: C_24  and  C_25
REMARK                            x       y       z     vdW  Elec       q    Type
REMARK                         _______ _______ _______ _____ _____    ______ ____
ROOT
ATOM      1  C   UNL     1       2.596   6.076  18.070  0.00  0.00    +0.000 A 
ATOM      2  C   UNL     1       1.880   4.869  18.011  0.00  0.00    +0.000 A 
ATOM      3  C   UNL     1       2.458   3.713  17.495  0.00  0.00    +0.000 A 
ATOM      4  F   UNL     1       1.755   2.573  17.490  0.00  0.00    +0.000 F 
ATOM      5  C   UNL     1       3.758   3.713  16.997  0.00  0.00    +0.000 A 
ATOM      6  C   UNL     1       4.502   4.895  17.000  0.00  0.00    +0.000 A 
ATOM      7  C   UNL     1       3.911   6.048  17.561  0.00  0.00    +0.000 A 
ENDROOT
BRANCH   1  14
ATOM      8  C   UNL     1       1.768   7.451  20.104  0.00  0.00    +0.000 A 
ATOM      9  C   UNL     1       1.180   8.639  20.611  0.00  0.00    +0.000 A 
ATOM     10  C   UNL     1       0.844   8.923  22.048  0.00  0.00    +0.000 C 
ATOM     11  C   UNL     1       0.836   9.663  19.712  0.00  0.00    +0.000 A 
ATOM     12  C   UNL     1       1.087   9.550  18.353  0.00  0.00    +0.000 A 
ATOM     13  C   UNL     1       1.654   8.381  17.857  0.00  0.00    +0.000 A 
ATOM     14  C   UNL     1       2.011   7.305  18.701  0.00  0.00    +0.000 A 
BRANCH   8  16
ATOM     15  C   UNL     1       1.518   5.250  21.061  0.00  0.00    +0.000 C 
ATOM     16  O   UNL     1       2.270   6.443  20.892  0.00  0.00    +0.000 OA
ENDBRANCH   8  16
ENDBRANCH   1  14
BRANCH   6  17
ATOM     17  C   UNL     1       5.925   4.973  16.443  0.00  0.00    +0.000 C 
BRANCH  17  18
ATOM     18  C   UNL     1       6.860   5.823  17.296  0.00  0.00    +0.000 A 
ATOM     19  N   UNL     1       7.475   5.372  18.372  0.00  0.00    +0.000 NA
ATOM     20  C   UNL     1       8.209   6.392  18.952  0.00  0.00    +0.000 A 
ATOM     21  C   UNL     1       8.137   7.613  18.319  0.00  0.00    +0.000 A 
ATOM     22  C   UNL     1       8.772   8.903  18.690  0.00  0.00    +0.000 C 
ATOM     23  S   UNL     1       7.142   7.477  16.928  0.00  0.00    +0.000 S 
ENDBRANCH  17  18
BRANCH  17  24
ATOM     24  C   UNL     1       5.960   5.525  15.008  0.00  0.00    +0.000 C 
BRANCH  24  25
ATOM     25  C   UNL     1       6.900   4.778  14.107  0.00  0.00    +0.000 C 
ATOM     26  O   UNL     1       6.668   3.697  13.585  0.00  0.00    +0.000 OA
BRANCH  25  27
ATOM     27  O   UNL     1       8.097   5.393  13.984  0.00  0.00    +0.000 OA
ATOM     28  H   UNL     1       8.605   5.471  14.814  0.00  0.00    +0.000 HD
ENDBRANCH  25  27
ENDBRANCH  24  25
ENDBRANCH  17  24
ENDBRANCH   6  17
TORSDOF 7
ENDMDL
MODEL 6
REMARK VINA RESULT:      -8.1      4.634      8.688
REMARK  Name = 
REMARK  10 active torsions:
REMARK  status: ('A' for Active; 'I' for Inactive)
REMARK    1  A    between atoms: C_1  and  O_2
REMARK    2  A    between atoms: O_2  and  C_3
REMARK    3  A    between atoms: C_4  and  C_5
REMARK    4  A    between atoms: C_9  and  C_10
REMARK    5  A    between atoms: C_15  and  C_16
REMARK    6  A    between atoms: C_16  and  C_17
REMARK    7  A    between atoms: C_16  and  C_21
REMARK    8  A    between atoms: C_17  and  C_18
REMARK    9  A    between atoms: C_18  and  O_20
REMARK   10  A    between atoms: C_24  and  C_25
REMARK                            x       y       z     vdW  Elec       q    Type
REMARK                         _______ _______ _______ _____ _____    ______ ____
ROOT
ATOM      1  C   UNL     1       2.155   7.746  18.905  0.00  0.00    +0.000 A 
ATOM      2  C   UNL     1       2.047   7.696  20.305  0.00  0.00    +0.000 A 
ATOM      3  C   UNL     1       1.212   8.569  20.996  0.00  0.00    +0.000 A 
ATOM      4  F   UNL     1       1.109   8.466  22.327  0.00  0.00    +0.000 F 
ATOM      5  C   UNL     1       0.469   9.540  20.329  0.00  0.00    +0.000 A 
ATOM      6  C   UNL     1       0.566   9.655  18.941  0.00  0.00    +0.000 A 
ATOM      7  C   UNL     1       1.390   8.737  18.255  0.00  0.00    +0.000 A 
ENDROOT
BRANCH   1  14
ATOM      8  C   UNL     1       2.774   5.340  18.169  0.00  0.00    +0.000 A 
ATOM      9  C   UNL     1       3.631   4.473  17.445  0.00  0.00    +0.000 A 
ATOM     10  C   UNL     1       3.547   2.973  17.396  0.00  0.00    +0.000 C 
ATOM     11  C   UNL     1       4.696   5.026  16.713  0.00  0.00    +0.000 A 
ATOM     12  C   UNL     1       4.903   6.397  16.659  0.00  0.00    +0.000 A 
ATOM     13  C   UNL     1       4.067   7.244  17.377  0.00  0.00    +0.000 A 
ATOM     14  C   UNL     1       2.987   6.756  18.146  0.00  0.00    +0.000 A 
BRANCH   8  16
ATOM     15  C   UNL     1       1.725   4.205  20.023  0.00  0.00    +0.000 C 
ATOM     16  O   UNL     1       1.626   4.933  18.807  0.00  0.00    +0.000 OA
ENDBRANCH   8  16
ENDBRANCH   1  14
BRANCH   6  17
ATOM     17  C   UNL     1      -0.200  10.717  18.148  0.00  0.00    +0.000 C 
BRANCH  17  18
ATOM     18  C   UNL     1      -0.021  12.127  18.701  0.00  0.00    +0.000 A 
ATOM     19  N   UNL     1       1.094  12.819  18.581  0.00  0.00    +0.000 NA
ATOM     20  C   UNL     1       0.960  14.035  19.228  0.00  0.00    +0.000 A 
ATOM     21  C   UNL     1      -0.253  14.253  19.842  0.00  0.00    +0.000 A 
ATOM     22  C   UNL     1      -0.709  15.425  20.633  0.00  0.00    +0.000 C 
ATOM     23  S   UNL     1      -1.278  12.903  19.578  0.00  0.00    +0.000 S 
ENDBRANCH  17  18
BRANCH  17  24
ATOM     24  C   UNL     1      -1.708  10.421  18.082  0.00  0.00    +0.000 C 
BRANCH  24  25
ATOM     25  C   UNL     1      -2.262  10.470  16.688  0.00  0.00    +0.000 C 
ATOM     26  O   UNL     1      -2.612   9.499  16.033  0.00  0.00    +0.000 OA
BRANCH  25  27
ATOM     27  O   UNL     1      -2.269  11.721  16.177  0.00  0.00    +0.000 OA
ATOM     28  H   UNL     1      -3.143  12.155  16.167  0.00  0.00    +0.000 HD
ENDBRANCH  25  27
ENDBRANCH  24  25
ENDBRANCH  17  24
ENDBRANCH   6  17
TORSDOF 7
ENDMDL
MODEL 7
REMARK VINA RESULT:      -8.0      3.142      3.961
REMARK  Name = 
REMARK  10 active torsions:
REMARK  status: ('A' for Active; 'I' for Inactive)
REMARK    1  A    between atoms: C_1  and  O_2
REMARK    2  A    between atoms: O_2  and  C_3
REMARK    3  A    between atoms: C_4  and  C_5
REMARK    4  A    between atoms: C_9  and  C_10
REMARK    5  A    between atoms: C_15  and  C_16
REMARK    6  A    between atoms: C_16  and  C_17
REMARK    7  A    between atoms: C_16  and  C_21
REMARK    8  A    between atoms: C_17  and  C_18
REMARK    9  A    between atoms: C_18  and  O_20
REMARK   10  A    between atoms: C_24  and  C_25
REMARK                            x       y       z     vdW  Elec       q    Type
REMARK                         _______ _______ _______ _____ _____    ______ ____
ROOT
ATOM      1  C   UNL     1       2.202   6.585  19.723  0.00  0.00    +0.000 A 
ATOM      2  C   UNL     1       1.490   5.779  20.627  0.00  0.00    +0.000 A 
ATOM      3  C   UNL     1       1.928   4.499  20.952  0.00  0.00    +0.000 A 
ATOM      4  F   UNL     1       1.241   3.776  21.846  0.00  0.00    +0.000 F 
ATOM      5  C   UNL     1       3.075   3.958  20.378  0.00  0.00    +0.000 A 
ATOM      6  C   UNL     1       3.801   4.704  19.446  0.00  0.00    +0.000 A 
ATOM      7  C   UNL     1       3.361   6.013  19.157  0.00  0.00    +0.000 A 
ENDROOT
BRANCH   1  14
ATOM      8  C   UNL     1       1.093   8.838  20.358  0.00  0.00    +0.000 A 
ATOM      9  C   UNL     1       0.706  10.150  19.985  0.00  0.00    +0.000 A 
ATOM     10  C   UNL     1      -0.043  11.135  20.838  0.00  0.00    +0.000 C 
ATOM     11  C   UNL     1       1.008  10.605  18.690  0.00  0.00    +0.000 A 
ATOM     12  C   UNL     1       1.700   9.812  17.786  0.00  0.00    +0.000 A 
ATOM     13  C   UNL     1       2.069   8.522  18.150  0.00  0.00    +0.000 A 
ATOM     14  C   UNL     1       1.785   7.995  19.431  0.00  0.00    +0.000 A 
BRANCH   8  16
ATOM     15  C   UNL     1       1.520   9.063  22.722  0.00  0.00    +0.000 C 
ATOM     16  O   UNL     1       0.976   8.333  21.632  0.00  0.00    +0.000 OA
ENDBRANCH   8  16
ENDBRANCH   1  14
BRANCH   6  17
ATOM     17  C   UNL     1       5.054   4.160  18.755  0.00  0.00    +0.000 C 
BRANCH  17  18
ATOM     18  C   UNL     1       6.167   5.195  18.626  0.00  0.00    +0.000 A 
ATOM     19  N   UNL     1       7.231   5.220  19.404  0.00  0.00    +0.000 NA
ATOM     20  C   UNL     1       8.027   6.303  19.072  0.00  0.00    +0.000 A 
ATOM     21  C   UNL     1       7.556   7.097  18.050  0.00  0.00    +0.000 A 
ATOM     22  C   UNL     1       8.144   8.333  17.473  0.00  0.00    +0.000 C 
ATOM     23  S   UNL     1       6.080   6.453  17.459  0.00  0.00    +0.000 S 
ENDBRANCH  17  18
BRANCH  17  24
ATOM     24  C   UNL     1       4.755   3.609  17.352  0.00  0.00    +0.000 C 
BRANCH  24  25
ATOM     25  C   UNL     1       3.616   2.632  17.328  0.00  0.00    +0.000 C 
ATOM     26  O   UNL     1       2.482   2.878  16.946  0.00  0.00    +0.000 OA
BRANCH  25  27
ATOM     27  O   UNL     1       3.950   1.434  17.859  0.00  0.00    +0.000 OA
ATOM     28  H   UNL     1       4.564   0.902  17.316  0.00  0.00    +0.000 HD
ENDBRANCH  25  27
ENDBRANCH  24  25
ENDBRANCH  17  24
ENDBRANCH   6  17
TORSDOF 7
ENDMDL
MODEL 8
REMARK VINA RESULT:      -8.0      3.163      5.213
REMARK  Name = 
REMARK  10 active torsions:
REMARK  status: ('A' for Active; 'I' for Inactive)
REMARK    1  A    between atoms: C_1  and  O_2
REMARK    2  A    between atoms: O_2  and  C_3
REMARK    3  A    between atoms: C_4  and  C_5
REMARK    4  A    between atoms: C_9  and  C_10
REMARK    5  A    between atoms: C_15  and  C_16
REMARK    6  A    between atoms: C_16  and  C_17
REMARK    7  A    between atoms: C_16  and  C_21
REMARK    8  A    between atoms: C_17  and  C_18
REMARK    9  A    between atoms: C_18  and  O_20
REMARK   10  A    between atoms: C_24  and  C_25
REMARK                            x       y       z     vdW  Elec       q    Type
REMARK                         _______ _______ _______ _____ _____    ______ ____
ROOT
ATOM      1  C   UNL     1       1.015   9.062  20.230  0.00  0.00    +0.000 A 
ATOM      2  C   UNL     1       1.364   9.602  18.980  0.00  0.00    +0.000 A 
ATOM      3  C   UNL     1       2.111   8.870  18.062  0.00  0.00    +0.000 A 
ATOM      4  F   UNL     1       2.391   9.406  16.867  0.00  0.00    +0.000 F 
ATOM      5  C   UNL     1       2.561   7.585  18.354  0.00  0.00    +0.000 A 
ATOM      6  C   UNL     1       2.272   7.015  19.595  0.00  0.00    +0.000 A 
ATOM      7  C   UNL     1       1.482   7.759  20.499  0.00  0.00    +0.000 A 
ENDROOT
BRANCH   1  14
ATOM      8  C   UNL     1      -0.626  10.969  20.848  0.00  0.00    +0.000 A 
ATOM      9  C   UNL     1      -1.402  11.634  21.831  0.00  0.00    +0.000 A 
ATOM     10  C   UNL     1      -2.233  12.869  21.625  0.00  0.00    +0.000 C 
ATOM     11  C   UNL     1      -1.399  11.140  23.147  0.00  0.00    +0.000 A 
ATOM     12  C   UNL     1      -0.683  10.004  23.493  0.00  0.00    +0.000 A 
ATOM     13  C   UNL     1       0.085   9.359  22.530  0.00  0.00    +0.000 A 
ATOM     14  C   UNL     1       0.141   9.809  21.191  0.00  0.00    +0.000 A 
BRANCH   8  16
ATOM     15  C   UNL     1      -1.825  10.983  18.753  0.00  0.00    +0.000 C 
ATOM     16  O   UNL     1      -0.656  11.272  19.507  0.00  0.00    +0.000 OA
ENDBRANCH   8  16
ENDBRANCH   1  14
BRANCH   6  17
ATOM     17  C   UNL     1       2.759   5.619  19.993  0.00  0.00    +0.000 C 
BRANCH  17  18
ATOM     18  C   UNL     1       3.876   5.094  19.097  0.00  0.00    +0.000 A 
ATOM     19  N   UNL     1       5.156   5.185  19.401  0.00  0.00    +0.000 NA
ATOM     20  C   UNL     1       5.918   4.665  18.370  0.00  0.00    +0.000 A 
ATOM     21  C   UNL     1       5.212   4.193  17.286  0.00  0.00    +0.000 A 
ATOM     22  C   UNL     1       5.717   3.605  16.019  0.00  0.00    +0.000 C 
ATOM     23  S   UNL     1       3.531   4.374  17.576  0.00  0.00    +0.000 S 
ENDBRANCH  17  18
BRANCH  17  24
ATOM     24  C   UNL     1       1.624   4.583  19.992  0.00  0.00    +0.000 C 
BRANCH  24  25
ATOM     25  C   UNL     1       1.888   3.411  20.891  0.00  0.00    +0.000 C 
ATOM     26  O   UNL     1       2.223   3.482  22.064  0.00  0.00    +0.000 OA
BRANCH  25  27
ATOM     27  O   UNL     1       1.794   2.228  20.242  0.00  0.00    +0.000 OA
ATOM     28  H   UNL     1       2.432   1.549  20.534  0.00  0.00    +0.000 HD
ENDBRANCH  25  27
ENDBRANCH  24  25
ENDBRANCH  17  24
ENDBRANCH   6  17
TORSDOF 7
ENDMDL
MODEL 9
REMARK VINA RESULT:      -7.9      3.244      5.188
REMARK  Name = 
REMARK  10 active torsions:
REMARK  status: ('A' for Active; 'I' for Inactive)
REMARK    1  A    between atoms: C_1  and  O_2
REMARK    2  A    between atoms: O_2  and  C_3
REMARK    3  A    between atoms: C_4  and  C_5
REMARK    4  A    between atoms: C_9  and  C_10
REMARK    5  A    between atoms: C_15  and  C_16
REMARK    6  A    between atoms: C_16  and  C_17
REMARK    7  A    between atoms: C_16  and  C_21
REMARK    8  A    between atoms: C_17  and  C_18
REMARK    9  A    between atoms: C_18  and  O_20
REMARK   10  A    between atoms: C_24  and  C_25
REMARK                            x       y       z     vdW  Elec       q    Type
REMARK                         _______ _______ _______ _____ _____    ______ ____
ROOT
ATOM      1  C   UNL     1       1.139   8.948  20.152  0.00  0.00    +0.000 A 
ATOM      2  C   UNL     1       1.457   9.542  18.919  0.00  0.00    +0.000 A 
ATOM      3  C   UNL     1       2.192   8.856  17.956  0.00  0.00    +0.000 A 
ATOM      4  F   UNL     1       2.443   9.443  16.779  0.00  0.00    +0.000 F 
ATOM      5  C   UNL     1       2.658   7.564  18.186  0.00  0.00    +0.000 A 
ATOM      6  C   UNL     1       2.400   6.941  19.408  0.00  0.00    +0.000 A 
ATOM      7  C   UNL     1       1.623   7.639  20.357  0.00  0.00    +0.000 A 
ENDROOT
BRANCH   1  14
ATOM      8  C   UNL     1      -0.520  10.801  20.876  0.00  0.00    +0.000 A 
ATOM      9  C   UNL     1      -1.281  11.419  21.901  0.00  0.00    +0.000 A 
ATOM     10  C   UNL     1      -2.141  12.643  21.757  0.00  0.00    +0.000 C 
ATOM     11  C   UNL     1      -1.230  10.885  23.200  0.00  0.00    +0.000 A 
ATOM     12  C   UNL     1      -0.481   9.754  23.490  0.00  0.00    +0.000 A 
ATOM     13  C   UNL     1       0.271   9.155  22.486  0.00  0.00    +0.000 A 
ATOM     14  C   UNL     1       0.279   9.647  21.161  0.00  0.00    +0.000 A 
BRANCH   8  16
ATOM     15  C   UNL     1      -1.776  10.846  18.815  0.00  0.00    +0.000 C 
ATOM     16  O   UNL     1      -0.595  11.145  19.547  0.00  0.00    +0.000 OA
ENDBRANCH   8  16
ENDBRANCH   1  14
BRANCH   6  17
ATOM     17  C   UNL     1       2.907   5.535  19.737  0.00  0.00    +0.000 C 
BRANCH  17  18
ATOM     18  C   UNL     1       4.048   5.079  18.834  0.00  0.00    +0.000 A 
ATOM     19  N   UNL     1       3.876   4.317  17.772  0.00  0.00    +0.000 NA
ATOM     20  C   UNL     1       5.102   4.037  17.194  0.00  0.00    +0.000 A 
ATOM     21  C   UNL     1       6.197   4.580  17.829  0.00  0.00    +0.000 A 
ATOM     22  C   UNL     1       7.637   4.454  17.489  0.00  0.00    +0.000 C 
ATOM     23  S   UNL     1       5.677   5.502  19.179  0.00  0.00    +0.000 S 
ENDBRANCH  17  18
BRANCH  17  24
ATOM     24  C   UNL     1       1.792   4.479  19.662  0.00  0.00    +0.000 C 
BRANCH  24  25
ATOM     25  C   UNL     1       1.927   3.397  20.693  0.00  0.00    +0.000 C 
ATOM     26  O   UNL     1       2.981   2.909  21.071  0.00  0.00    +0.000 OA
BRANCH  25  27
ATOM     27  O   UNL     1       0.729   2.940  21.124  0.00  0.00    +0.000 OA
ATOM     28  H   UNL     1       0.308   3.485  21.816  0.00  0.00    +0.000 HD
ENDBRANCH  25  27
ENDBRANCH  24  25
ENDBRANCH  17  24
ENDBRANCH   6  17
TORSDOF 7
ENDMDL
