MODEL 1
REMARK VINA RESULT:      -8.6      0.000      0.000
REMARK  Name = 
REMARK  10 active torsions:
REMARK  status: ('A' for Active; 'I' for Inactive)
REMARK    1  A    between atoms: C_1  and  O_2
REMARK    2  A    between atoms: O_2  and  C_3
REMARK    3  A    between atoms: C_6  and  C_7
REMARK    4  A    between atoms: C_7  and  N_8
REMARK    5  A    between atoms: C_11  and  C_12
REMARK    6  A    between atoms: C_12  and  C_13
REMARK    7  A    between atoms: C_13  and  C_14
REMARK    8  A    between atoms: C_18  and  O_19
REMARK    9  A    between atoms: O_19  and  C_20
REMARK   10  A    between atoms: N_25  and  C_26
REMARK                            x       y       z     vdW  Elec       q    Type
REMARK                         _______ _______ _______ _____ _____    ______ ____
ROOT
ATOM      1  C   UNL     1       5.490   4.668  16.847  0.00  0.00    +0.000 C 
ATOM      2  N   UNL     1       6.784   3.995  16.748  0.00  0.00    +0.000 N 
ATOM      3  C   UNL     1       7.659   4.349  17.746  0.00  0.00    +0.000 C 
ATOM      4  O   UNL     1       8.816   3.967  17.800  0.00  0.00    +0.000 OA
ATOM      5  N   UNL     1       7.037   5.231  18.564  0.00  0.00    +0.000 N 
ATOM      6  C   UNL     1       7.680   5.876  19.685  0.00  0.00    +0.000 C 
ATOM      7  C   UNL     1       5.892   5.671  17.965  0.00  0.00    +0.000 C 
ATOM      8  O   UNL     1       5.291   6.693  18.262  0.00  0.00    +0.000 OA
ATOM      9  H   UNL     1       7.110   3.471  15.944  0.00  0.00    +0.000 HD
ENDROOT
BRANCH   1  13
ATOM     10  N   UNL     1       2.476   4.611  19.488  0.00  0.00    +0.000 NA
ATOM     11  C   UNL     1       2.360   5.070  18.100  0.00  0.00    +0.000 C 
ATOM     12  C   UNL     1       2.916   4.083  17.068  0.00  0.00    +0.000 C 
ATOM     13  C   UNL     1       4.375   3.654  17.305  0.00  0.00    +0.000 C 
ATOM     14  C   UNL     1       4.435   3.127  18.753  0.00  0.00    +0.000 C 
ATOM     15  C   UNL     1       3.804   4.045  19.806  0.00  0.00    +0.000 C 
BRANCH  10  16
ATOM     16  C   UNL     1       2.231   5.725  20.449  0.00  0.00    +0.000 C 
BRANCH  16  20
ATOM     17  C   UNL     1       1.279   9.733  19.038  0.00  0.00    +0.000 A 
ATOM     18  C   UNL     1       1.941   8.834  18.193  0.00  0.00    +0.000 A 
ATOM     19  C   UNL     1       2.256   7.532  18.619  0.00  0.00    +0.000 A 
ATOM     20  C   UNL     1       1.952   7.121  19.918  0.00  0.00    +0.000 A 
ATOM     21  C   UNL     1       1.260   8.025  20.748  0.00  0.00    +0.000 A 
ATOM     22  C   UNL     1       0.929   9.316  20.317  0.00  0.00    +0.000 A 
BRANCH  17  24
ATOM     23  C   UNL     1      -0.149  11.629  18.873  0.00  0.00    +0.000 C 
ATOM     24  O   UNL     1       1.066  10.978  18.514  0.00  0.00    +0.000 OA
ENDBRANCH  17  24
ENDBRANCH  16  20
ENDBRANCH  10  16
ENDBRANCH   1  13
BRANCH   1  25
ATOM     25  C   UNL     1       5.183   5.430  15.528  0.00  0.00    +0.000 C 
BRANCH  25  26
ATOM     26  C   UNL     1       5.794   4.861  14.250  0.00  0.00    +0.000 A 
ATOM     27  C   UNL     1       7.097   5.204  13.863  0.00  0.00    +0.000 A 
ATOM     28  C   UNL     1       7.680   4.640  12.722  0.00  0.00    +0.000 A 
ATOM     29  C   UNL     1       6.967   3.723  11.956  0.00  0.00    +0.000 A 
ATOM     30  C   UNL     1       5.662   3.384  12.308  0.00  0.00    +0.000 A 
ATOM     31  C   UNL     1       5.082   3.938  13.457  0.00  0.00    +0.000 A 
BRANCH  30  32
ATOM     32  O   UNL     1       5.073   2.457  11.491  0.00  0.00    +0.000 OA
ATOM     33  C   UNL     1       3.846   2.880  10.900  0.00  0.00    +0.000 C 
ENDBRANCH  30  32
ENDBRANCH  25  26
ENDBRANCH   1  25
TORSDOF 7
ENDMDL
MODEL 2
REMARK VINA RESULT:      -7.9      1.864      2.587
REMARK  Name = 
REMARK  10 active torsions:
REMARK  status: ('A' for Active; 'I' for Inactive)
REMARK    1  A    between atoms: C_1  and  O_2
REMARK    2  A    between atoms: O_2  and  C_3
REMARK    3  A    between atoms: C_6  and  C_7
REMARK    4  A    between atoms: C_7  and  N_8
REMARK    5  A    between atoms: C_11  and  C_12
REMARK    6  A    between atoms: C_12  and  C_13
REMARK    7  A    between atoms: C_13  and  C_14
REMARK    8  A    between atoms: C_18  and  O_19
REMARK    9  A    between atoms: O_19  and  C_20
REMARK   10  A    between atoms: N_25  and  C_26
REMARK                            x       y       z     vdW  Elec       q    Type
REMARK                         _______ _______ _______ _____ _____    ______ ____
ROOT
ATOM      1  C   UNL     1       5.036   4.652  17.127  0.00  0.00    +0.000 C 
ATOM      2  N   UNL     1       6.242   3.838  17.263  0.00  0.00    +0.000 N 
ATOM      3  C   UNL     1       7.344   4.559  17.656  0.00  0.00    +0.000 C 
ATOM      4  O   UNL     1       8.465   4.088  17.748  0.00  0.00    +0.000 OA
ATOM      5  N   UNL     1       6.969   5.849  17.824  0.00  0.00    +0.000 N 
ATOM      6  C   UNL     1       7.886   6.913  18.165  0.00  0.00    +0.000 C 
ATOM      7  C   UNL     1       5.731   6.034  17.279  0.00  0.00    +0.000 C 
ATOM      8  O   UNL     1       5.257   7.114  16.960  0.00  0.00    +0.000 OA
ATOM      9  H   UNL     1       6.346   2.887  16.929  0.00  0.00    +0.000 HD
ENDROOT
BRANCH   1  13
ATOM     10  N   UNL     1       2.157   6.603  19.118  0.00  0.00    +0.000 NA
ATOM     11  C   UNL     1       1.943   5.823  17.894  0.00  0.00    +0.000 C 
ATOM     12  C   UNL     1       2.529   4.409  17.946  0.00  0.00    +0.000 C 
ATOM     13  C   UNL     1       4.026   4.342  18.295  0.00  0.00    +0.000 C 
ATOM     14  C   UNL     1       4.192   5.123  19.614  0.00  0.00    +0.000 C 
ATOM     15  C   UNL     1       3.538   6.510  19.635  0.00  0.00    +0.000 C 
BRANCH  10  16
ATOM     16  C   UNL     1       1.867   8.049  18.896  0.00  0.00    +0.000 C 
BRANCH  16  20
ATOM     17  C   UNL     1       0.075  10.266  22.187  0.00  0.00    +0.000 A 
ATOM     18  C   UNL     1       0.509  10.945  21.042  0.00  0.00    +0.000 A 
ATOM     19  C   UNL     1       1.086  10.256  19.962  0.00  0.00    +0.000 A 
ATOM     20  C   UNL     1       1.279   8.875  20.028  0.00  0.00    +0.000 A 
ATOM     21  C   UNL     1       0.811   8.200  21.173  0.00  0.00    +0.000 A 
ATOM     22  C   UNL     1       0.219   8.885  22.241  0.00  0.00    +0.000 A 
BRANCH  17  24
ATOM     23  C   UNL     1      -1.798  11.449  23.057  0.00  0.00    +0.000 C 
ATOM     24  O   UNL     1      -0.434  11.059  23.178  0.00  0.00    +0.000 OA
ENDBRANCH  17  24
ENDBRANCH  16  20
ENDBRANCH  10  16
ENDBRANCH   1  13
BRANCH   1  25
ATOM     25  C   UNL     1       4.450   4.502  15.695  0.00  0.00    +0.000 C 
BRANCH  25  26
ATOM     26  C   UNL     1       5.456   4.359  14.555  0.00  0.00    +0.000 A 
ATOM     27  C   UNL     1       5.249   3.428  13.527  0.00  0.00    +0.000 A 
ATOM     28  C   UNL     1       6.140   3.335  12.453  0.00  0.00    +0.000 A 
ATOM     29  C   UNL     1       7.248   4.173  12.391  0.00  0.00    +0.000 A 
ATOM     30  C   UNL     1       7.488   5.090  13.413  0.00  0.00    +0.000 A 
ATOM     31  C   UNL     1       6.590   5.194  14.483  0.00  0.00    +0.000 A 
BRANCH  30  32
ATOM     32  O   UNL     1       8.596   5.873  13.230  0.00  0.00    +0.000 OA
ATOM     33  C   UNL     1       8.713   6.445  11.930  0.00  0.00    +0.000 C 
ENDBRANCH  30  32
ENDBRANCH  25  26
ENDBRANCH   1  25
TORSDOF 7
ENDMDL
MODEL 3
REMARK VINA RESULT:      -7.7      1.981      2.785
REMARK  Name = 
REMARK  10 active torsions:
REMARK  status: ('A' for Active; 'I' for Inactive)
REMARK    1  A    between atoms: C_1  and  O_2
REMARK    2  A    between atoms: O_2  and  C_3
REMARK    3  A    between atoms: C_6  and  C_7
REMARK    4  A    between atoms: C_7  and  N_8
REMARK    5  A    between atoms: C_11  and  C_12
REMARK    6  A    between atoms: C_12  and  C_13
REMARK    7  A    between atoms: C_13  and  C_14
REMARK    8  A    between atoms: C_18  and  O_19
REMARK    9  A    between atoms: O_19  and  C_20
REMARK   10  A    between atoms: N_25  and  C_26
REMARK                            x       y       z     vdW  Elec       q    Type
REMARK                         _______ _______ _______ _____ _____    ______ ____
ROOT
ATOM      1  C   UNL     1       4.880   4.016  17.553  0.00  0.00    +0.000 C 
ATOM      2  N   UNL     1       4.491   2.622  17.348  0.00  0.00    +0.000 N 
ATOM      3  C   UNL     1       4.069   2.001  18.499  0.00  0.00    +0.000 C 
ATOM      4  O   UNL     1       3.780   0.817  18.564  0.00  0.00    +0.000 OA
ATOM      5  N   UNL     1       4.122   2.899  19.511  0.00  0.00    +0.000 N 
ATOM      6  C   UNL     1       3.820   2.577  20.886  0.00  0.00    +0.000 C 
ATOM      7  C   UNL     1       4.832   3.992  19.106  0.00  0.00    +0.000 C 
ATOM      8  O   UNL     1       5.348   4.811  19.852  0.00  0.00    +0.000 OA
ATOM      9  H   UNL     1       4.680   2.078  16.514  0.00  0.00    +0.000 HD
ENDROOT
BRANCH   1  13
ATOM     10  N   UNL     1       2.353   6.845  18.843  0.00  0.00    +0.000 NA
ATOM     11  C   UNL     1       3.736   7.092  18.420  0.00  0.00    +0.000 C 
ATOM     12  C   UNL     1       4.086   6.493  17.054  0.00  0.00    +0.000 C 
ATOM     13  C   UNL     1       3.811   4.984  16.921  0.00  0.00    +0.000 C 
ATOM     14  C   UNL     1       2.335   4.783  17.319  0.00  0.00    +0.000 C 
ATOM     15  C   UNL     1       1.920   5.448  18.637  0.00  0.00    +0.000 C 
BRANCH  10  16
ATOM     16  C   UNL     1       2.167   7.155  20.290  0.00  0.00    +0.000 C 
BRANCH  16  20
ATOM     17  C   UNL     1      -0.091  10.735  21.308  0.00  0.00    +0.000 A 
ATOM     18  C   UNL     1       0.250   9.817  22.308  0.00  0.00    +0.000 A 
ATOM     19  C   UNL     1       0.983   8.656  22.011  0.00  0.00    +0.000 A 
ATOM     20  C   UNL     1       1.350   8.371  20.695  0.00  0.00    +0.000 A 
ATOM     21  C   UNL     1       1.026   9.317  19.702  0.00  0.00    +0.000 A 
ATOM     22  C   UNL     1       0.313  10.484  20.002  0.00  0.00    +0.000 A 
BRANCH  17  24
ATOM     23  C   UNL     1      -0.241  13.092  21.607  0.00  0.00    +0.000 C 
ATOM     24  O   UNL     1      -0.837  11.804  21.725  0.00  0.00    +0.000 OA
ENDBRANCH  17  24
ENDBRANCH  16  20
ENDBRANCH  10  16
ENDBRANCH   1  13
BRANCH   1  25
ATOM     25  C   UNL     1       6.339   4.240  17.064  0.00  0.00    +0.000 C 
BRANCH  25  26
ATOM     26  C   UNL     1       6.544   4.366  15.557  0.00  0.00    +0.000 A 
ATOM     27  C   UNL     1       7.437   5.311  15.031  0.00  0.00    +0.000 A 
ATOM     28  C   UNL     1       7.669   5.391  13.653  0.00  0.00    +0.000 A 
ATOM     29  C   UNL     1       7.012   4.526  12.784  0.00  0.00    +0.000 A 
ATOM     30  C   UNL     1       6.102   3.595  13.281  0.00  0.00    +0.000 A 
ATOM     31  C   UNL     1       5.879   3.504  14.662  0.00  0.00    +0.000 A 
BRANCH  30  32
ATOM     32  O   UNL     1       5.536   2.786  12.332  0.00  0.00    +0.000 OA
ATOM     33  C   UNL     1       4.454   3.376  11.616  0.00  0.00    +0.000 C 
ENDBRANCH  30  32
ENDBRANCH  25  26
ENDBRANCH   1  25
TORSDOF 7
ENDMDL
MODEL 4
REMARK VINA RESULT:      -7.7      4.447     11.255
REMARK  Name = 
REMARK  10 active torsions:
REMARK  status: ('A' for Active; 'I' for Inactive)
REMARK    1  A    between atoms: C_1  and  O_2
REMARK    2  A    between atoms: O_2  and  C_3
REMARK    3  A    between atoms: C_6  and  C_7
REMARK    4  A    between atoms: C_7  and  N_8
REMARK    5  A    between atoms: C_11  and  C_12
REMARK    6  A    between atoms: C_12  and  C_13
REMARK    7  A    between atoms: C_13  and  C_14
REMARK    8  A    between atoms: C_18  and  O_19
REMARK    9  A    between atoms: O_19  and  C_20
REMARK   10  A    between atoms: N_25  and  C_26
REMARK                            x       y       z     vdW  Elec       q    Type
REMARK                         _______ _______ _______ _____ _____    ______ ____
ROOT
ATOM      1  C   UNL     1      -0.812  13.103  20.274  0.00  0.00    +0.000 C 
ATOM      2  N   UNL     1      -0.189  13.350  18.974  0.00  0.00    +0.000 N 
ATOM      3  C   UNL     1       1.172  13.520  19.048  0.00  0.00    +0.000 C 
ATOM      4  O   UNL     1       1.870  13.818  18.092  0.00  0.00    +0.000 OA
ATOM      5  N   UNL     1       1.549  13.386  20.342  0.00  0.00    +0.000 N 
ATOM      6  C   UNL     1       2.903  13.575  20.806  0.00  0.00    +0.000 C 
ATOM      7  C   UNL     1       0.441  13.418  21.138  0.00  0.00    +0.000 C 
ATOM      8  O   UNL     1       0.444  13.660  22.336  0.00  0.00    +0.000 OA
ATOM      9  H   UNL     1      -0.687  13.572  18.120  0.00  0.00    +0.000 HD
ENDROOT
BRANCH   1  13
ATOM     10  N   UNL     1       0.612   9.504  19.238  0.00  0.00    +0.000 NA
ATOM     11  C   UNL     1       0.874  10.167  20.519  0.00  0.00    +0.000 C 
ATOM     12  C   UNL     1      -0.386  10.671  21.230  0.00  0.00    +0.000 C 
ATOM     13  C   UNL     1      -1.275  11.602  20.388  0.00  0.00    +0.000 C 
ATOM     14  C   UNL     1      -1.571  10.841  19.079  0.00  0.00    +0.000 C 
ATOM     15  C   UNL     1      -0.343  10.241  18.384  0.00  0.00    +0.000 C 
BRANCH  10  16
ATOM     16  C   UNL     1       1.867   9.335  18.449  0.00  0.00    +0.000 C 
BRANCH  16  20
ATOM     17  C   UNL     1       3.856   5.464  18.592  0.00  0.00    +0.000 A 
ATOM     18  C   UNL     1       4.094   6.333  17.519  0.00  0.00    +0.000 A 
ATOM     19  C   UNL     1       3.471   7.590  17.449  0.00  0.00    +0.000 A 
ATOM     20  C   UNL     1       2.562   7.983  18.433  0.00  0.00    +0.000 A 
ATOM     21  C   UNL     1       2.353   7.113  19.521  0.00  0.00    +0.000 A 
ATOM     22  C   UNL     1       2.990   5.868  19.600  0.00  0.00    +0.000 A 
BRANCH  17  24
ATOM     23  C   UNL     1       3.699   3.092  18.698  0.00  0.00    +0.000 C 
ATOM     24  O   UNL     1       4.497   4.258  18.519  0.00  0.00    +0.000 OA
ENDBRANCH  17  24
ENDBRANCH  16  20
ENDBRANCH  10  16
ENDBRANCH   1  13
BRANCH   1  25
ATOM     25  C   UNL     1      -1.925  14.155  20.540  0.00  0.00    +0.000 C 
BRANCH  25  26
ATOM     26  C   UNL     1      -3.029  13.752  21.513  0.00  0.00    +0.000 A 
ATOM     27  C   UNL     1      -2.958  14.108  22.868  0.00  0.00    +0.000 A 
ATOM     28  C   UNL     1      -3.995  13.788  23.750  0.00  0.00    +0.000 A 
ATOM     29  C   UNL     1      -5.119  13.110  23.289  0.00  0.00    +0.000 A 
ATOM     30  C   UNL     1      -5.202  12.724  21.953  0.00  0.00    +0.000 A 
ATOM     31  C   UNL     1      -4.170  13.055  21.064  0.00  0.00    +0.000 A 
BRANCH  30  32
ATOM     32  O   UNL     1      -6.363  12.083  21.614  0.00  0.00    +0.000 OA
ATOM     33  C   UNL     1      -7.450  12.309  22.507  0.00  0.00    +0.000 C 
ENDBRANCH  30  32
ENDBRANCH  25  26
ENDBRANCH   1  25
TORSDOF 7
ENDMDL
MODEL 5
REMARK VINA RESULT:      -7.7      5.027      9.761
REMARK  Name = 
REMARK  10 active torsions:
REMARK  status: ('A' for Active; 'I' for Inactive)
REMARK    1  A    between atoms: C_1  and  O_2
REMARK    2  A    between atoms: O_2  and  C_3
REMARK    3  A    between atoms: C_6  and  C_7
REMARK    4  A    between atoms: C_7  and  N_8
REMARK    5  A    between atoms: C_11  and  C_12
REMARK    6  A    between atoms: C_12  and  C_13
REMARK    7  A    between atoms: C_13  and  C_14
REMARK    8  A    between atoms: C_18  and  O_19
REMARK    9  A    between atoms: O_19  and  C_20
REMARK   10  A    between atoms: N_25  and  C_26
REMARK                            x       y       z     vdW  Elec       q    Type
REMARK                         _______ _______ _______ _____ _____    ______ ____
ROOT
ATOM      1  C   UNL     1      -0.928  11.461  18.952  0.00  0.00    +0.000 C 
ATOM      2  N   UNL     1      -0.878  10.621  17.757  0.00  0.00    +0.000 N 
ATOM      3  C   UNL     1      -2.048  10.630  17.037  0.00  0.00    +0.000 C 
ATOM      4  O   UNL     1      -2.245   9.935  16.054  0.00  0.00    +0.000 OA
ATOM      5  N   UNL     1      -2.923  11.457  17.657  0.00  0.00    +0.000 N 
ATOM      6  C   UNL     1      -4.286  11.655  17.221  0.00  0.00    +0.000 C 
ATOM      7  C   UNL     1      -2.453  11.756  18.903  0.00  0.00    +0.000 C 
ATOM      8  O   UNL     1      -3.132  12.181  19.827  0.00  0.00    +0.000 OA
ATOM      9  H   UNL     1      -0.155   9.942  17.550  0.00  0.00    +0.000 HD
ENDROOT
BRANCH   1  13
ATOM     10  N   UNL     1       0.330  14.530  21.202  0.00  0.00    +0.000 NA
ATOM     11  C   UNL     1       1.050  13.262  21.043  0.00  0.00    +0.000 C 
ATOM     12  C   UNL     1       1.247  12.835  19.585  0.00  0.00    +0.000 C 
ATOM     13  C   UNL     1      -0.047  12.752  18.756  0.00  0.00    +0.000 C 
ATOM     14  C   UNL     1      -0.738  14.123  18.906  0.00  0.00    +0.000 C 
ATOM     15  C   UNL     1      -0.871  14.630  20.347  0.00  0.00    +0.000 C 
BRANCH  10  16
ATOM     16  C   UNL     1      -0.116  14.726  22.612  0.00  0.00    +0.000 C 
BRANCH  16  20
ATOM     17  C   UNL     1      -3.738  12.863  24.149  0.00  0.00    +0.000 A 
ATOM     18  C   UNL     1      -2.778  12.085  23.492  0.00  0.00    +0.000 A 
ATOM     19  C   UNL     1      -1.596  12.657  22.990  0.00  0.00    +0.000 A 
ATOM     20  C   UNL     1      -1.376  14.031  23.100  0.00  0.00    +0.000 A 
ATOM     21  C   UNL     1      -2.336  14.798  23.788  0.00  0.00    +0.000 A 
ATOM     22  C   UNL     1      -3.505  14.224  24.305  0.00  0.00    +0.000 A 
BRANCH  17  24
ATOM     23  C   UNL     1      -6.110  12.681  24.090  0.00  0.00    +0.000 C 
ATOM     24  O   UNL     1      -4.857  12.189  24.555  0.00  0.00    +0.000 OA
ENDBRANCH  17  24
ENDBRANCH  16  20
ENDBRANCH  10  16
ENDBRANCH   1  13
BRANCH   1  25
ATOM     25  C   UNL     1      -0.585  10.618  20.211  0.00  0.00    +0.000 C 
BRANCH  25  26
ATOM     26  C   UNL     1       0.449   9.508  20.031  0.00  0.00    +0.000 A 
ATOM     27  C   UNL     1       0.641   8.538  21.025  0.00  0.00    +0.000 A 
ATOM     28  C   UNL     1       1.547   7.489  20.838  0.00  0.00    +0.000 A 
ATOM     29  C   UNL     1       2.271   7.394  19.654  0.00  0.00    +0.000 A 
ATOM     30  C   UNL     1       2.115   8.360  18.662  0.00  0.00    +0.000 A 
ATOM     31  C   UNL     1       1.198   9.404  18.841  0.00  0.00    +0.000 A 
BRANCH  30  32
ATOM     32  O   UNL     1       2.863   8.148  17.535  0.00  0.00    +0.000 OA
ATOM     33  C   UNL     1       3.715   7.007  17.593  0.00  0.00    +0.000 C 
ENDBRANCH  30  32
ENDBRANCH  25  26
ENDBRANCH   1  25
TORSDOF 7
ENDMDL
MODEL 6
REMARK VINA RESULT:      -7.6      4.359      9.913
REMARK  Name = 
REMARK  10 active torsions:
REMARK  status: ('A' for Active; 'I' for Inactive)
REMARK    1  A    between atoms: C_1  and  O_2
REMARK    2  A    between atoms: O_2  and  C_3
REMARK    3  A    between atoms: C_6  and  C_7
REMARK    4  A    between atoms: C_7  and  N_8
REMARK    5  A    between atoms: C_11  and  C_12
REMARK    6  A    between atoms: C_12  and  C_13
REMARK    7  A    between atoms: C_13  and  C_14
REMARK    8  A    between atoms: C_18  and  O_19
REMARK    9  A    between atoms: O_19  and  C_20
REMARK   10  A    between atoms: N_25  and  C_26
REMARK                            x       y       z     vdW  Elec       q    Type
REMARK                         _______ _______ _______ _____ _____    ______ ____
ROOT
ATOM      1  C   UNL     1      -0.495  11.431  19.894  0.00  0.00    +0.000 C 
ATOM      2  N   UNL     1      -0.645  12.608  19.040  0.00  0.00    +0.000 N 
ATOM      3  C   UNL     1      -1.072  13.723  19.721  0.00  0.00    +0.000 C 
ATOM      4  O   UNL     1      -1.339  14.784  19.182  0.00  0.00    +0.000 OA
ATOM      5  N   UNL     1      -1.214  13.395  21.027  0.00  0.00    +0.000 N 
ATOM      6  C   UNL     1      -1.721  14.302  22.031  0.00  0.00    +0.000 C 
ATOM      7  C   UNL     1      -1.167  12.037  21.158  0.00  0.00    +0.000 C 
ATOM      8  O   UNL     1      -1.591  11.408  22.116  0.00  0.00    +0.000 OA
ATOM      9  H   UNL     1      -0.634  12.601  18.027  0.00  0.00    +0.000 HD
ENDROOT
BRANCH   1  13
ATOM     10  N   UNL     1       2.079   8.584  18.744  0.00  0.00    +0.000 NA
ATOM     11  C   UNL     1       1.818   9.821  18.002  0.00  0.00    +0.000 C 
ATOM     12  C   UNL     1       1.916  11.091  18.853  0.00  0.00    +0.000 C 
ATOM     13  C   UNL     1       1.029  11.097  20.110  0.00  0.00    +0.000 C 
ATOM     14  C   UNL     1       1.379   9.810  20.885  0.00  0.00    +0.000 C 
ATOM     15  C   UNL     1       1.383   8.526  20.046  0.00  0.00    +0.000 C 
BRANCH  10  16
ATOM     16  C   UNL     1       1.653   7.385  17.964  0.00  0.00    +0.000 C 
BRANCH  16  20
ATOM     17  C   UNL     1       3.413   3.472  18.707  0.00  0.00    +0.000 A 
ATOM     18  C   UNL     1       4.043   4.625  19.192  0.00  0.00    +0.000 A 
ATOM     19  C   UNL     1       3.496   5.901  18.973  0.00  0.00    +0.000 A 
ATOM     20  C   UNL     1       2.327   6.048  18.224  0.00  0.00    +0.000 A 
ATOM     21  C   UNL     1       1.687   4.879  17.767  0.00  0.00    +0.000 A 
ATOM     22  C   UNL     1       2.223   3.606  18.002  0.00  0.00    +0.000 A 
BRANCH  17  24
ATOM     23  C   UNL     1       4.502   2.075  20.296  0.00  0.00    +0.000 C 
ATOM     24  O   UNL     1       4.069   2.299  18.958  0.00  0.00    +0.000 OA
ENDBRANCH  17  24
ENDBRANCH  16  20
ENDBRANCH  10  16
ENDBRANCH   1  13
BRANCH   1  25
ATOM     25  C   UNL     1      -1.353  10.259  19.341  0.00  0.00    +0.000 C 
BRANCH  25  26
ATOM     26  C   UNL     1      -2.219  10.561  18.121  0.00  0.00    +0.000 A 
ATOM     27  C   UNL     1      -1.860  10.087  16.850  0.00  0.00    +0.000 A 
ATOM     28  C   UNL     1      -2.681  10.315  15.741  0.00  0.00    +0.000 A 
ATOM     29  C   UNL     1      -3.873  11.017  15.887  0.00  0.00    +0.000 A 
ATOM     30  C   UNL     1      -4.239  11.519  17.135  0.00  0.00    +0.000 A 
ATOM     31  C   UNL     1      -3.425  11.280  18.250  0.00  0.00    +0.000 A 
BRANCH  30  32
ATOM     32  O   UNL     1      -5.441  12.174  17.157  0.00  0.00    +0.000 OA
ATOM     33  C   UNL     1      -6.457  11.525  17.918  0.00  0.00    +0.000 C 
ENDBRANCH  30  32
ENDBRANCH  25  26
ENDBRANCH   1  25
TORSDOF 7
ENDMDL
MODEL 7
REMARK VINA RESULT:      -7.6      4.035     10.690
REMARK  Name = 
REMARK  10 active torsions:
REMARK  status: ('A' for Active; 'I' for Inactive)
REMARK    1  A    between atoms: C_1  and  O_2
REMARK    2  A    between atoms: O_2  and  C_3
REMARK    3  A    between atoms: C_6  and  C_7
REMARK    4  A    between atoms: C_7  and  N_8
REMARK    5  A    between atoms: C_11  and  C_12
REMARK    6  A    between atoms: C_12  and  C_13
REMARK    7  A    between atoms: C_13  and  C_14
REMARK    8  A    between atoms: C_18  and  O_19
REMARK    9  A    between atoms: O_19  and  C_20
REMARK   10  A    between atoms: N_25  and  C_26
REMARK                            x       y       z     vdW  Elec       q    Type
REMARK                         _______ _______ _______ _____ _____    ______ ____
ROOT
ATOM      1  C   UNL     1      -0.444  12.624  19.768  0.00  0.00    +0.000 C 
ATOM      2  N   UNL     1       0.386  12.750  18.571  0.00  0.00    +0.000 N 
ATOM      3  C   UNL     1       1.703  13.024  18.850  0.00  0.00    +0.000 C 
ATOM      4  O   UNL     1       2.544  13.248  17.995  0.00  0.00    +0.000 OA
ATOM      5  N   UNL     1       1.851  13.078  20.195  0.00  0.00    +0.000 N 
ATOM      6  C   UNL     1       3.091  13.419  20.852  0.00  0.00    +0.000 C 
ATOM      7  C   UNL     1       0.620  13.131  20.781  0.00  0.00    +0.000 C 
ATOM      8  O   UNL     1       0.399  13.521  21.918  0.00  0.00    +0.000 OA
ATOM      9  H   UNL     1       0.037  12.828  17.623  0.00  0.00    +0.000 HD
ENDROOT
BRANCH   1  13
ATOM     10  N   UNL     1       1.070   9.011  18.926  0.00  0.00    +0.000 NA
ATOM     11  C   UNL     1       1.356   9.771  20.147  0.00  0.00    +0.000 C 
ATOM     12  C   UNL     1       0.106  10.280  20.872  0.00  0.00    +0.000 C 
ATOM     13  C   UNL     1      -0.847  11.120  20.003  0.00  0.00    +0.000 C 
ATOM     14  C   UNL     1      -1.165  10.259  18.763  0.00  0.00    +0.000 C 
ATOM     15  C   UNL     1       0.057   9.653  18.063  0.00  0.00    +0.000 C 
BRANCH  10  16
ATOM     16  C   UNL     1       2.299   8.829  18.101  0.00  0.00    +0.000 C 
BRANCH  16  20
ATOM     17  C   UNL     1       4.040   4.897  17.418  0.00  0.00    +0.000 A 
ATOM     18  C   UNL     1       2.773   5.007  18.003  0.00  0.00    +0.000 A 
ATOM     19  C   UNL     1       2.183   6.262  18.230  0.00  0.00    +0.000 A 
ATOM     20  C   UNL     1       2.873   7.434  17.915  0.00  0.00    +0.000 A 
ATOM     21  C   UNL     1       4.135   7.309  17.300  0.00  0.00    +0.000 A 
ATOM     22  C   UNL     1       4.714   6.057  17.056  0.00  0.00    +0.000 A 
BRANCH  17  24
ATOM     23  C   UNL     1       3.714   2.576  17.832  0.00  0.00    +0.000 C 
ATOM     24  O   UNL     1       4.514   3.620  17.286  0.00  0.00    +0.000 OA
ENDBRANCH  17  24
ENDBRANCH  16  20
ENDBRANCH  10  16
ENDBRANCH   1  13
BRANCH   1  25
ATOM     25  C   UNL     1      -1.636  13.619  19.698  0.00  0.00    +0.000 C 
BRANCH  25  26
ATOM     26  C   UNL     1      -2.908  13.218  20.440  0.00  0.00    +0.000 A 
ATOM     27  C   UNL     1      -3.019  13.402  21.826  0.00  0.00    +0.000 A 
ATOM     28  C   UNL     1      -4.204  13.086  22.500  0.00  0.00    +0.000 A 
ATOM     29  C   UNL     1      -5.294  12.586  21.796  0.00  0.00    +0.000 A 
ATOM     30  C   UNL     1      -5.200  12.373  20.422  0.00  0.00    +0.000 A 
ATOM     31  C   UNL     1      -4.019  12.700  19.743  0.00  0.00    +0.000 A 
BRANCH  30  32
ATOM     32  O   UNL     1      -6.344  11.898  19.838  0.00  0.00    +0.000 OA
ATOM     33  C   UNL     1      -7.210  11.186  20.717  0.00  0.00    +0.000 C 
ENDBRANCH  30  32
ENDBRANCH  25  26
ENDBRANCH   1  25
TORSDOF 7
ENDMDL
MODEL 8
REMARK VINA RESULT:      -7.5      2.226      3.759
REMARK  Name = 
REMARK  10 active torsions:
REMARK  status: ('A' for Active; 'I' for Inactive)
REMARK    1  A    between atoms: C_1  and  O_2
REMARK    2  A    between atoms: O_2  and  C_3
REMARK    3  A    between atoms: C_6  and  C_7
REMARK    4  A    between atoms: C_7  and  N_8
REMARK    5  A    between atoms: C_11  and  C_12
REMARK    6  A    between atoms: C_12  and  C_13
REMARK    7  A    between atoms: C_13  and  C_14
REMARK    8  A    between atoms: C_18  and  O_19
REMARK    9  A    between atoms: O_19  and  C_20
REMARK   10  A    between atoms: N_25  and  C_26
REMARK                            x       y       z     vdW  Elec       q    Type
REMARK                         _______ _______ _______ _____ _____    ______ ____
ROOT
ATOM      1  C   UNL     1       4.046   4.159  18.104  0.00  0.00    +0.000 C 
ATOM      2  N   UNL     1       2.911   4.381  17.210  0.00  0.00    +0.000 N 
ATOM      3  C   UNL     1       1.708   4.001  17.754  0.00  0.00    +0.000 C 
ATOM      4  O   UNL     1       0.651   4.024  17.145  0.00  0.00    +0.000 OA
ATOM      5  N   UNL     1       1.935   3.536  19.006  0.00  0.00    +0.000 N 
ATOM      6  C   UNL     1       0.906   2.980  19.853  0.00  0.00    +0.000 C 
ATOM      7  C   UNL     1       3.275   3.340  19.177  0.00  0.00    +0.000 C 
ATOM      8  O   UNL     1       3.777   2.630  20.035  0.00  0.00    +0.000 OA
ATOM      9  H   UNL     1       2.978   4.603  16.223  0.00  0.00    +0.000 HD
ENDROOT
BRANCH   1  13
ATOM     10  N   UNL     1       2.718   7.925  18.440  0.00  0.00    +0.000 NA
ATOM     11  C   UNL     1       2.535   6.882  19.455  0.00  0.00    +0.000 C 
ATOM     12  C   UNL     1       3.826   6.150  19.836  0.00  0.00    +0.000 C 
ATOM     13  C   UNL     1       4.591   5.531  18.653  0.00  0.00    +0.000 C 
ATOM     14  C   UNL     1       4.810   6.674  17.642  0.00  0.00    +0.000 C 
ATOM     15  C   UNL     1       3.558   7.492  17.303  0.00  0.00    +0.000 C 
BRANCH  10  16
ATOM     16  C   UNL     1       1.410   8.367  17.876  0.00  0.00    +0.000 C 
BRANCH  16  20
ATOM     17  C   UNL     1       0.142  12.431  18.787  0.00  0.00    +0.000 A 
ATOM     18  C   UNL     1      -0.816  11.433  18.571  0.00  0.00    +0.000 A 
ATOM     19  C   UNL     1      -0.437  10.111  18.281  0.00  0.00    +0.000 A 
ATOM     20  C   UNL     1       0.913   9.775  18.158  0.00  0.00    +0.000 A 
ATOM     21  C   UNL     1       1.866  10.782  18.407  0.00  0.00    +0.000 A 
ATOM     22  C   UNL     1       1.488  12.094  18.715  0.00  0.00    +0.000 A 
BRANCH  17  24
ATOM     23  C   UNL     1      -1.312  13.805  20.075  0.00  0.00    +0.000 C 
ATOM     24  O   UNL     1      -0.360  13.681  19.024  0.00  0.00    +0.000 OA
ENDBRANCH  17  24
ENDBRANCH  16  20
ENDBRANCH  10  16
ENDBRANCH   1  13
BRANCH   1  25
ATOM     25  C   UNL     1       5.107   3.263  17.406  0.00  0.00    +0.000 C 
BRANCH  25  26
ATOM     26  C   UNL     1       5.733   3.813  16.127  0.00  0.00    +0.000 A 
ATOM     27  C   UNL     1       6.917   4.564  16.171  0.00  0.00    +0.000 A 
ATOM     28  C   UNL     1       7.521   5.021  14.996  0.00  0.00    +0.000 A 
ATOM     29  C   UNL     1       6.952   4.732  13.760  0.00  0.00    +0.000 A 
ATOM     30  C   UNL     1       5.763   4.009  13.691  0.00  0.00    +0.000 A 
ATOM     31  C   UNL     1       5.162   3.538  14.867  0.00  0.00    +0.000 A 
BRANCH  30  32
ATOM     32  O   UNL     1       5.312   3.769  12.421  0.00  0.00    +0.000 OA
ATOM     33  C   UNL     1       5.647   2.484  11.903  0.00  0.00    +0.000 C 
ENDBRANCH  30  32
ENDBRANCH  25  26
ENDBRANCH   1  25
TORSDOF 7
ENDMDL
MODEL 9
REMARK VINA RESULT:      -7.5      2.248      3.832
REMARK  Name = 
REMARK  10 active torsions:
REMARK  status: ('A' for Active; 'I' for Inactive)
REMARK    1  A    between atoms: C_1  and  O_2
REMARK    2  A    between atoms: O_2  and  C_3
REMARK    3  A    between atoms: C_6  and  C_7
REMARK    4  A    between atoms: C_7  and  N_8
REMARK    5  A    between atoms: C_11  and  C_12
REMARK    6  A    between atoms: C_12  and  C_13
REMARK    7  A    between atoms: C_13  and  C_14
REMARK    8  A    between atoms: C_18  and  O_19
REMARK    9  A    between atoms: O_19  and  C_20
REMARK   10  A    between atoms: N_25  and  C_26
REMARK                            x       y       z     vdW  Elec       q    Type
REMARK                         _______ _______ _______ _____ _____    ______ ____
ROOT
ATOM      1  C   UNL     1       3.976   4.262  18.235  0.00  0.00    +0.000 C 
ATOM      2  N   UNL     1       2.890   4.500  17.285  0.00  0.00    +0.000 N 
ATOM      3  C   UNL     1       1.658   4.120  17.761  0.00  0.00    +0.000 C 
ATOM      4  O   UNL     1       0.635   4.156  17.097  0.00  0.00    +0.000 OA
ATOM      5  N   UNL     1       1.817   3.640  19.017  0.00  0.00    +0.000 N 
ATOM      6  C   UNL     1       0.743   3.079  19.802  0.00  0.00    +0.000 C 
ATOM      7  C   UNL     1       3.145   3.435  19.256  0.00  0.00    +0.000 C 
ATOM      8  O   UNL     1       3.599   2.712  20.131  0.00  0.00    +0.000 OA
ATOM      9  H   UNL     1       3.011   4.733  16.306  0.00  0.00    +0.000 HD
ENDROOT
BRANCH   1  13
ATOM     10  N   UNL     1       2.677   8.044  18.488  0.00  0.00    +0.000 NA
ATOM     11  C   UNL     1       2.407   7.001  19.483  0.00  0.00    +0.000 C 
ATOM     12  C   UNL     1       3.656   6.250  19.955  0.00  0.00    +0.000 C 
ATOM     13  C   UNL     1       4.497   5.624  18.829  0.00  0.00    +0.000 C 
ATOM     14  C   UNL     1       4.805   6.768  17.840  0.00  0.00    +0.000 C 
ATOM     15  C   UNL     1       3.592   7.604  17.415  0.00  0.00    +0.000 C 
BRANCH  10  16
ATOM     16  C   UNL     1       1.420   8.506  17.832  0.00  0.00    +0.000 C 
BRANCH  16  20
ATOM     17  C   UNL     1      -1.197  11.425  19.727  0.00  0.00    +0.000 A 
ATOM     18  C   UNL     1      -0.057  10.969  20.399  0.00  0.00    +0.000 A 
ATOM     19  C   UNL     1       0.809  10.031  19.811  0.00  0.00    +0.000 A 
ATOM     20  C   UNL     1       0.524   9.500  18.552  0.00  0.00    +0.000 A 
ATOM     21  C   UNL     1      -0.610   9.989  17.874  0.00  0.00    +0.000 A 
ATOM     22  C   UNL     1      -1.462  10.938  18.453  0.00  0.00    +0.000 A 
BRANCH  17  24
ATOM     23  C   UNL     1      -1.714  13.693  20.227  0.00  0.00    +0.000 C 
ATOM     24  O   UNL     1      -1.974  12.307  20.426  0.00  0.00    +0.000 OA
ENDBRANCH  17  24
ENDBRANCH  16  20
ENDBRANCH  10  16
ENDBRANCH   1  13
BRANCH   1  25
ATOM     25  C   UNL     1       5.068   3.369  17.583  0.00  0.00    +0.000 C 
BRANCH  25  26
ATOM     26  C   UNL     1       5.699   3.890  16.294  0.00  0.00    +0.000 A 
ATOM     27  C   UNL     1       6.900   4.614  16.324  0.00  0.00    +0.000 A 
ATOM     28  C   UNL     1       7.508   5.044  15.140  0.00  0.00    +0.000 A 
ATOM     29  C   UNL     1       6.925   4.753  13.910  0.00  0.00    +0.000 A 
ATOM     30  C   UNL     1       5.720   4.056  13.857  0.00  0.00    +0.000 A 
ATOM     31  C   UNL     1       5.116   3.612  15.041  0.00  0.00    +0.000 A 
BRANCH  30  32
ATOM     32  O   UNL     1       5.257   3.811  12.592  0.00  0.00    +0.000 OA
ATOM     33  C   UNL     1       5.902   2.732  11.921  0.00  0.00    +0.000 C 
ENDBRANCH  30  32
ENDBRANCH  25  26
ENDBRANCH   1  25
TORSDOF 7
ENDMDL
