MODEL 1
REMARK VINA RESULT:      -6.9      0.000      0.000
REMARK  Name = 
REMARK  5 active torsions:
REMARK  status: ('A' for Active; 'I' for Inactive)
REMARK    1  A    between atoms: C_2  and  C_3
REMARK    2  A    between atoms: C_3  and  N_4
REMARK    3  A    between atoms: N_4  and  C_5
REMARK    4  A    between atoms: N_4  and  C_6
REMARK    5  A    between atoms: C_6  and  C_7
REMARK                            x       y       z     vdW  Elec       q    Type
REMARK                         _______ _______ _______ _____ _____    ______ ____
ROOT
ATOM      1  C   UNL     1       4.224   5.263  17.087  0.00  0.00    +0.000 A 
ATOM      2  C   UNL     1       3.788   3.996  17.180  0.00  0.00    +0.000 A 
ATOM      3  C   UNL     1       2.718   3.654  18.102  0.00  0.00    +0.000 A 
ATOM      4  C   UNL     1       2.211   2.358  18.214  0.00  0.00    +0.000 A 
ATOM      5  C   UNL     1       1.249   2.065  19.187  0.00  0.00    +0.000 A 
ATOM      6  C   UNL     1       0.794   3.061  20.053  0.00  0.00    +0.000 A 
ATOM      7  C   UNL     1       1.278   4.361  19.932  0.00  0.00    +0.000 A 
ATOM      8  C   UNL     1       2.225   4.641  18.950  0.00  0.00    +0.000 A 
ATOM      9  O   UNL     1       2.657   5.972  18.834  0.00  0.00    +0.000 OA
ATOM     10  C   UNL     1       3.560   6.351  17.850  0.00  0.00    +0.000 A 
ATOM     11  O   UNL     1       3.806   7.533  17.638  0.00  0.00    +0.000 OA
ENDROOT
BRANCH   1  12
ATOM     12  C   UNL     1       5.406   5.675  16.247  0.00  0.00    +0.000 C 
BRANCH  12  13
ATOM     13  N   UNL     1       6.428   4.627  16.033  0.00  0.00    +0.000 NA
ATOM     14  C   UNL     1       7.379   4.673  17.157  0.00  0.00    +0.000 C 
BRANCH  13  15
ATOM     15  C   UNL     1       7.127   4.853  14.753  0.00  0.00    +0.000 C 
BRANCH  15  17
ATOM     16  C   UNL     1       5.930   3.560  12.746  0.00  0.00    +0.000 C 
ATOM     17  C   UNL     1       6.480   4.132  13.640  0.00  0.00    +0.000 C 
ENDBRANCH  15  17
ENDBRANCH  13  15
ENDBRANCH  12  13
ENDBRANCH   1  12
TORSDOF 4
ENDMDL
MODEL 2
REMARK VINA RESULT:      -6.7      2.793      6.076
REMARK  Name = 
REMARK  5 active torsions:
REMARK  status: ('A' for Active; 'I' for Inactive)
REMARK    1  A    between atoms: C_2  and  C_3
REMARK    2  A    between atoms: C_3  and  N_4
REMARK    3  A    between atoms: N_4  and  C_5
REMARK    4  A    between atoms: N_4  and  C_6
REMARK    5  A    between atoms: C_6  and  C_7
REMARK                            x       y       z     vdW  Elec       q    Type
REMARK                         _______ _______ _______ _____ _____    ______ ____
ROOT
ATOM      1  C   UNL     1       3.902   4.085  17.903  0.00  0.00    +0.000 A 
ATOM      2  C   UNL     1       4.386   5.161  17.262  0.00  0.00    +0.000 A 
ATOM      3  C   UNL     1       5.670   5.727  17.642  0.00  0.00    +0.000 A 
ATOM      4  C   UNL     1       6.228   6.826  16.988  0.00  0.00    +0.000 A 
ATOM      5  C   UNL     1       7.419   7.391  17.459  0.00  0.00    +0.000 A 
ATOM      6  C   UNL     1       8.052   6.864  18.587  0.00  0.00    +0.000 A 
ATOM      7  C   UNL     1       7.513   5.753  19.231  0.00  0.00    +0.000 A 
ATOM      8  C   UNL     1       6.335   5.194  18.742  0.00  0.00    +0.000 A 
ATOM      9  O   UNL     1       5.847   4.051  19.395  0.00  0.00    +0.000 OA
ATOM     10  C   UNL     1       4.708   3.398  18.944  0.00  0.00    +0.000 A 
ATOM     11  O   UNL     1       4.378   2.310  19.404  0.00  0.00    +0.000 OA
ENDROOT
BRANCH   1  12
ATOM     12  C   UNL     1       2.530   3.514  17.649  0.00  0.00    +0.000 C 
BRANCH  12  13
ATOM     13  N   UNL     1       1.441   4.090  18.468  0.00  0.00    +0.000 NA
ATOM     14  C   UNL     1       2.034   5.047  19.417  0.00  0.00    +0.000 C 
BRANCH  13  15
ATOM     15  C   UNL     1       0.728   3.019  19.190  0.00  0.00    +0.000 C 
BRANCH  15  17
ATOM     16  C   UNL     1       1.664   2.708  21.672  0.00  0.00    +0.000 C 
ATOM     17  C   UNL     1       1.232   2.855  20.566  0.00  0.00    +0.000 C 
ENDBRANCH  15  17
ENDBRANCH  13  15
ENDBRANCH  12  13
ENDBRANCH   1  12
TORSDOF 4
ENDMDL
MODEL 3
REMARK VINA RESULT:      -6.7      2.026      6.095
REMARK  Name = 
REMARK  5 active torsions:
REMARK  status: ('A' for Active; 'I' for Inactive)
REMARK    1  A    between atoms: C_2  and  C_3
REMARK    2  A    between atoms: C_3  and  N_4
REMARK    3  A    between atoms: N_4  and  C_5
REMARK    4  A    between atoms: N_4  and  C_6
REMARK    5  A    between atoms: C_6  and  C_7
REMARK                            x       y       z     vdW  Elec       q    Type
REMARK                         _______ _______ _______ _____ _____    ______ ____
ROOT
ATOM      1  C   UNL     1       5.626   4.846  16.706  0.00  0.00    +0.000 A 
ATOM      2  C   UNL     1       5.186   4.157  15.641  0.00  0.00    +0.000 A 
ATOM      3  C   UNL     1       5.940   4.165  14.398  0.00  0.00    +0.000 A 
ATOM      4  C   UNL     1       5.538   3.442  13.274  0.00  0.00    +0.000 A 
ATOM      5  C   UNL     1       6.247   3.565  12.073  0.00  0.00    +0.000 A 
ATOM      6  C   UNL     1       7.354   4.412  11.991  0.00  0.00    +0.000 A 
ATOM      7  C   UNL     1       7.774   5.118  13.115  0.00  0.00    +0.000 A 
ATOM      8  C   UNL     1       7.067   4.976  14.305  0.00  0.00    +0.000 A 
ATOM      9  O   UNL     1       7.547   5.673  15.426  0.00  0.00    +0.000 OA
ATOM     10  C   UNL     1       6.934   5.549  16.666  0.00  0.00    +0.000 A 
ATOM     11  O   UNL     1       7.448   6.018  17.676  0.00  0.00    +0.000 OA
ENDROOT
BRANCH   1  12
ATOM     12  C   UNL     1       4.843   4.985  17.987  0.00  0.00    +0.000 C 
BRANCH  12  13
ATOM     13  N   UNL     1       3.477   5.532  17.840  0.00  0.00    +0.000 NA
ATOM     14  C   UNL     1       3.573   6.999  17.760  0.00  0.00    +0.000 C 
BRANCH  13  15
ATOM     15  C   UNL     1       2.642   5.129  18.988  0.00  0.00    +0.000 C 
BRANCH  15  17
ATOM     16  C   UNL     1       1.217   2.932  18.458  0.00  0.00    +0.000 C 
ATOM     17  C   UNL     1       1.867   3.907  18.700  0.00  0.00    +0.000 C 
ENDBRANCH  15  17
ENDBRANCH  13  15
ENDBRANCH  12  13
ENDBRANCH   1  12
TORSDOF 4
ENDMDL
MODEL 4
REMARK VINA RESULT:      -6.6      1.810      2.068
REMARK  Name = 
REMARK  5 active torsions:
REMARK  status: ('A' for Active; 'I' for Inactive)
REMARK    1  A    between atoms: C_2  and  C_3
REMARK    2  A    between atoms: C_3  and  N_4
REMARK    3  A    between atoms: N_4  and  C_5
REMARK    4  A    between atoms: N_4  and  C_6
REMARK    5  A    between atoms: C_6  and  C_7
REMARK                            x       y       z     vdW  Elec       q    Type
REMARK                         _______ _______ _______ _____ _____    ______ ____
ROOT
ATOM      1  C   UNL     1       4.657   3.804  17.352  0.00  0.00    +0.000 A 
ATOM      2  C   UNL     1       3.324   3.654  17.393  0.00  0.00    +0.000 A 
ATOM      3  C   UNL     1       2.643   3.480  18.665  0.00  0.00    +0.000 A 
ATOM      4  C   UNL     1       1.257   3.349  18.762  0.00  0.00    +0.000 A 
ATOM      5  C   UNL     1       0.664   3.085  20.002  0.00  0.00    +0.000 A 
ATOM      6  C   UNL     1       1.452   2.946  21.146  0.00  0.00    +0.000 A 
ATOM      7  C   UNL     1       2.834   3.098  21.061  0.00  0.00    +0.000 A 
ATOM      8  C   UNL     1       3.408   3.374  19.823  0.00  0.00    +0.000 A 
ATOM      9  O   UNL     1       4.799   3.561  19.787  0.00  0.00    +0.000 OA
ATOM     10  C   UNL     1       5.449   3.891  18.605  0.00  0.00    +0.000 A 
ATOM     11  O   UNL     1       6.630   4.220  18.603  0.00  0.00    +0.000 OA
ENDROOT
BRANCH   1  12
ATOM     12  C   UNL     1       5.446   3.869  16.068  0.00  0.00    +0.000 C 
BRANCH  12  13
ATOM     13  N   UNL     1       6.187   5.129  15.842  0.00  0.00    +0.000 NA
ATOM     14  C   UNL     1       5.210   6.193  15.554  0.00  0.00    +0.000 C 
BRANCH  13  15
ATOM     15  C   UNL     1       7.128   4.970  14.717  0.00  0.00    +0.000 C 
BRANCH  15  17
ATOM     16  C   UNL     1       6.033   3.566  12.726  0.00  0.00    +0.000 C 
ATOM     17  C   UNL     1       6.537   4.187  13.615  0.00  0.00    +0.000 C 
ENDBRANCH  15  17
ENDBRANCH  13  15
ENDBRANCH  12  13
ENDBRANCH   1  12
TORSDOF 4
ENDMDL
MODEL 5
REMARK VINA RESULT:      -6.6      1.767      2.047
REMARK  Name = 
REMARK  5 active torsions:
REMARK  status: ('A' for Active; 'I' for Inactive)
REMARK    1  A    between atoms: C_2  and  C_3
REMARK    2  A    between atoms: C_3  and  N_4
REMARK    3  A    between atoms: N_4  and  C_5
REMARK    4  A    between atoms: N_4  and  C_6
REMARK    5  A    between atoms: C_6  and  C_7
REMARK                            x       y       z     vdW  Elec       q    Type
REMARK                         _______ _______ _______ _____ _____    ______ ____
ROOT
ATOM      1  C   UNL     1       4.679   4.832  17.493  0.00  0.00    +0.000 A 
ATOM      2  C   UNL     1       3.344   4.750  17.608  0.00  0.00    +0.000 A 
ATOM      3  C   UNL     1       2.745   4.077  18.749  0.00  0.00    +0.000 A 
ATOM      4  C   UNL     1       1.363   3.991  18.927  0.00  0.00    +0.000 A 
ATOM      5  C   UNL     1       0.840   3.247  19.991  0.00  0.00    +0.000 A 
ATOM      6  C   UNL     1       1.693   2.583  20.875  0.00  0.00    +0.000 A 
ATOM      7  C   UNL     1       3.073   2.684  20.717  0.00  0.00    +0.000 A 
ATOM      8  C   UNL     1       3.579   3.439  19.662  0.00  0.00    +0.000 A 
ATOM      9  O   UNL     1       4.975   3.549  19.561  0.00  0.00    +0.000 OA
ATOM     10  C   UNL     1       5.565   4.324  18.572  0.00  0.00    +0.000 A 
ATOM     11  O   UNL     1       6.769   4.558  18.585  0.00  0.00    +0.000 OA
ENDROOT
BRANCH   1  12
ATOM     12  C   UNL     1       5.375   5.405  16.285  0.00  0.00    +0.000 C 
BRANCH  12  13
ATOM     13  N   UNL     1       5.982   4.412  15.372  0.00  0.00    +0.000 NA
ATOM     14  C   UNL     1       7.322   4.893  14.992  0.00  0.00    +0.000 C 
BRANCH  13  15
ATOM     15  C   UNL     1       5.136   4.238  14.176  0.00  0.00    +0.000 C 
BRANCH  15  17
ATOM     16  C   UNL     1       6.527   3.250  12.120  0.00  0.00    +0.000 C 
ATOM     17  C   UNL     1       5.903   3.707  13.034  0.00  0.00    +0.000 C 
ENDBRANCH  15  17
ENDBRANCH  13  15
ENDBRANCH  12  13
ENDBRANCH   1  12
TORSDOF 4
ENDMDL
MODEL 6
REMARK VINA RESULT:      -6.6      2.364      5.840
REMARK  Name = 
REMARK  5 active torsions:
REMARK  status: ('A' for Active; 'I' for Inactive)
REMARK    1  A    between atoms: C_2  and  C_3
REMARK    2  A    between atoms: C_3  and  N_4
REMARK    3  A    between atoms: N_4  and  C_5
REMARK    4  A    between atoms: N_4  and  C_6
REMARK    5  A    between atoms: C_6  and  C_7
REMARK                            x       y       z     vdW  Elec       q    Type
REMARK                         _______ _______ _______ _____ _____    ______ ____
ROOT
ATOM      1  C   UNL     1       5.509   5.490  16.651  0.00  0.00    +0.000 A 
ATOM      2  C   UNL     1       4.945   4.758  15.677  0.00  0.00    +0.000 A 
ATOM      3  C   UNL     1       5.693   4.438  14.472  0.00  0.00    +0.000 A 
ATOM      4  C   UNL     1       5.160   3.657  13.445  0.00  0.00    +0.000 A 
ATOM      5  C   UNL     1       5.888   3.463  12.265  0.00  0.00    +0.000 A 
ATOM      6  C   UNL     1       7.144   4.051  12.105  0.00  0.00    +0.000 A 
ATOM      7  C   UNL     1       7.692   4.812  13.135  0.00  0.00    +0.000 A 
ATOM      8  C   UNL     1       6.962   4.985  14.308  0.00  0.00    +0.000 A 
ATOM      9  O   UNL     1       7.566   5.725  15.338  0.00  0.00    +0.000 OA
ATOM     10  C   UNL     1       6.933   5.903  16.560  0.00  0.00    +0.000 A 
ATOM     11  O   UNL     1       7.525   6.399  17.513  0.00  0.00    +0.000 OA
ENDROOT
BRANCH   1  12
ATOM     12  C   UNL     1       4.762   5.963  17.872  0.00  0.00    +0.000 C 
BRANCH  12  13
ATOM     13  N   UNL     1       3.785   5.002  18.430  0.00  0.00    +0.000 NA
ATOM     14  C   UNL     1       2.911   5.726  19.369  0.00  0.00    +0.000 C 
BRANCH  13  15
ATOM     15  C   UNL     1       4.489   3.904  19.119  0.00  0.00    +0.000 C 
BRANCH  15  17
ATOM     16  C   UNL     1       3.500   1.526  18.408  0.00  0.00    +0.000 C 
ATOM     17  C   UNL     1       3.955   2.584  18.734  0.00  0.00    +0.000 C 
ENDBRANCH  15  17
ENDBRANCH  13  15
ENDBRANCH  12  13
ENDBRANCH   1  12
TORSDOF 4
ENDMDL
MODEL 7
REMARK VINA RESULT:      -6.5      1.079      2.375
REMARK  Name = 
REMARK  5 active torsions:
REMARK  status: ('A' for Active; 'I' for Inactive)
REMARK    1  A    between atoms: C_2  and  C_3
REMARK    2  A    between atoms: C_3  and  N_4
REMARK    3  A    between atoms: N_4  and  C_5
REMARK    4  A    between atoms: N_4  and  C_6
REMARK    5  A    between atoms: C_6  and  C_7
REMARK                            x       y       z     vdW  Elec       q    Type
REMARK                         _______ _______ _______ _____ _____    ______ ____
ROOT
ATOM      1  C   UNL     1       4.229   4.414  16.856  0.00  0.00    +0.000 A 
ATOM      2  C   UNL     1       3.561   3.378  17.388  0.00  0.00    +0.000 A 
ATOM      3  C   UNL     1       2.681   3.580  18.528  0.00  0.00    +0.000 A 
ATOM      4  C   UNL     1       1.944   2.540  19.098  0.00  0.00    +0.000 A 
ATOM      5  C   UNL     1       1.190   2.771  20.255  0.00  0.00    +0.000 A 
ATOM      6  C   UNL     1       1.174   4.035  20.847  0.00  0.00    +0.000 A 
ATOM      7  C   UNL     1       1.889   5.082  20.271  0.00  0.00    +0.000 A 
ATOM      8  C   UNL     1       2.624   4.841  19.113  0.00  0.00    +0.000 A 
ATOM      9  O   UNL     1       3.297   5.932  18.540  0.00  0.00    +0.000 OA
ATOM     10  C   UNL     1       4.011   5.795  17.357  0.00  0.00    +0.000 A 
ATOM     11  O   UNL     1       4.454   6.775  16.768  0.00  0.00    +0.000 OA
ENDROOT
BRANCH   1  12
ATOM     12  C   UNL     1       5.248   4.267  15.754  0.00  0.00    +0.000 C 
BRANCH  12  13
ATOM     13  N   UNL     1       6.509   5.015  15.952  0.00  0.00    +0.000 NA
ATOM     14  C   UNL     1       7.242   5.030  14.675  0.00  0.00    +0.000 C 
BRANCH  13  15
ATOM     15  C   UNL     1       7.319   4.376  17.008  0.00  0.00    +0.000 C 
BRANCH  15  17
ATOM     16  C   UNL     1       7.810   6.063  19.019  0.00  0.00    +0.000 C 
ATOM     17  C   UNL     1       7.584   5.297  18.129  0.00  0.00    +0.000 C 
ENDBRANCH  15  17
ENDBRANCH  13  15
ENDBRANCH  12  13
ENDBRANCH   1  12
TORSDOF 4
ENDMDL
MODEL 8
REMARK VINA RESULT:      -6.5      2.612      5.886
REMARK  Name = 
REMARK  5 active torsions:
REMARK  status: ('A' for Active; 'I' for Inactive)
REMARK    1  A    between atoms: C_2  and  C_3
REMARK    2  A    between atoms: C_3  and  N_4
REMARK    3  A    between atoms: N_4  and  C_5
REMARK    4  A    between atoms: N_4  and  C_6
REMARK    5  A    between atoms: C_6  and  C_7
REMARK                            x       y       z     vdW  Elec       q    Type
REMARK                         _______ _______ _______ _____ _____    ______ ____
ROOT
ATOM      1  C   UNL     1       3.909   3.104  17.925  0.00  0.00    +0.000 A 
ATOM      2  C   UNL     1       4.422   3.946  17.014  0.00  0.00    +0.000 A 
ATOM      3  C   UNL     1       5.556   4.791  17.353  0.00  0.00    +0.000 A 
ATOM      4  C   UNL     1       6.142   5.662  16.433  0.00  0.00    +0.000 A 
ATOM      5  C   UNL     1       7.167   6.524  16.841  0.00  0.00    +0.000 A 
ATOM      6  C   UNL     1       7.605   6.523  18.167  0.00  0.00    +0.000 A 
ATOM      7  C   UNL     1       7.040   5.641  19.085  0.00  0.00    +0.000 A 
ATOM      8  C   UNL     1       6.031   4.780  18.661  0.00  0.00    +0.000 A 
ATOM      9  O   UNL     1       5.516   3.878  19.606  0.00  0.00    +0.000 OA
ATOM     10  C   UNL     1       4.545   2.949  19.258  0.00  0.00    +0.000 A 
ATOM     11  O   UNL     1       4.219   2.054  20.031  0.00  0.00    +0.000 OA
ENDROOT
BRANCH   1  12
ATOM     12  C   UNL     1       2.664   2.285  17.690  0.00  0.00    +0.000 C 
BRANCH  12  13
ATOM     13  N   UNL     1       1.386   3.001  17.895  0.00  0.00    +0.000 NA
ATOM     14  C   UNL     1       1.615   4.435  17.648  0.00  0.00    +0.000 C 
BRANCH  13  15
ATOM     15  C   UNL     1       0.897   2.783  19.270  0.00  0.00    +0.000 C 
BRANCH  15  17
ATOM     16  C   UNL     1       1.486   4.821  20.894  0.00  0.00    +0.000 C 
ATOM     17  C   UNL     1       1.223   3.918  20.154  0.00  0.00    +0.000 C 
ENDBRANCH  15  17
ENDBRANCH  13  15
ENDBRANCH  12  13
ENDBRANCH   1  12
TORSDOF 4
ENDMDL
MODEL 9
REMARK VINA RESULT:      -6.4      1.790      2.742
REMARK  Name = 
REMARK  5 active torsions:
REMARK  status: ('A' for Active; 'I' for Inactive)
REMARK    1  A    between atoms: C_2  and  C_3
REMARK    2  A    between atoms: C_3  and  N_4
REMARK    3  A    between atoms: N_4  and  C_5
REMARK    4  A    between atoms: N_4  and  C_6
REMARK    5  A    between atoms: C_6  and  C_7
REMARK                            x       y       z     vdW  Elec       q    Type
REMARK                         _______ _______ _______ _____ _____    ______ ____
ROOT
ATOM      1  C   UNL     1       4.737   3.683  17.393  0.00  0.00    +0.000 A 
ATOM      2  C   UNL     1       3.425   3.412  17.311  0.00  0.00    +0.000 A 
ATOM      3  C   UNL     1       2.619   3.313  18.516  0.00  0.00    +0.000 A 
ATOM      4  C   UNL     1       1.246   3.061  18.481  0.00  0.00    +0.000 A 
ATOM      5  C   UNL     1       0.538   2.877  19.674  0.00  0.00    +0.000 A 
ATOM      6  C   UNL     1       1.198   2.939  20.904  0.00  0.00    +0.000 A 
ATOM      7  C   UNL     1       2.563   3.212  20.947  0.00  0.00    +0.000 A 
ATOM      8  C   UNL     1       3.251   3.406  19.752  0.00  0.00    +0.000 A 
ATOM      9  O   UNL     1       4.617   3.720  19.841  0.00  0.00    +0.000 OA
ATOM     10  C   UNL     1       5.369   3.980  18.703  0.00  0.00    +0.000 A 
ATOM     11  O   UNL     1       6.512   4.419  18.787  0.00  0.00    +0.000 OA
ENDROOT
BRANCH   1  12
ATOM     12  C   UNL     1       5.661   3.684  16.201  0.00  0.00    +0.000 C 
BRANCH  12  13
ATOM     13  N   UNL     1       5.271   4.586  15.096  0.00  0.00    +0.000 NA
ATOM     14  C   UNL     1       5.847   4.062  13.846  0.00  0.00    +0.000 C 
BRANCH  13  15
ATOM     15  C   UNL     1       5.760   5.953  15.359  0.00  0.00    +0.000 C 
BRANCH  15  17
ATOM     16  C   UNL     1       4.242   7.245  17.137  0.00  0.00    +0.000 C 
ATOM     17  C   UNL     1       4.923   6.654  16.351  0.00  0.00    +0.000 C 
ENDBRANCH  15  17
ENDBRANCH  13  15
ENDBRANCH  12  13
ENDBRANCH   1  12
TORSDOF 4
ENDMDL
