MODEL 1
REMARK VINA RESULT:      -7.8      0.000      0.000
REMARK  Name = 
REMARK  7 active torsions:
REMARK  status: ('A' for Active; 'I' for Inactive)
REMARK    1  A    between atoms: C_1  and  N_2
REMARK    2  A    between atoms: N_2  and  C_3
REMARK    3  A    between atoms: N_2  and  C_4
REMARK    4  A    between atoms: C_4  and  C_5
REMARK    5  A    between atoms: C_5  and  C_6
REMARK    6  A    between atoms: C_6  and  N_7
REMARK    7  A    between atoms: C_17  and  C_18
REMARK                            x       y       z     vdW  Elec       q    Type
REMARK                         _______ _______ _______ _____ _____    ______ ____
ROOT
ATOM      1  N   UNL     1       2.276   7.458  18.803  0.00  0.00    +0.000 N 
ATOM      2  C   UNL     1       2.030   7.420  20.160  0.00  0.00    +0.000 C 
ATOM      3  O   UNL     1       1.961   8.416  20.877  0.00  0.00    +0.000 OA
ATOM      4  N   UNL     1       1.793   6.181  20.700  0.00  0.00    +0.000 N 
ATOM      5  C   UNL     1       1.655   5.010  19.949  0.00  0.00    +0.000 A 
ATOM      6  C   UNL     1       1.125   3.857  20.520  0.00  0.00    +0.000 A 
ATOM      7  C   UNL     1       0.955   2.716  19.732  0.00  0.00    +0.000 A 
ATOM      8  C   UNL     1       1.324   2.731  18.385  0.00  0.00    +0.000 A 
ATOM      9  C   UNL     1       1.886   3.878  17.828  0.00  0.00    +0.000 A 
ATOM     10  C   UNL     1       2.061   5.022  18.617  0.00  0.00    +0.000 A 
ATOM     11  C   UNL     1       2.762   6.259  18.109  0.00  0.00    +0.000 C 
ATOM     12  H   UNL     1       1.528   6.192  21.676  0.00  0.00    +0.000 HD
ENDROOT
BRANCH  11  13
ATOM     13  C   UNL     1       4.289   6.131  18.153  0.00  0.00    +0.000 A 
ATOM     14  C   UNL     1       5.100   6.705  17.169  0.00  0.00    +0.000 A 
ATOM     15  C   UNL     1       6.481   6.593  17.269  0.00  0.00    +0.000 A 
ATOM     16  C   UNL     1       7.029   5.902  18.340  0.00  0.00    +0.000 A 
ATOM     17  C   UNL     1       6.167   5.350  19.270  0.00  0.00    +0.000 A 
ATOM     18  N   UNL     1       4.820   5.446  19.204  0.00  0.00    +0.000 NA
ENDBRANCH  11  13
BRANCH   1  19
ATOM     19  C   UNL     1       2.219   8.724  18.067  0.00  0.00    +0.000 C 
BRANCH  19  20
ATOM     20  C   UNL     1       0.764   9.152  17.842  0.00  0.00    +0.000 C 
BRANCH  20  21
ATOM     21  C   UNL     1       0.359  10.404  18.628  0.00  0.00    +0.000 C 
BRANCH  21  23
ATOM     22  C   UNL     1      -1.688   9.981  17.413  0.00  0.00    +0.000 C 
ATOM     23  N   UNL     1      -0.916  10.983  18.152  0.00  0.00    +0.000 NA
ATOM     24  C   UNL     1      -1.736  11.523  19.239  0.00  0.00    +0.000 C 
ENDBRANCH  21  23
ENDBRANCH  20  21
ENDBRANCH  19  20
ENDBRANCH   1  19
TORSDOF 5
ENDMDL
MODEL 2
REMARK VINA RESULT:      -7.8      0.611      1.238
REMARK  Name = 
REMARK  7 active torsions:
REMARK  status: ('A' for Active; 'I' for Inactive)
REMARK    1  A    between atoms: C_1  and  N_2
REMARK    2  A    between atoms: N_2  and  C_3
REMARK    3  A    between atoms: N_2  and  C_4
REMARK    4  A    between atoms: C_4  and  C_5
REMARK    5  A    between atoms: C_5  and  C_6
REMARK    6  A    between atoms: C_6  and  N_7
REMARK    7  A    between atoms: C_17  and  C_18
REMARK                            x       y       z     vdW  Elec       q    Type
REMARK                         _______ _______ _______ _____ _____    ______ ____
ROOT
ATOM      1  N   UNL     1       2.314   7.455  18.814  0.00  0.00    +0.000 N 
ATOM      2  C   UNL     1       2.034   7.403  20.163  0.00  0.00    +0.000 C 
ATOM      3  O   UNL     1       1.933   8.392  20.886  0.00  0.00    +0.000 OA
ATOM      4  N   UNL     1       1.798   6.157  20.687  0.00  0.00    +0.000 N 
ATOM      5  C   UNL     1       1.694   4.990  19.924  0.00  0.00    +0.000 A 
ATOM      6  C   UNL     1       1.163   3.826  20.471  0.00  0.00    +0.000 A 
ATOM      7  C   UNL     1       1.028   2.690  19.670  0.00  0.00    +0.000 A 
ATOM      8  C   UNL     1       1.432   2.720  18.333  0.00  0.00    +0.000 A 
ATOM      9  C   UNL     1       1.994   3.879  17.800  0.00  0.00    +0.000 A 
ATOM     10  C   UNL     1       2.134   5.018  18.602  0.00  0.00    +0.000 A 
ATOM     11  C   UNL     1       2.834   6.267  18.123  0.00  0.00    +0.000 C 
ATOM     12  H   UNL     1       1.507   6.157  21.656  0.00  0.00    +0.000 HD
ENDROOT
BRANCH  11  13
ATOM     13  C   UNL     1       4.360   6.157  18.206  0.00  0.00    +0.000 A 
ATOM     14  C   UNL     1       4.986   5.392  19.196  0.00  0.00    +0.000 A 
ATOM     15  C   UNL     1       6.372   5.294  19.210  0.00  0.00    +0.000 A 
ATOM     16  C   UNL     1       7.110   5.967  18.246  0.00  0.00    +0.000 A 
ATOM     17  C   UNL     1       6.425   6.714  17.305  0.00  0.00    +0.000 A 
ATOM     18  N   UNL     1       5.078   6.826  17.261  0.00  0.00    +0.000 NA
ENDBRANCH  11  13
BRANCH   1  19
ATOM     19  C   UNL     1       2.261   8.726  18.086  0.00  0.00    +0.000 C 
BRANCH  19  20
ATOM     20  C   UNL     1       0.815   9.075  17.716  0.00  0.00    +0.000 C 
BRANCH  20  21
ATOM     21  C   UNL     1       0.258  10.286  18.473  0.00  0.00    +0.000 C 
BRANCH  21  23
ATOM     22  C   UNL     1      -1.713  11.536  19.107  0.00  0.00    +0.000 C 
ATOM     23  N   UNL     1      -1.219  10.274  18.549  0.00  0.00    +0.000 NA
ATOM     24  C   UNL     1      -1.854  10.037  17.250  0.00  0.00    +0.000 C 
ENDBRANCH  21  23
ENDBRANCH  20  21
ENDBRANCH  19  20
ENDBRANCH   1  19
TORSDOF 5
ENDMDL
MODEL 3
REMARK VINA RESULT:      -7.7      0.881      1.216
REMARK  Name = 
REMARK  7 active torsions:
REMARK  status: ('A' for Active; 'I' for Inactive)
REMARK    1  A    between atoms: C_1  and  N_2
REMARK    2  A    between atoms: N_2  and  C_3
REMARK    3  A    between atoms: N_2  and  C_4
REMARK    4  A    between atoms: C_4  and  C_5
REMARK    5  A    between atoms: C_5  and  C_6
REMARK    6  A    between atoms: C_6  and  N_7
REMARK    7  A    between atoms: C_17  and  C_18
REMARK                            x       y       z     vdW  Elec       q    Type
REMARK                         _______ _______ _______ _____ _____    ______ ____
ROOT
ATOM      1  N   UNL     1       2.321   7.452  18.882  0.00  0.00    +0.000 N 
ATOM      2  C   UNL     1       2.074   7.360  20.236  0.00  0.00    +0.000 C 
ATOM      3  O   UNL     1       2.005   8.326  20.992  0.00  0.00    +0.000 OA
ATOM      4  N   UNL     1       1.832   6.101  20.724  0.00  0.00    +0.000 N 
ATOM      5  C   UNL     1       1.693   4.961  19.926  0.00  0.00    +0.000 A 
ATOM      6  C   UNL     1       1.159   3.788  20.449  0.00  0.00    +0.000 A 
ATOM      7  C   UNL     1       0.988   2.680  19.615  0.00  0.00    +0.000 A 
ATOM      8  C   UNL     1       1.359   2.749  18.270  0.00  0.00    +0.000 A 
ATOM      9  C   UNL     1       1.925   3.917  17.761  0.00  0.00    +0.000 A 
ATOM     10  C   UNL     1       2.101   5.026  18.596  0.00  0.00    +0.000 A 
ATOM     11  C   UNL     1       2.806   6.281  18.140  0.00  0.00    +0.000 C 
ATOM     12  H   UNL     1       1.566   6.073  21.699  0.00  0.00    +0.000 HD
ENDROOT
BRANCH  11  13
ATOM     13  C   UNL     1       4.333   6.148  18.181  0.00  0.00    +0.000 A 
ATOM     14  C   UNL     1       5.144   6.721  17.196  0.00  0.00    +0.000 A 
ATOM     15  C   UNL     1       6.525   6.603  17.294  0.00  0.00    +0.000 A 
ATOM     16  C   UNL     1       7.072   5.910  18.363  0.00  0.00    +0.000 A 
ATOM     17  C   UNL     1       6.210   5.359  19.294  0.00  0.00    +0.000 A 
ATOM     18  N   UNL     1       4.863   5.460  19.230  0.00  0.00    +0.000 NA
ENDBRANCH  11  13
BRANCH   1  19
ATOM     19  C   UNL     1       2.269   8.747  18.198  0.00  0.00    +0.000 C 
BRANCH  19  20
ATOM     20  C   UNL     1       0.827   9.092  17.806  0.00  0.00    +0.000 C 
BRANCH  20  21
ATOM     21  C   UNL     1       0.322  10.409  18.405  0.00  0.00    +0.000 C 
BRANCH  21  23
ATOM     22  C   UNL     1       1.825  12.304  18.458  0.00  0.00    +0.000 C 
ATOM     23  N   UNL     1       1.366  11.114  19.181  0.00  0.00    +0.000 NA
ATOM     24  C   UNL     1       0.915  11.504  20.519  0.00  0.00    +0.000 C 
ENDBRANCH  21  23
ENDBRANCH  20  21
ENDBRANCH  19  20
ENDBRANCH   1  19
TORSDOF 5
ENDMDL
MODEL 4
REMARK VINA RESULT:      -7.6      1.042      1.554
REMARK  Name = 
REMARK  7 active torsions:
REMARK  status: ('A' for Active; 'I' for Inactive)
REMARK    1  A    between atoms: C_1  and  N_2
REMARK    2  A    between atoms: N_2  and  C_3
REMARK    3  A    between atoms: N_2  and  C_4
REMARK    4  A    between atoms: C_4  and  C_5
REMARK    5  A    between atoms: C_5  and  C_6
REMARK    6  A    between atoms: C_6  and  N_7
REMARK    7  A    between atoms: C_17  and  C_18
REMARK                            x       y       z     vdW  Elec       q    Type
REMARK                         _______ _______ _______ _____ _____    ______ ____
ROOT
ATOM      1  N   UNL     1       2.314   7.513  18.909  0.00  0.00    +0.000 N 
ATOM      2  C   UNL     1       2.040   7.409  20.257  0.00  0.00    +0.000 C 
ATOM      3  O   UNL     1       1.960   8.369  21.020  0.00  0.00    +0.000 OA
ATOM      4  N   UNL     1       1.786   6.146  20.729  0.00  0.00    +0.000 N 
ATOM      5  C   UNL     1       1.658   5.014  19.919  0.00  0.00    +0.000 A 
ATOM      6  C   UNL     1       1.111   3.838  20.420  0.00  0.00    +0.000 A 
ATOM      7  C   UNL     1       0.952   2.738  19.573  0.00  0.00    +0.000 A 
ATOM      8  C   UNL     1       1.349   2.818  18.236  0.00  0.00    +0.000 A 
ATOM      9  C   UNL     1       1.927   3.988  17.748  0.00  0.00    +0.000 A 
ATOM     10  C   UNL     1       2.091   5.090  18.597  0.00  0.00    +0.000 A 
ATOM     11  C   UNL     1       2.809   6.347  18.166  0.00  0.00    +0.000 C 
ATOM     12  H   UNL     1       1.501   6.110  21.699  0.00  0.00    +0.000 HD
ENDROOT
BRANCH  11  13
ATOM     13  C   UNL     1       4.334   6.208  18.234  0.00  0.00    +0.000 A 
ATOM     14  C   UNL     1       4.954   5.428  19.215  0.00  0.00    +0.000 A 
ATOM     15  C   UNL     1       6.338   5.304  19.216  0.00  0.00    +0.000 A 
ATOM     16  C   UNL     1       7.079   5.966  18.248  0.00  0.00    +0.000 A 
ATOM     17  C   UNL     1       6.401   6.729  17.315  0.00  0.00    +0.000 A 
ATOM     18  N   UNL     1       5.055   6.867  17.284  0.00  0.00    +0.000 NA
ENDBRANCH  11  13
BRANCH   1  19
ATOM     19  C   UNL     1       2.278   8.814  18.236  0.00  0.00    +0.000 C 
BRANCH  19  20
ATOM     20  C   UNL     1       0.843   9.171  17.828  0.00  0.00    +0.000 C 
BRANCH  20  21
ATOM     21  C   UNL     1       0.249  10.342  18.619  0.00  0.00    +0.000 C 
BRANCH  21  23
ATOM     22  C   UNL     1       1.545  12.376  18.440  0.00  0.00    +0.000 C 
ATOM     23  N   UNL     1       1.290  11.183  19.251  0.00  0.00    +0.000 NA
ATOM     24  C   UNL     1       0.943  11.588  20.615  0.00  0.00    +0.000 C 
ENDBRANCH  21  23
ENDBRANCH  20  21
ENDBRANCH  19  20
ENDBRANCH   1  19
TORSDOF 5
ENDMDL
MODEL 5
REMARK VINA RESULT:      -7.3      2.384      5.844
REMARK  Name = 
REMARK  7 active torsions:
REMARK  status: ('A' for Active; 'I' for Inactive)
REMARK    1  A    between atoms: C_1  and  N_2
REMARK    2  A    between atoms: N_2  and  C_3
REMARK    3  A    between atoms: N_2  and  C_4
REMARK    4  A    between atoms: C_4  and  C_5
REMARK    5  A    between atoms: C_5  and  C_6
REMARK    6  A    between atoms: C_6  and  N_7
REMARK    7  A    between atoms: C_17  and  C_18
REMARK                            x       y       z     vdW  Elec       q    Type
REMARK                         _______ _______ _______ _____ _____    ______ ____
ROOT
ATOM      1  N   UNL     1       4.053   4.424  17.991  0.00  0.00    +0.000 N 
ATOM      2  C   UNL     1       4.646   3.921  19.131  0.00  0.00    +0.000 C 
ATOM      3  O   UNL     1       4.260   2.915  19.722  0.00  0.00    +0.000 OA
ATOM      4  N   UNL     1       5.770   4.574  19.569  0.00  0.00    +0.000 N 
ATOM      5  C   UNL     1       6.405   5.604  18.869  0.00  0.00    +0.000 A 
ATOM      6  C   UNL     1       7.689   6.012  19.213  0.00  0.00    +0.000 A 
ATOM      7  C   UNL     1       8.317   7.010  18.464  0.00  0.00    +0.000 A 
ATOM      8  C   UNL     1       7.655   7.600  17.385  0.00  0.00    +0.000 A 
ATOM      9  C   UNL     1       6.356   7.210  17.065  0.00  0.00    +0.000 A 
ATOM     10  C   UNL     1       5.723   6.212  17.817  0.00  0.00    +0.000 A 
ATOM     11  C   UNL     1       4.282   5.820  17.597  0.00  0.00    +0.000 C 
ATOM     12  H   UNL     1       6.233   4.132  20.352  0.00  0.00    +0.000 HD
ENDROOT
BRANCH  11  13
ATOM     13  C   UNL     1       3.299   6.790  18.263  0.00  0.00    +0.000 A 
ATOM     14  C   UNL     1       2.714   7.842  17.551  0.00  0.00    +0.000 A 
ATOM     15  C   UNL     1       1.801   8.674  18.188  0.00  0.00    +0.000 A 
ATOM     16  C   UNL     1       1.496   8.451  19.523  0.00  0.00    +0.000 A 
ATOM     17  C   UNL     1       2.121   7.398  20.168  0.00  0.00    +0.000 A 
ATOM     18  N   UNL     1       3.009   6.568  19.575  0.00  0.00    +0.000 NA
ENDBRANCH  11  13
BRANCH   1  19
ATOM     19  C   UNL     1       3.062   3.637  17.252  0.00  0.00    +0.000 C 
BRANCH  19  20
ATOM     20  C   UNL     1       1.670   3.805  17.872  0.00  0.00    +0.000 C 
BRANCH  20  21
ATOM     21  C   UNL     1       1.184   2.572  18.643  0.00  0.00    +0.000 C 
BRANCH  21  23
ATOM     22  C   UNL     1       1.590   2.217  21.001  0.00  0.00    +0.000 C 
ATOM     23  N   UNL     1       0.746   2.901  20.017  0.00  0.00    +0.000 NA
ATOM     24  C   UNL     1       0.755   4.340  20.288  0.00  0.00    +0.000 C 
ENDBRANCH  21  23
ENDBRANCH  20  21
ENDBRANCH  19  20
ENDBRANCH   1  19
TORSDOF 5
ENDMDL
MODEL 6
REMARK VINA RESULT:      -7.1      3.747      5.880
REMARK  Name = 
REMARK  7 active torsions:
REMARK  status: ('A' for Active; 'I' for Inactive)
REMARK    1  A    between atoms: C_1  and  N_2
REMARK    2  A    between atoms: N_2  and  C_3
REMARK    3  A    between atoms: N_2  and  C_4
REMARK    4  A    between atoms: C_4  and  C_5
REMARK    5  A    between atoms: C_5  and  C_6
REMARK    6  A    between atoms: C_6  and  N_7
REMARK    7  A    between atoms: C_17  and  C_18
REMARK                            x       y       z     vdW  Elec       q    Type
REMARK                         _______ _______ _______ _____ _____    ______ ____
ROOT
ATOM      1  N   UNL     1       7.061   6.466  18.261  0.00  0.00    +0.000 N 
ATOM      2  C   UNL     1       7.123   5.490  19.234  0.00  0.00    +0.000 C 
ATOM      3  O   UNL     1       8.157   5.150  19.805  0.00  0.00    +0.000 OA
ATOM      4  N   UNL     1       5.928   4.928  19.607  0.00  0.00    +0.000 N 
ATOM      5  C   UNL     1       4.678   5.373  19.167  0.00  0.00    +0.000 A 
ATOM      6  C   UNL     1       3.512   4.963  19.805  0.00  0.00    +0.000 A 
ATOM      7  C   UNL     1       2.281   5.463  19.373  0.00  0.00    +0.000 A 
ATOM      8  C   UNL     1       2.222   6.358  18.303  0.00  0.00    +0.000 A 
ATOM      9  C   UNL     1       3.391   6.738  17.646  0.00  0.00    +0.000 A 
ATOM     10  C   UNL     1       4.626   6.236  18.075  0.00  0.00    +0.000 A 
ATOM     11  C   UNL     1       5.916   6.518  17.343  0.00  0.00    +0.000 C 
ATOM     12  H   UNL     1       5.993   4.282  20.383  0.00  0.00    +0.000 HD
ENDROOT
BRANCH  11  13
ATOM     13  C   UNL     1       6.104   5.623  16.113  0.00  0.00    +0.000 A 
ATOM     14  C   UNL     1       5.137   4.685  15.736  0.00  0.00    +0.000 A 
ATOM     15  C   UNL     1       5.336   3.920  14.593  0.00  0.00    +0.000 A 
ATOM     16  C   UNL     1       6.497   4.094  13.854  0.00  0.00    +0.000 A 
ATOM     17  C   UNL     1       7.416   5.031  14.292  0.00  0.00    +0.000 A 
ATOM     18  N   UNL     1       7.250   5.794  15.396  0.00  0.00    +0.000 NA
ENDBRANCH  11  13
BRANCH   1  19
ATOM     19  C   UNL     1       8.200   7.354  18.017  0.00  0.00    +0.000 C 
BRANCH  19  20
ATOM     20  C   UNL     1       7.730   8.805  17.859  0.00  0.00    +0.000 C 
BRANCH  20  21
ATOM     21  C   UNL     1       8.873   9.825  17.814  0.00  0.00    +0.000 C 
BRANCH  21  23
ATOM     22  C   UNL     1       9.478  10.752  19.964  0.00  0.00    +0.000 C 
ATOM     23  N   UNL     1       8.668  10.945  18.758  0.00  0.00    +0.000 NA
ATOM     24  C   UNL     1       8.979  12.250  18.169  0.00  0.00    +0.000 C 
ENDBRANCH  21  23
ENDBRANCH  20  21
ENDBRANCH  19  20
ENDBRANCH   1  19
TORSDOF 5
ENDMDL
MODEL 7
REMARK VINA RESULT:      -7.0      2.406      5.974
REMARK  Name = 
REMARK  7 active torsions:
REMARK  status: ('A' for Active; 'I' for Inactive)
REMARK    1  A    between atoms: C_1  and  N_2
REMARK    2  A    between atoms: N_2  and  C_3
REMARK    3  A    between atoms: N_2  and  C_4
REMARK    4  A    between atoms: C_4  and  C_5
REMARK    5  A    between atoms: C_5  and  C_6
REMARK    6  A    between atoms: C_6  and  N_7
REMARK    7  A    between atoms: C_17  and  C_18
REMARK                            x       y       z     vdW  Elec       q    Type
REMARK                         _______ _______ _______ _____ _____    ______ ____
ROOT
ATOM      1  N   UNL     1       4.123   4.382  17.958  0.00  0.00    +0.000 N 
ATOM      2  C   UNL     1       4.743   3.872  19.080  0.00  0.00    +0.000 C 
ATOM      3  O   UNL     1       4.394   2.843  19.653  0.00  0.00    +0.000 OA
ATOM      4  N   UNL     1       5.854   4.548  19.520  0.00  0.00    +0.000 N 
ATOM      5  C   UNL     1       6.450   5.610  18.835  0.00  0.00    +0.000 A 
ATOM      6  C   UNL     1       7.726   6.048  19.174  0.00  0.00    +0.000 A 
ATOM      7  C   UNL     1       8.316   7.080  18.440  0.00  0.00    +0.000 A 
ATOM      8  C   UNL     1       7.625   7.674  17.381  0.00  0.00    +0.000 A 
ATOM      9  C   UNL     1       6.333   7.253  17.068  0.00  0.00    +0.000 A 
ATOM     10  C   UNL     1       5.739   6.221  17.805  0.00  0.00    +0.000 A 
ATOM     11  C   UNL     1       4.307   5.792  17.592  0.00  0.00    +0.000 C 
ATOM     12  H   UNL     1       6.339   4.102  20.287  0.00  0.00    +0.000 HD
ENDROOT
BRANCH  11  13
ATOM     13  C   UNL     1       3.304   6.718  18.290  0.00  0.00    +0.000 A 
ATOM     14  C   UNL     1       2.943   6.529  19.628  0.00  0.00    +0.000 A 
ATOM     15  C   UNL     1       2.056   7.415  20.229  0.00  0.00    +0.000 A 
ATOM     16  C   UNL     1       1.539   8.465  19.485  0.00  0.00    +0.000 A 
ATOM     17  C   UNL     1       1.931   8.585  18.164  0.00  0.00    +0.000 A 
ATOM     18  N   UNL     1       2.795   7.743  17.552  0.00  0.00    +0.000 NA
ENDBRANCH  11  13
BRANCH   1  19
ATOM     19  C   UNL     1       3.147   3.583  17.213  0.00  0.00    +0.000 C 
BRANCH  19  20
ATOM     20  C   UNL     1       1.753   3.712  17.841  0.00  0.00    +0.000 C 
BRANCH  20  21
ATOM     21  C   UNL     1       1.304   2.463  18.608  0.00  0.00    +0.000 C 
BRANCH  21  23
ATOM     22  C   UNL     1       1.711   2.199  20.978  0.00  0.00    +0.000 C 
ATOM     23  N   UNL     1       0.820   2.780  19.970  0.00  0.00    +0.000 NA
ATOM     24  C   UNL     1       0.693   4.220  20.208  0.00  0.00    +0.000 C 
ENDBRANCH  21  23
ENDBRANCH  20  21
ENDBRANCH  19  20
ENDBRANCH   1  19
TORSDOF 5
ENDMDL
MODEL 8
REMARK VINA RESULT:      -6.9      2.984      6.248
REMARK  Name = 
REMARK  7 active torsions:
REMARK  status: ('A' for Active; 'I' for Inactive)
REMARK    1  A    between atoms: C_1  and  N_2
REMARK    2  A    between atoms: N_2  and  C_3
REMARK    3  A    between atoms: N_2  and  C_4
REMARK    4  A    between atoms: C_4  and  C_5
REMARK    5  A    between atoms: C_5  and  C_6
REMARK    6  A    between atoms: C_6  and  N_7
REMARK    7  A    between atoms: C_17  and  C_18
REMARK                            x       y       z     vdW  Elec       q    Type
REMARK                         _______ _______ _______ _____ _____    ______ ____
ROOT
ATOM      1  N   UNL     1       5.708   4.387  18.582  0.00  0.00    +0.000 N 
ATOM      2  C   UNL     1       6.957   4.971  18.532  0.00  0.00    +0.000 C 
ATOM      3  O   UNL     1       7.661   5.179  19.518  0.00  0.00    +0.000 OA
ATOM      4  N   UNL     1       7.439   5.270  17.282  0.00  0.00    +0.000 N 
ATOM      5  C   UNL     1       6.811   4.900  16.089  0.00  0.00    +0.000 A 
ATOM      6  C   UNL     1       7.490   4.967  14.877  0.00  0.00    +0.000 A 
ATOM      7  C   UNL     1       6.853   4.545  13.708  0.00  0.00    +0.000 A 
ATOM      8  C   UNL     1       5.540   4.070  13.755  0.00  0.00    +0.000 A 
ATOM      9  C   UNL     1       4.853   4.037  14.967  0.00  0.00    +0.000 A 
ATOM     10  C   UNL     1       5.489   4.463  16.140  0.00  0.00    +0.000 A 
ATOM     11  C   UNL     1       4.770   4.558  17.465  0.00  0.00    +0.000 C 
ATOM     12  H   UNL     1       8.390   5.612  17.270  0.00  0.00    +0.000 HD
ENDROOT
BRANCH  11  13
ATOM     13  C   UNL     1       3.930   5.834  17.589  0.00  0.00    +0.000 A 
ATOM     14  C   UNL     1       2.636   5.809  18.118  0.00  0.00    +0.000 A 
ATOM     15  C   UNL     1       1.925   6.996  18.244  0.00  0.00    +0.000 A 
ATOM     16  C   UNL     1       2.511   8.184  17.832  0.00  0.00    +0.000 A 
ATOM     17  C   UNL     1       3.790   8.134  17.308  0.00  0.00    +0.000 A 
ATOM     18  N   UNL     1       4.510   6.995  17.177  0.00  0.00    +0.000 NA
ENDBRANCH  11  13
BRANCH   1  19
ATOM     19  C   UNL     1       5.234   3.736  19.806  0.00  0.00    +0.000 C 
BRANCH  19  20
ATOM     20  C   UNL     1       4.107   2.745  19.488  0.00  0.00    +0.000 C 
BRANCH  20  21
ATOM     21  C   UNL     1       3.085   2.589  20.618  0.00  0.00    +0.000 C 
BRANCH  21  23
ATOM     22  C   UNL     1       0.939   3.688  20.426  0.00  0.00    +0.000 C 
ATOM     23  N   UNL     1       1.698   2.474  20.115  0.00  0.00    +0.000 NA
ATOM     24  C   UNL     1       1.636   2.218  18.674  0.00  0.00    +0.000 C 
ENDBRANCH  21  23
ENDBRANCH  20  21
ENDBRANCH  19  20
ENDBRANCH   1  19
TORSDOF 5
ENDMDL
MODEL 9
REMARK VINA RESULT:      -6.8      1.991      4.419
REMARK  Name = 
REMARK  7 active torsions:
REMARK  status: ('A' for Active; 'I' for Inactive)
REMARK    1  A    between atoms: C_1  and  N_2
REMARK    2  A    between atoms: N_2  and  C_3
REMARK    3  A    between atoms: N_2  and  C_4
REMARK    4  A    between atoms: C_4  and  C_5
REMARK    5  A    between atoms: C_5  and  C_6
REMARK    6  A    between atoms: C_6  and  N_7
REMARK    7  A    between atoms: C_17  and  C_18
REMARK                            x       y       z     vdW  Elec       q    Type
REMARK                         _______ _______ _______ _____ _____    ______ ____
ROOT
ATOM      1  N   UNL     1       2.655   6.767  19.376  0.00  0.00    +0.000 N 
ATOM      2  C   UNL     1       2.598   7.418  18.161  0.00  0.00    +0.000 C 
ATOM      3  O   UNL     1       1.665   8.134  17.805  0.00  0.00    +0.000 OA
ATOM      4  N   UNL     1       3.697   7.286  17.349  0.00  0.00    +0.000 N 
ATOM      5  C   UNL     1       4.887   6.660  17.733  0.00  0.00    +0.000 A 
ATOM      6  C   UNL     1       6.049   6.822  16.985  0.00  0.00    +0.000 A 
ATOM      7  C   UNL     1       7.234   6.224  17.420  0.00  0.00    +0.000 A 
ATOM      8  C   UNL     1       7.249   5.462  18.590  0.00  0.00    +0.000 A 
ATOM      9  C   UNL     1       6.074   5.276  19.317  0.00  0.00    +0.000 A 
ATOM     10  C   UNL     1       4.884   5.871  18.881  0.00  0.00    +0.000 A 
ATOM     11  C   UNL     1       3.557   5.622  19.556  0.00  0.00    +0.000 C 
ATOM     12  H   UNL     1       3.666   7.845  16.507  0.00  0.00    +0.000 HD
ENDROOT
BRANCH  11  13
ATOM     13  C   UNL     1       2.918   4.295  19.130  0.00  0.00    +0.000 A 
ATOM     14  C   UNL     1       3.016   3.825  17.817  0.00  0.00    +0.000 A 
ATOM     15  C   UNL     1       2.451   2.599  17.486  0.00  0.00    +0.000 A 
ATOM     16  C   UNL     1       1.791   1.870  18.464  0.00  0.00    +0.000 A 
ATOM     17  C   UNL     1       1.723   2.401  19.740  0.00  0.00    +0.000 A 
ATOM     18  N   UNL     1       2.267   3.588  20.095  0.00  0.00    +0.000 NA
ENDBRANCH  11  13
BRANCH   1  19
ATOM     19  C   UNL     1       1.706   7.091  20.444  0.00  0.00    +0.000 C 
BRANCH  19  20
ATOM     20  C   UNL     1       1.669   8.605  20.691  0.00  0.00    +0.000 C 
BRANCH  20  21
ATOM     21  C   UNL     1       1.339   8.987  22.138  0.00  0.00    +0.000 C 
BRANCH  21  23
ATOM     22  C   UNL     1       0.322  10.795  20.894  0.00  0.00    +0.000 C 
ATOM     23  N   UNL     1       0.623  10.278  22.232  0.00  0.00    +0.000 NA
ATOM     24  C   UNL     1      -0.617  10.186  23.007  0.00  0.00    +0.000 C 
ENDBRANCH  21  23
ENDBRANCH  20  21
ENDBRANCH  19  20
ENDBRANCH   1  19
TORSDOF 5
ENDMDL
