MODEL 1
REMARK VINA RESULT:      -8.5      0.000      0.000
REMARK  Name = 
REMARK  7 active torsions:
REMARK  status: ('A' for Active; 'I' for Inactive)
REMARK    1  A    between atoms: C_1  and  C_2
REMARK    2  A    between atoms: C_2  and  N_3
REMARK    3  A    between atoms: C_2  and  C_22
REMARK    4  A    between atoms: N_3  and  C_4
REMARK    5  A    between atoms: C_10  and  C_11
REMARK    6  A    between atoms: C_14  and  C_15
REMARK    7  A    between atoms: C_15  and  O_16
REMARK                            x       y       z     vdW  Elec       q    Type
REMARK                         _______ _______ _______ _____ _____    ______ ____
ROOT
ATOM      1  C   UNL     1       4.117   4.102  17.422  0.00  0.00    +0.000 A 
ATOM      2  N   UNL     1       4.210   2.787  17.715  0.00  0.00    +0.000 NA
ATOM      3  C   UNL     1       3.599   2.324  18.820  0.00  0.00    +0.000 A 
ATOM      4  N   UNL     1       2.873   3.015  19.700  0.00  0.00    +0.000 NA
ATOM      5  C   UNL     1       2.785   4.314  19.372  0.00  0.00    +0.000 A 
ATOM      6  S   UNL     1       1.908   5.396  20.345  0.00  0.00    +0.000 S 
ATOM      7  C   UNL     1       2.287   6.744  19.343  0.00  0.00    +0.000 A 
ATOM      8  C   UNL     1       3.063   6.335  18.270  0.00  0.00    +0.000 A 
ATOM      9  C   UNL     1       3.358   4.929  18.274  0.00  0.00    +0.000 A 
ENDROOT
BRANCH   7  10
ATOM     10  C   UNL     1       1.772   8.089  19.670  0.00  0.00    +0.000 A 
ATOM     11  C   UNL     1       1.415   8.443  20.982  0.00  0.00    +0.000 A 
ATOM     12  C   UNL     1       0.897   9.712  21.279  0.00  0.00    +0.000 A 
ATOM     13  C   UNL     1       0.741  10.675  20.276  0.00  0.00    +0.000 A 
ATOM     14  C   UNL     1       1.099  10.333  18.966  0.00  0.00    +0.000 A 
ATOM     15  C   UNL     1       1.614   9.066  18.677  0.00  0.00    +0.000 A 
ATOM     16  F   UNL     1       1.934   8.802  17.401  0.00  0.00    +0.000 F 
BRANCH  13  17
ATOM     17  C   UNL     1       0.119  12.006  20.606  0.00  0.00    +0.000 C 
BRANCH  17  18
ATOM     18  O   UNL     1       0.166  12.273  22.002  0.00  0.00    +0.000 OA
ATOM     19  H   UNL     1      -0.404  13.045  22.161  0.00  0.00    +0.000 HD
ENDBRANCH  17  18
ENDBRANCH  13  17
ENDBRANCH   7  10
BRANCH   1  20
ATOM     20  N   UNL     1       4.779   4.636  16.308  0.00  0.00    +0.000 N 
ATOM     21  H   UNL     1       4.152   4.527  15.513  0.00  0.00    +0.000 HD
BRANCH  20  23
ATOM     22  C   UNL     1       7.207   4.653  16.819  0.00  0.00    +0.000 C 
ATOM     23  C   UNL     1       6.077   4.024  15.990  0.00  0.00    +0.000 C 
BRANCH  23  24
ATOM     24  C   UNL     1       6.412   4.258  14.519  0.00  0.00    +0.000 A 
ATOM     25  C   UNL     1       5.785   3.481  13.531  0.00  0.00    +0.000 A 
ATOM     26  C   UNL     1       6.188   3.565  12.196  0.00  0.00    +0.000 A 
ATOM     27  C   UNL     1       7.216   4.433  11.831  0.00  0.00    +0.000 A 
ATOM     28  C   UNL     1       7.831   5.228  12.795  0.00  0.00    +0.000 A 
ATOM     29  C   UNL     1       7.433   5.141  14.129  0.00  0.00    +0.000 A 
ENDBRANCH  23  24
ENDBRANCH  20  23
ENDBRANCH   1  20
TORSDOF 6
ENDMDL
MODEL 2
REMARK VINA RESULT:      -8.5      0.510      1.055
REMARK  Name = 
REMARK  7 active torsions:
REMARK  status: ('A' for Active; 'I' for Inactive)
REMARK    1  A    between atoms: C_1  and  C_2
REMARK    2  A    between atoms: C_2  and  N_3
REMARK    3  A    between atoms: C_2  and  C_22
REMARK    4  A    between atoms: N_3  and  C_4
REMARK    5  A    between atoms: C_10  and  C_11
REMARK    6  A    between atoms: C_14  and  C_15
REMARK    7  A    between atoms: C_15  and  O_16
REMARK                            x       y       z     vdW  Elec       q    Type
REMARK                         _______ _______ _______ _____ _____    ______ ____
ROOT
ATOM      1  C   UNL     1       4.054   4.241  17.360  0.00  0.00    +0.000 A 
ATOM      2  N   UNL     1       4.174   2.906  17.530  0.00  0.00    +0.000 NA
ATOM      3  C   UNL     1       3.605   2.335  18.606  0.00  0.00    +0.000 A 
ATOM      4  N   UNL     1       2.899   2.932  19.567  0.00  0.00    +0.000 NA
ATOM      5  C   UNL     1       2.783   4.255  19.362  0.00  0.00    +0.000 A 
ATOM      6  S   UNL     1       1.923   5.230  20.455  0.00  0.00    +0.000 S 
ATOM      7  C   UNL     1       2.252   6.668  19.568  0.00  0.00    +0.000 A 
ATOM      8  C   UNL     1       2.999   6.371  18.439  0.00  0.00    +0.000 A 
ATOM      9  C   UNL     1       3.312   4.974  18.307  0.00  0.00    +0.000 A 
ENDROOT
BRANCH   7  10
ATOM     10  C   UNL     1       1.730   7.970  20.031  0.00  0.00    +0.000 A 
ATOM     11  C   UNL     1       1.519   8.237  21.395  0.00  0.00    +0.000 A 
ATOM     12  C   UNL     1       0.993   9.463  21.824  0.00  0.00    +0.000 A 
ATOM     13  C   UNL     1       0.683  10.471  20.904  0.00  0.00    +0.000 A 
ATOM     14  C   UNL     1       0.895  10.216  19.543  0.00  0.00    +0.000 A 
ATOM     15  C   UNL     1       1.418   8.991  19.123  0.00  0.00    +0.000 A 
ATOM     16  F   UNL     1       1.594   8.810  17.804  0.00  0.00    +0.000 F 
BRANCH  13  17
ATOM     17  C   UNL     1       0.055  11.755  21.382  0.00  0.00    +0.000 C 
BRANCH  17  18
ATOM     18  O   UNL     1      -0.329  11.671  22.749  0.00  0.00    +0.000 OA
ATOM     19  H   UNL     1      -0.318  10.729  22.988  0.00  0.00    +0.000 HD
ENDBRANCH  17  18
ENDBRANCH  13  17
ENDBRANCH   7  10
BRANCH   1  20
ATOM     20  N   UNL     1       4.673   4.883  16.280  0.00  0.00    +0.000 N 
ATOM     21  H   UNL     1       4.230   4.529  15.434  0.00  0.00    +0.000 HD
BRANCH  20  23
ATOM     22  C   UNL     1       6.884   5.942  16.663  0.00  0.00    +0.000 C 
ATOM     23  C   UNL     1       6.128   4.696  16.180  0.00  0.00    +0.000 C 
BRANCH  23  24
ATOM     24  C   UNL     1       6.521   4.466  14.723  0.00  0.00    +0.000 A 
ATOM     25  C   UNL     1       7.549   5.233  14.151  0.00  0.00    +0.000 A 
ATOM     26  C   UNL     1       7.821   5.154  12.783  0.00  0.00    +0.000 A 
ATOM     27  C   UNL     1       7.074   4.302  11.972  0.00  0.00    +0.000 A 
ATOM     28  C   UNL     1       6.067   3.517  12.527  0.00  0.00    +0.000 A 
ATOM     29  C   UNL     1       5.791   3.599  13.892  0.00  0.00    +0.000 A 
ENDBRANCH  23  24
ENDBRANCH  20  23
ENDBRANCH   1  20
TORSDOF 6
ENDMDL
MODEL 3
REMARK VINA RESULT:      -8.3      2.217      5.056
REMARK  Name = 
REMARK  7 active torsions:
REMARK  status: ('A' for Active; 'I' for Inactive)
REMARK    1  A    between atoms: C_1  and  C_2
REMARK    2  A    between atoms: C_2  and  N_3
REMARK    3  A    between atoms: C_2  and  C_22
REMARK    4  A    between atoms: N_3  and  C_4
REMARK    5  A    between atoms: C_10  and  C_11
REMARK    6  A    between atoms: C_14  and  C_15
REMARK    7  A    between atoms: C_15  and  O_16
REMARK                            x       y       z     vdW  Elec       q    Type
REMARK                         _______ _______ _______ _____ _____    ______ ____
ROOT
ATOM      1  C   UNL     1       5.048   4.394  17.420  0.00  0.00    +0.000 A 
ATOM      2  N   UNL     1       5.834   4.385  16.322  0.00  0.00    +0.000 NA
ATOM      3  C   UNL     1       5.869   5.478  15.540  0.00  0.00    +0.000 A 
ATOM      4  N   UNL     1       5.213   6.626  15.714  0.00  0.00    +0.000 NA
ATOM      5  C   UNL     1       4.454   6.611  16.822  0.00  0.00    +0.000 A 
ATOM      6  S   UNL     1       3.525   7.965  17.255  0.00  0.00    +0.000 S 
ATOM      7  C   UNL     1       2.878   7.188  18.649  0.00  0.00    +0.000 A 
ATOM      8  C   UNL     1       3.403   5.910  18.767  0.00  0.00    +0.000 A 
ATOM      9  C   UNL     1       4.319   5.564  17.715  0.00  0.00    +0.000 A 
ENDROOT
BRANCH   7  10
ATOM     10  C   UNL     1       1.931   7.898  19.531  0.00  0.00    +0.000 A 
ATOM     11  C   UNL     1       1.465   9.189  19.227  0.00  0.00    +0.000 A 
ATOM     12  C   UNL     1       0.591   9.869  20.086  0.00  0.00    +0.000 A 
ATOM     13  C   UNL     1       0.136   9.270  21.267  0.00  0.00    +0.000 A 
ATOM     14  C   UNL     1       0.591   7.982  21.576  0.00  0.00    +0.000 A 
ATOM     15  C   UNL     1       1.463   7.311  20.715  0.00  0.00    +0.000 A 
ATOM     16  F   UNL     1       1.863   6.080  21.072  0.00  0.00    +0.000 F 
BRANCH  13  17
ATOM     17  C   UNL     1      -0.748  10.046  22.208  0.00  0.00    +0.000 C 
BRANCH  17  18
ATOM     18  O   UNL     1      -0.049  11.133  22.804  0.00  0.00    +0.000 OA
ATOM     19  H   UNL     1      -0.225  11.916  22.257  0.00  0.00    +0.000 HD
ENDBRANCH  17  18
ENDBRANCH  13  17
ENDBRANCH   7  10
BRANCH   1  20
ATOM     20  N   UNL     1       4.942   3.260  18.235  0.00  0.00    +0.000 N 
ATOM     21  H   UNL     1       5.787   2.711  18.087  0.00  0.00    +0.000 HD
BRANCH  20  23
ATOM     22  C   UNL     1       2.978   2.893  16.763  0.00  0.00    +0.000 C 
ATOM     23  C   UNL     1       3.766   2.412  17.991  0.00  0.00    +0.000 C 
BRANCH  23  24
ATOM     24  C   UNL     1       2.821   2.481  19.189  0.00  0.00    +0.000 A 
ATOM     25  C   UNL     1       1.444   2.658  18.978  0.00  0.00    +0.000 A 
ATOM     26  C   UNL     1       0.582   2.881  20.054  0.00  0.00    +0.000 A 
ATOM     27  C   UNL     1       1.084   2.922  21.353  0.00  0.00    +0.000 A 
ATOM     28  C   UNL     1       2.443   2.724  21.581  0.00  0.00    +0.000 A 
ATOM     29  C   UNL     1       3.306   2.507  20.507  0.00  0.00    +0.000 A 
ENDBRANCH  23  24
ENDBRANCH  20  23
ENDBRANCH   1  20
TORSDOF 6
ENDMDL
MODEL 4
REMARK VINA RESULT:      -8.2      1.832      2.940
REMARK  Name = 
REMARK  7 active torsions:
REMARK  status: ('A' for Active; 'I' for Inactive)
REMARK    1  A    between atoms: C_1  and  C_2
REMARK    2  A    between atoms: C_2  and  N_3
REMARK    3  A    between atoms: C_2  and  C_22
REMARK    4  A    between atoms: N_3  and  C_4
REMARK    5  A    between atoms: C_10  and  C_11
REMARK    6  A    between atoms: C_14  and  C_15
REMARK    7  A    between atoms: C_15  and  O_16
REMARK                            x       y       z     vdW  Elec       q    Type
REMARK                         _______ _______ _______ _____ _____    ______ ____
ROOT
ATOM      1  C   UNL     1       4.332   3.254  18.902  0.00  0.00    +0.000 A 
ATOM      2  N   UNL     1       4.028   1.940  18.971  0.00  0.00    +0.000 NA
ATOM      3  C   UNL     1       2.817   1.577  19.429  0.00  0.00    +0.000 A 
ATOM      4  N   UNL     1       1.827   2.374  19.835  0.00  0.00    +0.000 NA
ATOM      5  C   UNL     1       2.153   3.673  19.739  0.00  0.00    +0.000 A 
ATOM      6  S   UNL     1       1.049   4.880  20.197  0.00  0.00    +0.000 S 
ATOM      7  C   UNL     1       2.152   6.152  19.836  0.00  0.00    +0.000 A 
ATOM      8  C   UNL     1       3.340   5.627  19.352  0.00  0.00    +0.000 A 
ATOM      9  C   UNL     1       3.353   4.191  19.289  0.00  0.00    +0.000 A 
ENDROOT
BRANCH   7  10
ATOM     10  C   UNL     1       1.759   7.562  20.028  0.00  0.00    +0.000 A 
ATOM     11  C   UNL     1       1.367   8.054  21.285  0.00  0.00    +0.000 A 
ATOM     12  C   UNL     1       0.963   9.386  21.453  0.00  0.00    +0.000 A 
ATOM     13  C   UNL     1       0.962  10.276  20.372  0.00  0.00    +0.000 A 
ATOM     14  C   UNL     1       1.356   9.796  19.116  0.00  0.00    +0.000 A 
ATOM     15  C   UNL     1       1.755   8.467  18.957  0.00  0.00    +0.000 A 
ATOM     16  F   UNL     1       2.118   8.070  17.727  0.00  0.00    +0.000 F 
BRANCH  13  17
ATOM     17  C   UNL     1       0.460  11.683  20.561  0.00  0.00    +0.000 C 
BRANCH  17  18
ATOM     18  O   UNL     1       0.332  12.011  21.939  0.00  0.00    +0.000 OA
ATOM     19  H   UNL     1       0.627  11.234  22.443  0.00  0.00    +0.000 HD
ENDBRANCH  17  18
ENDBRANCH  13  17
ENDBRANCH   7  10
BRANCH   1  20
ATOM     20  N   UNL     1       5.599   3.675  18.478  0.00  0.00    +0.000 N 
ATOM     21  H   UNL     1       6.053   4.099  19.284  0.00  0.00    +0.000 HD
BRANCH  20  23
ATOM     22  C   UNL     1       6.048   3.948  16.052  0.00  0.00    +0.000 C 
ATOM     23  C   UNL     1       5.608   4.628  17.359  0.00  0.00    +0.000 C 
BRANCH  23  24
ATOM     24  C   UNL     1       6.605   5.749  17.642  0.00  0.00    +0.000 A 
ATOM     25  C   UNL     1       7.527   5.610  18.692  0.00  0.00    +0.000 A 
ATOM     26  C   UNL     1       8.340   6.680  19.072  0.00  0.00    +0.000 A 
ATOM     27  C   UNL     1       8.248   7.898  18.402  0.00  0.00    +0.000 A 
ATOM     28  C   UNL     1       7.357   8.045  17.342  0.00  0.00    +0.000 A 
ATOM     29  C   UNL     1       6.539   6.979  16.966  0.00  0.00    +0.000 A 
ENDBRANCH  23  24
ENDBRANCH  20  23
ENDBRANCH   1  20
TORSDOF 6
ENDMDL
MODEL 5
REMARK VINA RESULT:      -8.1      2.092      4.955
REMARK  Name = 
REMARK  7 active torsions:
REMARK  status: ('A' for Active; 'I' for Inactive)
REMARK    1  A    between atoms: C_1  and  C_2
REMARK    2  A    between atoms: C_2  and  N_3
REMARK    3  A    between atoms: C_2  and  C_22
REMARK    4  A    between atoms: N_3  and  C_4
REMARK    5  A    between atoms: C_10  and  C_11
REMARK    6  A    between atoms: C_14  and  C_15
REMARK    7  A    between atoms: C_15  and  O_16
REMARK                            x       y       z     vdW  Elec       q    Type
REMARK                         _______ _______ _______ _____ _____    ______ ____
ROOT
ATOM      1  C   UNL     1       5.051   4.353  17.384  0.00  0.00    +0.000 A 
ATOM      2  N   UNL     1       5.816   4.303  16.272  0.00  0.00    +0.000 NA
ATOM      3  C   UNL     1       5.865   5.381  15.470  0.00  0.00    +0.000 A 
ATOM      4  N   UNL     1       5.242   6.549  15.635  0.00  0.00    +0.000 NA
ATOM      5  C   UNL     1       4.504   6.573  16.757  0.00  0.00    +0.000 A 
ATOM      6  S   UNL     1       3.619   7.959  17.182  0.00  0.00    +0.000 S 
ATOM      7  C   UNL     1       2.978   7.223  18.601  0.00  0.00    +0.000 A 
ATOM      8  C   UNL     1       3.471   5.934  18.732  0.00  0.00    +0.000 A 
ATOM      9  C   UNL     1       4.359   5.546  17.671  0.00  0.00    +0.000 A 
ENDROOT
BRANCH   7  10
ATOM     10  C   UNL     1       2.066   7.973  19.487  0.00  0.00    +0.000 A 
ATOM     11  C   UNL     1       1.838   7.577  20.817  0.00  0.00    +0.000 A 
ATOM     12  C   UNL     1       0.945   8.276  21.642  0.00  0.00    +0.000 A 
ATOM     13  C   UNL     1       0.270   9.408  21.171  0.00  0.00    +0.000 A 
ATOM     14  C   UNL     1       0.495   9.813  19.849  0.00  0.00    +0.000 A 
ATOM     15  C   UNL     1       1.384   9.111  19.032  0.00  0.00    +0.000 A 
ATOM     16  F   UNL     1       1.552   9.550  17.775  0.00  0.00    +0.000 F 
BRANCH  13  17
ATOM     17  C   UNL     1      -0.735  10.102  22.053  0.00  0.00    +0.000 C 
BRANCH  17  18
ATOM     18  O   UNL     1      -0.791   9.511  23.345  0.00  0.00    +0.000 OA
ATOM     19  H   UNL     1      -0.483   8.594  23.251  0.00  0.00    +0.000 HD
ENDBRANCH  17  18
ENDBRANCH  13  17
ENDBRANCH   7  10
BRANCH   1  20
ATOM     20  N   UNL     1       4.931   3.235  18.221  0.00  0.00    +0.000 N 
ATOM     21  H   UNL     1       5.753   2.657  18.060  0.00  0.00    +0.000 HD
BRANCH  20  23
ATOM     22  C   UNL     1       2.912   2.915  16.813  0.00  0.00    +0.000 C 
ATOM     23  C   UNL     1       3.722   2.423  18.023  0.00  0.00    +0.000 C 
BRANCH  23  24
ATOM     24  C   UNL     1       2.817   2.535  19.248  0.00  0.00    +0.000 A 
ATOM     25  C   UNL     1       1.452   2.819  19.079  0.00  0.00    +0.000 A 
ATOM     26  C   UNL     1       0.637   3.082  20.183  0.00  0.00    +0.000 A 
ATOM     27  C   UNL     1       1.175   3.058  21.469  0.00  0.00    +0.000 A 
ATOM     28  C   UNL     1       2.521   2.754  21.654  0.00  0.00    +0.000 A 
ATOM     29  C   UNL     1       3.337   2.497  20.552  0.00  0.00    +0.000 A 
ENDBRANCH  23  24
ENDBRANCH  20  23
ENDBRANCH   1  20
TORSDOF 6
ENDMDL
MODEL 6
REMARK VINA RESULT:      -8.1      0.930      1.310
REMARK  Name = 
REMARK  7 active torsions:
REMARK  status: ('A' for Active; 'I' for Inactive)
REMARK    1  A    between atoms: C_1  and  C_2
REMARK    2  A    between atoms: C_2  and  N_3
REMARK    3  A    between atoms: C_2  and  C_22
REMARK    4  A    between atoms: N_3  and  C_4
REMARK    5  A    between atoms: C_10  and  C_11
REMARK    6  A    between atoms: C_14  and  C_15
REMARK    7  A    between atoms: C_15  and  O_16
REMARK                            x       y       z     vdW  Elec       q    Type
REMARK                         _______ _______ _______ _____ _____    ______ ____
ROOT
ATOM      1  C   UNL     1       4.010   3.913  17.356  0.00  0.00    +0.000 A 
ATOM      2  N   UNL     1       4.154   2.638  17.777  0.00  0.00    +0.000 NA
ATOM      3  C   UNL     1       3.657   2.291  18.978  0.00  0.00    +0.000 A 
ATOM      4  N   UNL     1       3.004   3.067  19.844  0.00  0.00    +0.000 NA
ATOM      5  C   UNL     1       2.862   4.323  19.390  0.00  0.00    +0.000 A 
ATOM      6  S   UNL     1       2.059   5.496  20.320  0.00  0.00    +0.000 S 
ATOM      7  C   UNL     1       2.319   6.731  19.149  0.00  0.00    +0.000 A 
ATOM      8  C   UNL     1       3.000   6.216  18.057  0.00  0.00    +0.000 A 
ATOM      9  C   UNL     1       3.319   4.820  18.183  0.00  0.00    +0.000 A 
ENDROOT
BRANCH   7  10
ATOM     10  C   UNL     1       1.812   8.099  19.379  0.00  0.00    +0.000 A 
ATOM     11  C   UNL     1       1.767   9.052  18.346  0.00  0.00    +0.000 A 
ATOM     12  C   UNL     1       1.316  10.358  18.580  0.00  0.00    +0.000 A 
ATOM     13  C   UNL     1       0.873  10.747  19.849  0.00  0.00    +0.000 A 
ATOM     14  C   UNL     1       0.909   9.803  20.883  0.00  0.00    +0.000 A 
ATOM     15  C   UNL     1       1.362   8.504  20.643  0.00  0.00    +0.000 A 
ATOM     16  F   UNL     1       1.375   7.649  21.678  0.00  0.00    +0.000 F 
BRANCH  13  17
ATOM     17  C   UNL     1       0.457  12.174  20.093  0.00  0.00    +0.000 C 
BRANCH  17  18
ATOM     18  O   UNL     1       1.009  12.680  21.302  0.00  0.00    +0.000 OA
ATOM     19  H   UNL     1       0.445  12.361  22.026  0.00  0.00    +0.000 HD
ENDBRANCH  17  18
ENDBRANCH  13  17
ENDBRANCH   7  10
BRANCH   1  20
ATOM     20  N   UNL     1       4.556   4.329  16.135  0.00  0.00    +0.000 N 
ATOM     21  H   UNL     1       4.015   3.876  15.401  0.00  0.00    +0.000 HD
BRANCH  20  23
ATOM     22  C   UNL     1       6.867   4.969  16.773  0.00  0.00    +0.000 C 
ATOM     23  C   UNL     1       5.981   4.027  15.942  0.00  0.00    +0.000 C 
BRANCH  23  24
ATOM     24  C   UNL     1       6.360   4.228  14.477  0.00  0.00    +0.000 A 
ATOM     25  C   UNL     1       5.752   3.437  13.488  0.00  0.00    +0.000 A 
ATOM     26  C   UNL     1       6.193   3.490  12.163  0.00  0.00    +0.000 A 
ATOM     27  C   UNL     1       7.239   4.339  11.809  0.00  0.00    +0.000 A 
ATOM     28  C   UNL     1       7.836   5.148  12.773  0.00  0.00    +0.000 A 
ATOM     29  C   UNL     1       7.401   5.091  14.098  0.00  0.00    +0.000 A 
ENDBRANCH  23  24
ENDBRANCH  20  23
ENDBRANCH   1  20
TORSDOF 6
ENDMDL
MODEL 7
REMARK VINA RESULT:      -8.1      2.289      3.365
REMARK  Name = 
REMARK  7 active torsions:
REMARK  status: ('A' for Active; 'I' for Inactive)
REMARK    1  A    between atoms: C_1  and  C_2
REMARK    2  A    between atoms: C_2  and  N_3
REMARK    3  A    between atoms: C_2  and  C_22
REMARK    4  A    between atoms: N_3  and  C_4
REMARK    5  A    between atoms: C_10  and  C_11
REMARK    6  A    between atoms: C_14  and  C_15
REMARK    7  A    between atoms: C_15  and  O_16
REMARK                            x       y       z     vdW  Elec       q    Type
REMARK                         _______ _______ _______ _____ _____    ______ ____
ROOT
ATOM      1  C   UNL     1       4.687   3.447  19.455  0.00  0.00    +0.000 A 
ATOM      2  N   UNL     1       4.520   2.244  20.046  0.00  0.00    +0.000 NA
ATOM      3  C   UNL     1       3.443   2.048  20.826  0.00  0.00    +0.000 A 
ATOM      4  N   UNL     1       2.468   2.915  21.101  0.00  0.00    +0.000 NA
ATOM      5  C   UNL     1       2.653   4.094  20.487  0.00  0.00    +0.000 A 
ATOM      6  S   UNL     1       1.537   5.359  20.685  0.00  0.00    +0.000 S 
ATOM      7  C   UNL     1       2.442   6.434  19.689  0.00  0.00    +0.000 A 
ATOM      8  C   UNL     1       3.574   5.795  19.207  0.00  0.00    +0.000 A 
ATOM      9  C   UNL     1       3.707   4.438  19.661  0.00  0.00    +0.000 A 
ENDROOT
BRANCH   7  10
ATOM     10  C   UNL     1       1.960   7.806  19.435  0.00  0.00    +0.000 A 
ATOM     11  C   UNL     1       2.045   8.395  18.162  0.00  0.00    +0.000 A 
ATOM     12  C   UNL     1       1.615   9.710  17.937  0.00  0.00    +0.000 A 
ATOM     13  C   UNL     1       1.064  10.471  18.974  0.00  0.00    +0.000 A 
ATOM     14  C   UNL     1       0.970   9.891  20.246  0.00  0.00    +0.000 A 
ATOM     15  C   UNL     1       1.402   8.580  20.463  0.00  0.00    +0.000 A 
ATOM     16  F   UNL     1       1.287   8.086  21.705  0.00  0.00    +0.000 F 
BRANCH  13  17
ATOM     17  C   UNL     1       0.672  11.904  18.726  0.00  0.00    +0.000 C 
BRANCH  17  18
ATOM     18  O   UNL     1      -0.503  11.994  17.928  0.00  0.00    +0.000 OA
ATOM     19  H   UNL     1      -0.688  12.939  17.804  0.00  0.00    +0.000 HD
ENDBRANCH  17  18
ENDBRANCH  13  17
ENDBRANCH   7  10
BRANCH   1  20
ATOM     20  N   UNL     1       5.820   3.710  18.675  0.00  0.00    +0.000 N 
ATOM     21  H   UNL     1       6.539   4.057  19.307  0.00  0.00    +0.000 HD
BRANCH  20  23
ATOM     22  C   UNL     1       6.085   4.096  16.238  0.00  0.00    +0.000 C 
ATOM     23  C   UNL     1       5.628   4.677  17.585  0.00  0.00    +0.000 C 
BRANCH  23  24
ATOM     24  C   UNL     1       6.468   5.925  17.845  0.00  0.00    +0.000 A 
ATOM     25  C   UNL     1       6.318   7.049  17.017  0.00  0.00    +0.000 A 
ATOM     26  C   UNL     1       7.181   8.141  17.134  0.00  0.00    +0.000 A 
ATOM     27  C   UNL     1       8.199   8.126  18.086  0.00  0.00    +0.000 A 
ATOM     28  C   UNL     1       8.346   7.030  18.931  0.00  0.00    +0.000 A 
ATOM     29  C   UNL     1       7.488   5.936  18.811  0.00  0.00    +0.000 A 
ENDBRANCH  23  24
ENDBRANCH  20  23
ENDBRANCH   1  20
TORSDOF 6
ENDMDL
MODEL 8
REMARK VINA RESULT:      -8.0      2.043      5.098
REMARK  Name = 
REMARK  7 active torsions:
REMARK  status: ('A' for Active; 'I' for Inactive)
REMARK    1  A    between atoms: C_1  and  C_2
REMARK    2  A    between atoms: C_2  and  N_3
REMARK    3  A    between atoms: C_2  and  C_22
REMARK    4  A    between atoms: N_3  and  C_4
REMARK    5  A    between atoms: C_10  and  C_11
REMARK    6  A    between atoms: C_14  and  C_15
REMARK    7  A    between atoms: C_15  and  O_16
REMARK                            x       y       z     vdW  Elec       q    Type
REMARK                         _______ _______ _______ _____ _____    ______ ____
ROOT
ATOM      1  C   UNL     1       4.793   3.765  16.669  0.00  0.00    +0.000 A 
ATOM      2  N   UNL     1       5.897   3.560  15.918  0.00  0.00    +0.000 NA
ATOM      3  C   UNL     1       6.604   4.624  15.499  0.00  0.00    +0.000 A 
ATOM      4  N   UNL     1       6.359   5.912  15.743  0.00  0.00    +0.000 NA
ATOM      5  C   UNL     1       5.266   6.083  16.505  0.00  0.00    +0.000 A 
ATOM      6  S   UNL     1       4.755   7.640  16.951  0.00  0.00    +0.000 S 
ATOM      7  C   UNL     1       3.389   7.042  17.812  0.00  0.00    +0.000 A 
ATOM      8  C   UNL     1       3.362   5.658  17.758  0.00  0.00    +0.000 A 
ATOM      9  C   UNL     1       4.446   5.089  17.005  0.00  0.00    +0.000 A 
ENDROOT
BRANCH   7  10
ATOM     10  C   UNL     1       2.468   7.973  18.495  0.00  0.00    +0.000 A 
ATOM     11  C   UNL     1       2.041   9.167  17.888  0.00  0.00    +0.000 A 
ATOM     12  C   UNL     1       1.193  10.061  18.556  0.00  0.00    +0.000 A 
ATOM     13  C   UNL     1       0.725   9.778  19.844  0.00  0.00    +0.000 A 
ATOM     14  C   UNL     1       1.141   8.588  20.455  0.00  0.00    +0.000 A 
ATOM     15  C   UNL     1       1.988   7.703  19.784  0.00  0.00    +0.000 A 
ATOM     16  F   UNL     1       2.351   6.582  20.427  0.00  0.00    +0.000 F 
BRANCH  13  17
ATOM     17  C   UNL     1      -0.131  10.784  20.569  0.00  0.00    +0.000 C 
BRANCH  17  18
ATOM     18  O   UNL     1       0.539  11.317  21.704  0.00  0.00    +0.000 OA
ATOM     19  H   UNL     1       1.346  11.750  21.379  0.00  0.00    +0.000 HD
ENDBRANCH  17  18
ENDBRANCH  13  17
ENDBRANCH   7  10
BRANCH   1  20
ATOM     20  N   UNL     1       3.999   2.688  17.085  0.00  0.00    +0.000 N 
ATOM     21  H   UNL     1       3.029   2.982  16.984  0.00  0.00    +0.000 HD
BRANCH  20  23
ATOM     22  C   UNL     1       4.298   0.695  18.532  0.00  0.00    +0.000 C 
ATOM     23  C   UNL     1       4.226   2.228  18.462  0.00  0.00    +0.000 C 
BRANCH  23  24
ATOM     24  C   UNL     1       3.065   2.667  19.352  0.00  0.00    +0.000 A 
ATOM     25  C   UNL     1       3.290   2.910  20.717  0.00  0.00    +0.000 A 
ATOM     26  C   UNL     1       2.221   3.157  21.581  0.00  0.00    +0.000 A 
ATOM     27  C   UNL     1       0.916   3.173  21.091  0.00  0.00    +0.000 A 
ATOM     28  C   UNL     1       0.679   2.958  19.736  0.00  0.00    +0.000 A 
ATOM     29  C   UNL     1       1.745   2.705  18.873  0.00  0.00    +0.000 A 
ENDBRANCH  23  24
ENDBRANCH  20  23
ENDBRANCH   1  20
TORSDOF 6
ENDMDL
MODEL 9
REMARK VINA RESULT:      -8.0      2.154      3.191
REMARK  Name = 
REMARK  7 active torsions:
REMARK  status: ('A' for Active; 'I' for Inactive)
REMARK    1  A    between atoms: C_1  and  C_2
REMARK    2  A    between atoms: C_2  and  N_3
REMARK    3  A    between atoms: C_2  and  C_22
REMARK    4  A    between atoms: N_3  and  C_4
REMARK    5  A    between atoms: C_10  and  C_11
REMARK    6  A    between atoms: C_14  and  C_15
REMARK    7  A    between atoms: C_15  and  O_16
REMARK                            x       y       z     vdW  Elec       q    Type
REMARK                         _______ _______ _______ _____ _____    ______ ____
ROOT
ATOM      1  C   UNL     1       4.506   3.375  19.448  0.00  0.00    +0.000 A 
ATOM      2  N   UNL     1       4.341   2.207  20.106  0.00  0.00    +0.000 NA
ATOM      3  C   UNL     1       3.331   2.095  20.986  0.00  0.00    +0.000 A 
ATOM      4  N   UNL     1       2.422   3.017  21.305  0.00  0.00    +0.000 NA
ATOM      5  C   UNL     1       2.602   4.160  20.623  0.00  0.00    +0.000 A 
ATOM      6  S   UNL     1       1.563   5.483  20.859  0.00  0.00    +0.000 S 
ATOM      7  C   UNL     1       2.420   6.471  19.740  0.00  0.00    +0.000 A 
ATOM      8  C   UNL     1       3.476   5.760  19.191  0.00  0.00    +0.000 A 
ATOM      9  C   UNL     1       3.591   4.418  19.693  0.00  0.00    +0.000 A 
ENDROOT
BRANCH   7  10
ATOM     10  C   UNL     1       1.977   7.853  19.466  0.00  0.00    +0.000 A 
ATOM     11  C   UNL     1       1.250   8.595  20.413  0.00  0.00    +0.000 A 
ATOM     12  C   UNL     1       0.804   9.894  20.133  0.00  0.00    +0.000 A 
ATOM     13  C   UNL     1       1.092  10.502  18.906  0.00  0.00    +0.000 A 
ATOM     14  C   UNL     1       1.821   9.772  17.958  0.00  0.00    +0.000 A 
ATOM     15  C   UNL     1       2.260   8.477  18.243  0.00  0.00    +0.000 A 
ATOM     16  F   UNL     1       2.951   7.831  17.291  0.00  0.00    +0.000 F 
BRANCH  13  17
ATOM     17  C   UNL     1       0.545  11.872  18.602  0.00  0.00    +0.000 C 
BRANCH  17  18
ATOM     18  O   UNL     1       1.486  12.664  17.888  0.00  0.00    +0.000 OA
ATOM     19  H   UNL     1       2.360  12.262  18.031  0.00  0.00    +0.000 HD
ENDBRANCH  17  18
ENDBRANCH  13  17
ENDBRANCH   7  10
BRANCH   1  20
ATOM     20  N   UNL     1       5.575   3.552  18.561  0.00  0.00    +0.000 N 
ATOM     21  H   UNL     1       6.402   3.731  19.128  0.00  0.00    +0.000 HD
BRANCH  20  23
ATOM     22  C   UNL     1       5.761   4.166  16.163  0.00  0.00    +0.000 C 
ATOM     23  C   UNL     1       5.414   4.638  17.583  0.00  0.00    +0.000 C 
BRANCH  23  24
ATOM     24  C   UNL     1       6.363   5.785  17.922  0.00  0.00    +0.000 A 
ATOM     25  C   UNL     1       6.344   6.955  17.146  0.00  0.00    +0.000 A 
ATOM     26  C   UNL     1       7.306   7.951  17.335  0.00  0.00    +0.000 A 
ATOM     27  C   UNL     1       8.292   7.793  18.307  0.00  0.00    +0.000 A 
ATOM     28  C   UNL     1       8.310   6.650  19.101  0.00  0.00    +0.000 A 
ATOM     29  C   UNL     1       7.354   5.651  18.910  0.00  0.00    +0.000 A 
ENDBRANCH  23  24
ENDBRANCH  20  23
ENDBRANCH   1  20
TORSDOF 6
ENDMDL
