MODEL 1
REMARK VINA RESULT:      -8.2      0.000      0.000
REMARK  Name = 
REMARK  6 active torsions:
REMARK  status: ('A' for Active; 'I' for Inactive)
REMARK    1  A    between atoms: C_1  and  N_2
REMARK    2  A    between atoms: N_2  and  C_3
REMARK    3  A    between atoms: C_3  and  C_4
REMARK    4  A    between atoms: N_12  and  C_13
REMARK    5  A    between atoms: C_14  and  C_16
REMARK    6  A    between atoms: C_17  and  C_18
REMARK                            x       y       z     vdW  Elec       q    Type
REMARK                         _______ _______ _______ _____ _____    ______ ____
ROOT
ATOM      1  C   UNL     1       1.135   4.061  20.316  0.00  0.00    +0.000 C 
ATOM      2  N   UNL     1       2.109   4.642  19.402  0.00  0.00    +0.000 N 
ATOM      3  C   UNL     1       2.224   4.016  18.166  0.00  0.00    +0.000 C 
ATOM      4  O   UNL     1       1.529   3.048  17.855  0.00  0.00    +0.000 OA
ENDROOT
BRANCH   3   5
ATOM      5  C   UNL     1       3.207   4.557  17.190  0.00  0.00    +0.000 C 
ATOM      6  C   UNL     1       4.340   3.880  16.944  0.00  0.00    +0.000 C 
BRANCH   6   7
ATOM      7  C   UNL     1       5.354   4.310  15.968  0.00  0.00    +0.000 A 
ATOM      8  C   UNL     1       5.417   3.813  14.667  0.00  0.00    +0.000 A 
ATOM      9  C   UNL     1       6.425   4.246  13.806  0.00  0.00    +0.000 A 
ATOM     10  C   UNL     1       7.334   5.192  14.255  0.00  0.00    +0.000 A 
ATOM     11  N   UNL     1       8.380   5.604  13.436  0.00  0.00    +0.000 N 
ATOM     12  N   UNL     1       7.287   5.714  15.491  0.00  0.00    +0.000 NA
ATOM     13  C   UNL     1       6.302   5.272  16.313  0.00  0.00    +0.000 A 
ATOM     14  H   UNL     1       8.049   5.926  12.536  0.00  0.00    +0.000 HD
ATOM     15  H   UNL     1       8.880   6.333  13.942  0.00  0.00    +0.000 HD
ENDBRANCH   6   7
ENDBRANCH   3   5
BRANCH   2  16
ATOM     16  C   UNL     1       2.905   5.766  19.900  0.00  0.00    +0.000 C 
BRANCH  16  17
ATOM     17  C   UNL     1       2.100   7.022  20.066  0.00  0.00    +0.000 A 
ATOM     18  C   UNL     1       1.281   7.451  21.097  0.00  0.00    +0.000 A 
ATOM     19  C   UNL     1       0.778   8.743  20.777  0.00  0.00    +0.000 A 
ATOM     20  C   UNL     1      -0.083   9.645  21.434  0.00  0.00    +0.000 A 
ATOM     21  C   UNL     1      -0.362  10.887  20.850  0.00  0.00    +0.000 A 
ATOM     22  C   UNL     1       0.216  11.239  19.635  0.00  0.00    +0.000 A 
ATOM     23  C   UNL     1       1.065  10.355  18.961  0.00  0.00    +0.000 A 
ATOM     24  C   UNL     1       1.319   9.100  19.544  0.00  0.00    +0.000 A 
ATOM     25  N   UNL     1       2.057   8.018  19.099  0.00  0.00    +0.000 N 
ATOM     26  C   UNL     1       2.661   7.951  17.783  0.00  0.00    +0.000 C 
ENDBRANCH  16  17
ENDBRANCH   2  16
TORSDOF 4
ENDMDL
MODEL 2
REMARK VINA RESULT:      -7.8      2.016      6.724
REMARK  Name = 
REMARK  6 active torsions:
REMARK  status: ('A' for Active; 'I' for Inactive)
REMARK    1  A    between atoms: C_1  and  N_2
REMARK    2  A    between atoms: N_2  and  C_3
REMARK    3  A    between atoms: C_3  and  C_4
REMARK    4  A    between atoms: N_12  and  C_13
REMARK    5  A    between atoms: C_14  and  C_16
REMARK    6  A    between atoms: C_17  and  C_18
REMARK                            x       y       z     vdW  Elec       q    Type
REMARK                         _______ _______ _______ _____ _____    ______ ____
ROOT
ATOM      1  C   UNL     1       6.427   4.771  14.501  0.00  0.00    +0.000 C 
ATOM      2  N   UNL     1       5.770   5.085  15.762  0.00  0.00    +0.000 N 
ATOM      3  C   UNL     1       5.109   6.306  15.810  0.00  0.00    +0.000 C 
ATOM      4  O   UNL     1       5.062   7.064  14.840  0.00  0.00    +0.000 OA
ENDROOT
BRANCH   3   5
ATOM      5  C   UNL     1       4.423   6.689  17.073  0.00  0.00    +0.000 C 
ATOM      6  C   UNL     1       3.365   7.515  17.032  0.00  0.00    +0.000 C 
BRANCH   6   7
ATOM      7  C   UNL     1       2.597   7.920  18.218  0.00  0.00    +0.000 A 
ATOM      8  C   UNL     1       2.542   7.159  19.385  0.00  0.00    +0.000 A 
ATOM      9  C   UNL     1       1.767   7.593  20.461  0.00  0.00    +0.000 A 
ATOM     10  C   UNL     1       1.086   8.797  20.359  0.00  0.00    +0.000 A 
ATOM     11  N   UNL     1       0.266   9.229  21.396  0.00  0.00    +0.000 N 
ATOM     12  N   UNL     1       1.139   9.569  19.263  0.00  0.00    +0.000 NA
ATOM     13  C   UNL     1       1.893   9.123  18.227  0.00  0.00    +0.000 A 
ATOM     14  H   UNL     1       0.757   9.248  22.281  0.00  0.00    +0.000 HD
ATOM     15  H   UNL     1      -0.081  10.149  21.133  0.00  0.00    +0.000 HD
ENDBRANCH   6   7
ENDBRANCH   3   5
BRANCH   2  16
ATOM     16  C   UNL     1       5.931   4.124  16.856  0.00  0.00    +0.000 C 
BRANCH  16  17
ATOM     17  C   UNL     1       4.650   3.857  17.591  0.00  0.00    +0.000 A 
ATOM     18  C   UNL     1       3.435   3.357  17.153  0.00  0.00    +0.000 A 
ATOM     19  C   UNL     1       2.550   3.261  18.262  0.00  0.00    +0.000 A 
ATOM     20  C   UNL     1       1.215   2.834  18.412  0.00  0.00    +0.000 A 
ATOM     21  C   UNL     1       0.627   2.831  19.684  0.00  0.00    +0.000 A 
ATOM     22  C   UNL     1       1.356   3.233  20.797  0.00  0.00    +0.000 A 
ATOM     23  C   UNL     1       2.678   3.670  20.670  0.00  0.00    +0.000 A 
ATOM     24  C   UNL     1       3.252   3.693  19.385  0.00  0.00    +0.000 A 
ATOM     25  N   UNL     1       4.494   4.116  18.946  0.00  0.00    +0.000 N 
ATOM     26  C   UNL     1       5.464   4.769  19.803  0.00  0.00    +0.000 C 
ENDBRANCH  16  17
ENDBRANCH   2  16
TORSDOF 4
ENDMDL
MODEL 3
REMARK VINA RESULT:      -7.8      2.746      4.102
REMARK  Name = 
REMARK  6 active torsions:
REMARK  status: ('A' for Active; 'I' for Inactive)
REMARK    1  A    between atoms: C_1  and  N_2
REMARK    2  A    between atoms: N_2  and  C_3
REMARK    3  A    between atoms: C_3  and  C_4
REMARK    4  A    between atoms: N_12  and  C_13
REMARK    5  A    between atoms: C_14  and  C_16
REMARK    6  A    between atoms: C_17  and  C_18
REMARK                            x       y       z     vdW  Elec       q    Type
REMARK                         _______ _______ _______ _____ _____    ______ ____
ROOT
ATOM      1  C   UNL     1       0.171   8.700  21.607  0.00  0.00    +0.000 C 
ATOM      2  N   UNL     1       1.015   8.606  20.425  0.00  0.00    +0.000 N 
ATOM      3  C   UNL     1       1.665   7.391  20.243  0.00  0.00    +0.000 C 
ATOM      4  O   UNL     1       1.516   6.446  21.020  0.00  0.00    +0.000 OA
ENDROOT
BRANCH   3   5
ATOM      5  C   UNL     1       2.548   7.232  19.058  0.00  0.00    +0.000 C 
ATOM      6  C   UNL     1       3.156   6.056  18.833  0.00  0.00    +0.000 C 
BRANCH   6   7
ATOM      7  C   UNL     1       4.015   5.788  17.670  0.00  0.00    +0.000 A 
ATOM      8  C   UNL     1       4.178   4.517  17.122  0.00  0.00    +0.000 A 
ATOM      9  C   UNL     1       5.033   4.333  16.035  0.00  0.00    +0.000 A 
ATOM     10  C   UNL     1       5.686   5.433  15.498  0.00  0.00    +0.000 A 
ATOM     11  N   UNL     1       6.583   5.272  14.447  0.00  0.00    +0.000 N 
ATOM     12  N   UNL     1       5.531   6.675  15.981  0.00  0.00    +0.000 NA
ATOM     13  C   UNL     1       4.700   6.828  17.043  0.00  0.00    +0.000 A 
ATOM     14  H   UNL     1       6.167   4.775  13.670  0.00  0.00    +0.000 HD
ATOM     15  H   UNL     1       6.894   6.204  14.181  0.00  0.00    +0.000 HD
ENDBRANCH   6   7
ENDBRANCH   3   5
BRANCH   2  16
ATOM     16  C   UNL     1       1.146   9.809  19.600  0.00  0.00    +0.000 C 
BRANCH  16  17
ATOM     17  C   UNL     1      -0.077  10.083  18.772  0.00  0.00    +0.000 A 
ATOM     18  C   UNL     1      -0.502   9.548  17.568  0.00  0.00    +0.000 A 
ATOM     19  C   UNL     1      -1.756  10.124  17.225  0.00  0.00    +0.000 A 
ATOM     20  C   UNL     1      -2.639   9.965  16.138  0.00  0.00    +0.000 A 
ATOM     21  C   UNL     1      -3.846  10.675  16.116  0.00  0.00    +0.000 A 
ATOM     22  C   UNL     1      -4.183  11.522  17.166  0.00  0.00    +0.000 A 
ATOM     23  C   UNL     1      -3.318  11.702  18.250  0.00  0.00    +0.000 A 
ATOM     24  C   UNL     1      -2.097  11.004  18.250  0.00  0.00    +0.000 A 
ATOM     25  N   UNL     1      -1.036  11.018  19.138  0.00  0.00    +0.000 N 
ATOM     26  C   UNL     1      -0.953  11.922  20.268  0.00  0.00    +0.000 C 
ENDBRANCH  16  17
ENDBRANCH   2  16
TORSDOF 4
ENDMDL
MODEL 4
REMARK VINA RESULT:      -7.6      3.415      6.264
REMARK  Name = 
REMARK  6 active torsions:
REMARK  status: ('A' for Active; 'I' for Inactive)
REMARK    1  A    between atoms: C_1  and  N_2
REMARK    2  A    between atoms: N_2  and  C_3
REMARK    3  A    between atoms: C_3  and  C_4
REMARK    4  A    between atoms: N_12  and  C_13
REMARK    5  A    between atoms: C_14  and  C_16
REMARK    6  A    between atoms: C_17  and  C_18
REMARK                            x       y       z     vdW  Elec       q    Type
REMARK                         _______ _______ _______ _____ _____    ______ ____
ROOT
ATOM      1  C   UNL     1      -1.295  11.609  23.083  0.00  0.00    +0.000 C 
ATOM      2  N   UNL     1      -0.319  11.029  22.171  0.00  0.00    +0.000 N 
ATOM      3  C   UNL     1       0.240   9.822  22.574  0.00  0.00    +0.000 C 
ATOM      4  O   UNL     1      -0.088   9.266  23.623  0.00  0.00    +0.000 OA
ENDROOT
BRANCH   3   5
ATOM      5  C   UNL     1       1.249   9.181  21.690  0.00  0.00    +0.000 C 
ATOM      6  C   UNL     1       0.895   8.136  20.924  0.00  0.00    +0.000 C 
BRANCH   6   7
ATOM      7  C   UNL     1       1.808   7.461  19.989  0.00  0.00    +0.000 A 
ATOM      8  C   UNL     1       2.238   8.038  18.796  0.00  0.00    +0.000 A 
ATOM      9  C   UNL     1       3.082   7.325  17.944  0.00  0.00    +0.000 A 
ATOM     10  C   UNL     1       3.503   6.058  18.318  0.00  0.00    +0.000 A 
ATOM     11  N   UNL     1       4.302   5.304  17.465  0.00  0.00    +0.000 N 
ATOM     12  N   UNL     1       3.132   5.482  19.472  0.00  0.00    +0.000 NA
ATOM     13  C   UNL     1       2.306   6.192  20.281  0.00  0.00    +0.000 A 
ATOM     14  H   UNL     1       5.130   5.811  17.179  0.00  0.00    +0.000 HD
ATOM     15  H   UNL     1       4.533   4.445  17.961  0.00  0.00    +0.000 HD
ENDBRANCH   6   7
ENDBRANCH   3   5
BRANCH   2  16
ATOM     16  C   UNL     1       0.020  11.804  20.975  0.00  0.00    +0.000 C 
BRANCH  16  17
ATOM     17  C   UNL     1      -0.823  11.439  19.787  0.00  0.00    +0.000 A 
ATOM     18  C   UNL     1      -0.599  10.550  18.749  0.00  0.00    +0.000 A 
ATOM     19  C   UNL     1      -1.735  10.548  17.892  0.00  0.00    +0.000 A 
ATOM     20  C   UNL     1      -2.062   9.860  16.707  0.00  0.00    +0.000 A 
ATOM     21  C   UNL     1      -3.313  10.063  16.110  0.00  0.00    +0.000 A 
ATOM     22  C   UNL     1      -4.236  10.927  16.689  0.00  0.00    +0.000 A 
ATOM     23  C   UNL     1      -3.929  11.627  17.859  0.00  0.00    +0.000 A 
ATOM     24  C   UNL     1      -2.660  11.435  18.437  0.00  0.00    +0.000 A 
ATOM     25  N   UNL     1      -2.061  12.016  19.540  0.00  0.00    +0.000 N 
ATOM     26  C   UNL     1      -2.658  13.101  20.294  0.00  0.00    +0.000 C 
ENDBRANCH  16  17
ENDBRANCH   2  16
TORSDOF 4
ENDMDL
MODEL 5
REMARK VINA RESULT:      -7.6      4.668      6.738
REMARK  Name = 
REMARK  6 active torsions:
REMARK  status: ('A' for Active; 'I' for Inactive)
REMARK    1  A    between atoms: C_1  and  N_2
REMARK    2  A    between atoms: N_2  and  C_3
REMARK    3  A    between atoms: C_3  and  C_4
REMARK    4  A    between atoms: N_12  and  C_13
REMARK    5  A    between atoms: C_14  and  C_16
REMARK    6  A    between atoms: C_17  and  C_18
REMARK                            x       y       z     vdW  Elec       q    Type
REMARK                         _______ _______ _______ _____ _____    ______ ____
ROOT
ATOM      1  C   UNL     1       5.196   5.669  15.800  0.00  0.00    +0.000 C 
ATOM      2  N   UNL     1       5.656   6.639  16.783  0.00  0.00    +0.000 N 
ATOM      3  C   UNL     1       7.026   6.869  16.810  0.00  0.00    +0.000 C 
ATOM      4  O   UNL     1       7.799   6.306  16.033  0.00  0.00    +0.000 OA
ENDROOT
BRANCH   3   5
ATOM      5  C   UNL     1       7.560   7.844  17.797  0.00  0.00    +0.000 C 
ATOM      6  C   UNL     1       8.111   8.991  17.368  0.00  0.00    +0.000 C 
BRANCH   6   7
ATOM      7  C   UNL     1       8.630  10.035  18.265  0.00  0.00    +0.000 A 
ATOM      8  C   UNL     1       9.113   9.767  19.545  0.00  0.00    +0.000 A 
ATOM      9  C   UNL     1       9.563  10.813  20.351  0.00  0.00    +0.000 A 
ATOM     10  C   UNL     1       9.549  12.105  19.847  0.00  0.00    +0.000 A 
ATOM     11  N   UNL     1       9.944  13.173  20.646  0.00  0.00    +0.000 N 
ATOM     12  N   UNL     1       9.119  12.397  18.610  0.00  0.00    +0.000 NA
ATOM     13  C   UNL     1       8.679  11.364  17.848  0.00  0.00    +0.000 A 
ATOM     14  H   UNL     1      10.864  13.027  21.042  0.00  0.00    +0.000 HD
ATOM     15  H   UNL     1       9.908  14.006  20.062  0.00  0.00    +0.000 HD
ENDBRANCH   6   7
ENDBRANCH   3   5
BRANCH   2  16
ATOM     16  C   UNL     1       4.647   7.212  17.678  0.00  0.00    +0.000 C 
BRANCH  16  17
ATOM     17  C   UNL     1       3.829   6.166  18.379  0.00  0.00    +0.000 A 
ATOM     18  C   UNL     1       2.460   5.965  18.435  0.00  0.00    +0.000 A 
ATOM     19  C   UNL     1       2.197   4.801  19.208  0.00  0.00    +0.000 A 
ATOM     20  C   UNL     1       1.018   4.132  19.596  0.00  0.00    +0.000 A 
ATOM     21  C   UNL     1       1.105   2.957  20.353  0.00  0.00    +0.000 A 
ATOM     22  C   UNL     1       2.346   2.441  20.711  0.00  0.00    +0.000 A 
ATOM     23  C   UNL     1       3.528   3.093  20.346  0.00  0.00    +0.000 A 
ATOM     24  C   UNL     1       3.429   4.286  19.607  0.00  0.00    +0.000 A 
ATOM     25  N   UNL     1       4.397   5.165  19.156  0.00  0.00    +0.000 N 
ATOM     26  C   UNL     1       5.802   5.048  19.496  0.00  0.00    +0.000 C 
ENDBRANCH  16  17
ENDBRANCH   2  16
TORSDOF 4
ENDMDL
MODEL 6
REMARK VINA RESULT:      -7.6      1.635      7.277
REMARK  Name = 
REMARK  6 active torsions:
REMARK  status: ('A' for Active; 'I' for Inactive)
REMARK    1  A    between atoms: C_1  and  N_2
REMARK    2  A    between atoms: N_2  and  C_3
REMARK    3  A    between atoms: C_3  and  C_4
REMARK    4  A    between atoms: N_12  and  C_13
REMARK    5  A    between atoms: C_14  and  C_16
REMARK    6  A    between atoms: C_17  and  C_18
REMARK                            x       y       z     vdW  Elec       q    Type
REMARK                         _______ _______ _______ _____ _____    ______ ____
ROOT
ATOM      1  C   UNL     1       4.102   2.427  20.088  0.00  0.00    +0.000 C 
ATOM      2  N   UNL     1       3.811   3.773  19.617  0.00  0.00    +0.000 N 
ATOM      3  C   UNL     1       2.463   4.094  19.501  0.00  0.00    +0.000 C 
ATOM      4  O   UNL     1       1.573   3.298  19.802  0.00  0.00    +0.000 OA
ENDROOT
BRANCH   3   5
ATOM      5  C   UNL     1       2.099   5.452  19.018  0.00  0.00    +0.000 C 
ATOM      6  C   UNL     1       2.178   6.499  19.854  0.00  0.00    +0.000 C 
BRANCH   6   7
ATOM      7  C   UNL     1       1.878   7.885  19.462  0.00  0.00    +0.000 A 
ATOM      8  C   UNL     1       1.241   8.793  20.305  0.00  0.00    +0.000 A 
ATOM      9  C   UNL     1       0.963  10.084  19.853  0.00  0.00    +0.000 A 
ATOM     10  C   UNL     1       1.357  10.449  18.574  0.00  0.00    +0.000 A 
ATOM     11  N   UNL     1       1.049  11.712  18.079  0.00  0.00    +0.000 N 
ATOM     12  N   UNL     1       1.999   9.610  17.746  0.00  0.00    +0.000 NA
ATOM     13  C   UNL     1       2.251   8.358  18.205  0.00  0.00    +0.000 A 
ATOM     14  H   UNL     1       1.364  12.446  18.700  0.00  0.00    +0.000 HD
ATOM     15  H   UNL     1       1.479  11.779  17.158  0.00  0.00    +0.000 HD
ENDBRANCH   6   7
ENDBRANCH   3   5
BRANCH   2  16
ATOM     16  C   UNL     1       4.953   4.614  19.251  0.00  0.00    +0.000 C 
BRANCH  16  17
ATOM     17  C   UNL     1       5.333   4.484  17.804  0.00  0.00    +0.000 A 
ATOM     18  C   UNL     1       4.666   3.910  16.734  0.00  0.00    +0.000 A 
ATOM     19  C   UNL     1       5.446   4.086  15.558  0.00  0.00    +0.000 A 
ATOM     20  C   UNL     1       5.275   3.715  14.209  0.00  0.00    +0.000 A 
ATOM     21  C   UNL     1       6.241   4.079  13.262  0.00  0.00    +0.000 A 
ATOM     22  C   UNL     1       7.358   4.814  13.644  0.00  0.00    +0.000 A 
ATOM     23  C   UNL     1       7.553   5.184  14.979  0.00  0.00    +0.000 A 
ATOM     24  C   UNL     1       6.589   4.792  15.926  0.00  0.00    +0.000 A 
ATOM     25  N   UNL     1       6.535   4.959  17.298  0.00  0.00    +0.000 N 
ATOM     26  C   UNL     1       7.619   5.526  18.077  0.00  0.00    +0.000 C 
ENDBRANCH  16  17
ENDBRANCH   2  16
TORSDOF 4
ENDMDL
MODEL 7
REMARK VINA RESULT:      -7.6      2.079      6.652
REMARK  Name = 
REMARK  6 active torsions:
REMARK  status: ('A' for Active; 'I' for Inactive)
REMARK    1  A    between atoms: C_1  and  N_2
REMARK    2  A    between atoms: N_2  and  C_3
REMARK    3  A    between atoms: C_3  and  C_4
REMARK    4  A    between atoms: N_12  and  C_13
REMARK    5  A    between atoms: C_14  and  C_16
REMARK    6  A    between atoms: C_17  and  C_18
REMARK                            x       y       z     vdW  Elec       q    Type
REMARK                         _______ _______ _______ _____ _____    ______ ____
ROOT
ATOM      1  C   UNL     1       6.932   4.843  15.476  0.00  0.00    +0.000 C 
ATOM      2  N   UNL     1       6.131   5.330  16.590  0.00  0.00    +0.000 N 
ATOM      3  C   UNL     1       5.307   6.414  16.312  0.00  0.00    +0.000 C 
ATOM      4  O   UNL     1       5.240   6.915  15.189  0.00  0.00    +0.000 OA
ENDROOT
BRANCH   3   5
ATOM      5  C   UNL     1       4.468   6.963  17.411  0.00  0.00    +0.000 C 
ATOM      6  C   UNL     1       3.364   7.667  17.116  0.00  0.00    +0.000 C 
BRANCH   6   7
ATOM      7  C   UNL     1       2.449   8.217  18.128  0.00  0.00    +0.000 A 
ATOM      8  C   UNL     1       1.621   9.313  17.889  0.00  0.00    +0.000 A 
ATOM      9  C   UNL     1       0.799   9.797  18.908  0.00  0.00    +0.000 A 
ATOM     10  C   UNL     1       0.801   9.155  20.137  0.00  0.00    +0.000 A 
ATOM     11  N   UNL     1       0.031   9.646  21.186  0.00  0.00    +0.000 N 
ATOM     12  N   UNL     1       1.563   8.080  20.393  0.00  0.00    +0.000 NA
ATOM     13  C   UNL     1       2.359   7.632  19.390  0.00  0.00    +0.000 A 
ATOM     14  H   UNL     1      -0.939   9.759  20.920  0.00  0.00    +0.000 HD
ATOM     15  H   UNL     1       0.141   8.996  21.962  0.00  0.00    +0.000 HD
ENDBRANCH   6   7
ENDBRANCH   3   5
BRANCH   2  16
ATOM     16  C   UNL     1       6.328   4.680  17.888  0.00  0.00    +0.000 C 
BRANCH  16  17
ATOM     17  C   UNL     1       5.036   4.332  18.568  0.00  0.00    +0.000 A 
ATOM     18  C   UNL     1       4.509   4.732  19.785  0.00  0.00    +0.000 A 
ATOM     19  C   UNL     1       3.225   4.141  19.947  0.00  0.00    +0.000 A 
ATOM     20  C   UNL     1       2.250   4.188  20.964  0.00  0.00    +0.000 A 
ATOM     21  C   UNL     1       1.041   3.500  20.797  0.00  0.00    +0.000 A 
ATOM     22  C   UNL     1       0.794   2.786  19.630  0.00  0.00    +0.000 A 
ATOM     23  C   UNL     1       1.750   2.718  18.612  0.00  0.00    +0.000 A 
ATOM     24  C   UNL     1       2.971   3.391  18.800  0.00  0.00    +0.000 A 
ATOM     25  N   UNL     1       4.107   3.462  18.013  0.00  0.00    +0.000 N 
ATOM     26  C   UNL     1       4.284   2.693  16.797  0.00  0.00    +0.000 C 
ENDBRANCH  16  17
ENDBRANCH   2  16
TORSDOF 4
ENDMDL
MODEL 8
REMARK VINA RESULT:      -7.6      4.734      6.819
REMARK  Name = 
REMARK  6 active torsions:
REMARK  status: ('A' for Active; 'I' for Inactive)
REMARK    1  A    between atoms: C_1  and  N_2
REMARK    2  A    between atoms: N_2  and  C_3
REMARK    3  A    between atoms: C_3  and  C_4
REMARK    4  A    between atoms: N_12  and  C_13
REMARK    5  A    between atoms: C_14  and  C_16
REMARK    6  A    between atoms: C_17  and  C_18
REMARK                            x       y       z     vdW  Elec       q    Type
REMARK                         _______ _______ _______ _____ _____    ______ ____
ROOT
ATOM      1  C   UNL     1       6.209   4.596  16.853  0.00  0.00    +0.000 C 
ATOM      2  N   UNL     1       6.682   5.624  17.768  0.00  0.00    +0.000 N 
ATOM      3  C   UNL     1       7.455   6.630  17.198  0.00  0.00    +0.000 C 
ATOM      4  O   UNL     1       7.702   6.662  15.992  0.00  0.00    +0.000 OA
ENDROOT
BRANCH   3   5
ATOM      5  C   UNL     1       7.975   7.707  18.082  0.00  0.00    +0.000 C 
ATOM      6  C   UNL     1       8.196   8.932  17.577  0.00  0.00    +0.000 C 
BRANCH   6   7
ATOM      7  C   UNL     1       8.671  10.072  18.376  0.00  0.00    +0.000 A 
ATOM      8  C   UNL     1       9.191   9.936  19.662  0.00  0.00    +0.000 A 
ATOM      9  C   UNL     1       9.595  11.067  20.371  0.00  0.00    +0.000 A 
ATOM     10  C   UNL     1       9.498  12.311  19.767  0.00  0.00    +0.000 A 
ATOM     11  N   UNL     1       9.845  13.461  20.468  0.00  0.00    +0.000 N 
ATOM     12  N   UNL     1       9.029  12.478  18.520  0.00  0.00    +0.000 NA
ATOM     13  C   UNL     1       8.636  11.363  17.853  0.00  0.00    +0.000 A 
ATOM     14  H   UNL     1      10.779  13.399  20.854  0.00  0.00    +0.000 HD
ATOM     15  H   UNL     1       9.751  14.241  19.820  0.00  0.00    +0.000 HD
ENDBRANCH   6   7
ENDBRANCH   3   5
BRANCH   2  16
ATOM     16  C   UNL     1       6.359   5.456  19.187  0.00  0.00    +0.000 C 
BRANCH  16  17
ATOM     17  C   UNL     1       5.052   4.751  19.407  0.00  0.00    +0.000 A 
ATOM     18  C   UNL     1       4.764   3.417  19.644  0.00  0.00    +0.000 A 
ATOM     19  C   UNL     1       3.360   3.274  19.822  0.00  0.00    +0.000 A 
ATOM     20  C   UNL     1       2.516   2.176  20.081  0.00  0.00    +0.000 A 
ATOM     21  C   UNL     1       1.140   2.382  20.241  0.00  0.00    +0.000 A 
ATOM     22  C   UNL     1       0.606   3.663  20.158  0.00  0.00    +0.000 A 
ATOM     23  C   UNL     1       1.423   4.766  19.892  0.00  0.00    +0.000 A 
ATOM     24  C   UNL     1       2.801   4.545  19.709  0.00  0.00    +0.000 A 
ATOM     25  N   UNL     1       3.831   5.411  19.387  0.00  0.00    +0.000 N 
ATOM     26  C   UNL     1       3.624   6.805  19.047  0.00  0.00    +0.000 C 
ENDBRANCH  16  17
ENDBRANCH   2  16
TORSDOF 4
ENDMDL
MODEL 9
REMARK VINA RESULT:      -7.5      2.797      4.174
REMARK  Name = 
REMARK  6 active torsions:
REMARK  status: ('A' for Active; 'I' for Inactive)
REMARK    1  A    between atoms: C_1  and  N_2
REMARK    2  A    between atoms: N_2  and  C_3
REMARK    3  A    between atoms: C_3  and  C_4
REMARK    4  A    between atoms: N_12  and  C_13
REMARK    5  A    between atoms: C_14  and  C_16
REMARK    6  A    between atoms: C_17  and  C_18
REMARK                            x       y       z     vdW  Elec       q    Type
REMARK                         _______ _______ _______ _____ _____    ______ ____
ROOT
ATOM      1  C   UNL     1       0.344   8.811  21.628  0.00  0.00    +0.000 C 
ATOM      2  N   UNL     1       1.115   8.659  20.403  0.00  0.00    +0.000 N 
ATOM      3  C   UNL     1       1.723   7.423  20.221  0.00  0.00    +0.000 C 
ATOM      4  O   UNL     1       1.595   6.505  21.033  0.00  0.00    +0.000 OA
ENDROOT
BRANCH   3   5
ATOM      5  C   UNL     1       2.531   7.207  18.992  0.00  0.00    +0.000 C 
ATOM      6  C   UNL     1       3.201   6.054  18.831  0.00  0.00    +0.000 C 
BRANCH   6   7
ATOM      7  C   UNL     1       3.995   5.729  17.636  0.00  0.00    +0.000 A 
ATOM      8  C   UNL     1       4.619   6.698  16.851  0.00  0.00    +0.000 A 
ATOM      9  C   UNL     1       5.332   6.317  15.714  0.00  0.00    +0.000 A 
ATOM     10  C   UNL     1       5.432   4.969  15.402  0.00  0.00    +0.000 A 
ATOM     11  N   UNL     1       6.093   4.564  14.247  0.00  0.00    +0.000 N 
ATOM     12  N   UNL     1       4.869   4.008  16.150  0.00  0.00    +0.000 NA
ATOM     13  C   UNL     1       4.175   4.403  17.247  0.00  0.00    +0.000 A 
ATOM     14  H   UNL     1       7.030   4.943  14.197  0.00  0.00    +0.000 HD
ATOM     15  H   UNL     1       6.092   3.546  14.250  0.00  0.00    +0.000 HD
ENDBRANCH   6   7
ENDBRANCH   3   5
BRANCH   2  16
ATOM     16  C   UNL     1       1.228   9.834  19.535  0.00  0.00    +0.000 C 
BRANCH  16  17
ATOM     17  C   UNL     1      -0.022  10.099  18.747  0.00  0.00    +0.000 A 
ATOM     18  C   UNL     1      -0.478   9.565  17.553  0.00  0.00    +0.000 A 
ATOM     19  C   UNL     1      -1.749  10.128  17.253  0.00  0.00    +0.000 A 
ATOM     20  C   UNL     1      -2.663   9.965  16.192  0.00  0.00    +0.000 A 
ATOM     21  C   UNL     1      -3.878  10.661  16.211  0.00  0.00    +0.000 A 
ATOM     22  C   UNL     1      -4.192  11.499  17.275  0.00  0.00    +0.000 A 
ATOM     23  C   UNL     1      -3.296  11.684  18.333  0.00  0.00    +0.000 A 
ATOM     24  C   UNL     1      -2.068  10.999  18.292  0.00  0.00    +0.000 A 
ATOM     25  N   UNL     1      -0.980  11.021  19.147  0.00  0.00    +0.000 N 
ATOM     26  C   UNL     1      -0.872  11.921  20.278  0.00  0.00    +0.000 C 
ENDBRANCH  16  17
ENDBRANCH   2  16
TORSDOF 4
ENDMDL
