MODEL 1
REMARK VINA RESULT:      -8.4      0.000      0.000
REMARK  Name = 
REMARK  10 active torsions:
REMARK  status: ('A' for Active; 'I' for Inactive)
REMARK    1  A    between atoms: C_1  and  O_2
REMARK    2  A    between atoms: O_2  and  C_3
REMARK    3  A    between atoms: C_3  and  C_5
REMARK    4  A    between atoms: C_5  and  C_6
REMARK    5  A    between atoms: C_5  and  N_16
REMARK    6  A    between atoms: C_6  and  C_7
REMARK    7  A    between atoms: C_17  and  C_19
REMARK    8  A    between atoms: C_19  and  C_20
REMARK    9  A    between atoms: C_20  and  N_21
REMARK   10  A    between atoms: C_22  and  C_24
REMARK                            x       y       z     vdW  Elec       q    Type
REMARK                         _______ _______ _______ _____ _____    ______ ____
ROOT
ATOM      1  C   UNL     1       6.276   5.862  17.124  0.00  0.00    +0.000 C 
ENDROOT
BRANCH   1   2
ATOM      2  N   UNL     1       6.714   7.271  17.069  0.00  0.00    +0.000 N 
ATOM      3  C   UNL     1       7.727   7.747  17.863  0.00  0.00    +0.000 C 
ATOM      4  O   UNL     1       8.313   7.047  18.689  0.00  0.00    +0.000 OA
ATOM      5  H   UNL     1       6.071   7.929  16.638  0.00  0.00    +0.000 HD
BRANCH   3   6
ATOM      6  C   UNL     1       8.076   9.197  17.647  0.00  0.00    +0.000 C 
BRANCH   6   7
ATOM      7  C   UNL     1       8.865   9.721  18.843  0.00  0.00    +0.000 C 
BRANCH   7   8
ATOM      8  N   UNL     1       9.600  10.922  18.515  0.00  0.00    +0.000 N 
ATOM      9  C   UNL     1      10.215  11.698  19.475  0.00  0.00    +0.000 C 
ATOM     10  O   UNL     1      10.194  11.409  20.670  0.00  0.00    +0.000 OA
ATOM     11  H   UNL     1       9.721  11.199  17.546  0.00  0.00    +0.000 HD
BRANCH   9  12
ATOM     12  C   UNL     1      10.887  12.865  18.948  0.00  0.00    +0.000 A 
ATOM     13  C   UNL     1      11.755  13.763  19.542  0.00  0.00    +0.000 A 
ATOM     14  C   UNL     1      12.098  14.713  18.548  0.00  0.00    +0.000 A 
ATOM     15  C   UNL     1      11.425  14.340  17.412  0.00  0.00    +0.000 A 
ATOM     16  O   UNL     1      10.685  13.222  17.638  0.00  0.00    +0.000 OA
ENDBRANCH   9  12
ENDBRANCH   7   8
ENDBRANCH   6   7
ENDBRANCH   3   6
ENDBRANCH   1   2
BRANCH   1  17
ATOM     17  C   UNL     1       7.348   4.947  16.503  0.00  0.00    +0.000 C 
ATOM     18  O   UNL     1       8.042   4.160  17.141  0.00  0.00    +0.000 OA
BRANCH  17  20
ATOM     19  C   UNL     1       6.618   4.516  14.284  0.00  0.00    +0.000 C 
ATOM     20  O   UNL     1       7.500   5.217  15.172  0.00  0.00    +0.000 OA
ENDBRANCH  17  20
ENDBRANCH   1  17
BRANCH   1  21
ATOM     21  C   UNL     1       5.835   5.389  18.529  0.00  0.00    +0.000 C 
BRANCH  21  22
ATOM     22  C   UNL     1       4.357   5.461  18.792  0.00  0.00    +0.000 A 
ATOM     23  C   UNL     1       3.527   6.486  18.373  0.00  0.00    +0.000 A 
ATOM     24  N   UNL     1       2.260   6.227  18.813  0.00  0.00    +0.000 N 
ATOM     25  C   UNL     1       2.242   5.065  19.546  0.00  0.00    +0.000 A 
ATOM     26  C   UNL     1       1.186   4.467  20.245  0.00  0.00    +0.000 A 
ATOM     27  C   UNL     1       1.460   3.288  20.940  0.00  0.00    +0.000 A 
ATOM     28  C   UNL     1       2.716   2.703  20.895  0.00  0.00    +0.000 A 
ATOM     29  C   UNL     1       3.753   3.297  20.159  0.00  0.00    +0.000 A 
ATOM     30  C   UNL     1       3.530   4.530  19.507  0.00  0.00    +0.000 A 
ATOM     31  H   UNL     1       1.460   6.823  18.662  0.00  0.00    +0.000 HD
ENDBRANCH  21  22
ENDBRANCH   1  21
TORSDOF 9
ENDMDL
MODEL 2
REMARK VINA RESULT:      -8.4      1.614      1.931
REMARK  Name = 
REMARK  10 active torsions:
REMARK  status: ('A' for Active; 'I' for Inactive)
REMARK    1  A    between atoms: C_1  and  O_2
REMARK    2  A    between atoms: O_2  and  C_3
REMARK    3  A    between atoms: C_3  and  C_5
REMARK    4  A    between atoms: C_5  and  C_6
REMARK    5  A    between atoms: C_5  and  N_16
REMARK    6  A    between atoms: C_6  and  C_7
REMARK    7  A    between atoms: C_17  and  C_19
REMARK    8  A    between atoms: C_19  and  C_20
REMARK    9  A    between atoms: C_20  and  N_21
REMARK   10  A    between atoms: C_22  and  C_24
REMARK                            x       y       z     vdW  Elec       q    Type
REMARK                         _______ _______ _______ _____ _____    ______ ____
ROOT
ATOM      1  C   UNL     1       5.169   5.897  17.157  0.00  0.00    +0.000 C 
ENDROOT
BRANCH   1   2
ATOM      2  N   UNL     1       6.136   6.724  17.906  0.00  0.00    +0.000 N 
ATOM      3  C   UNL     1       7.360   7.059  17.384  0.00  0.00    +0.000 C 
ATOM      4  O   UNL     1       7.744   6.671  16.281  0.00  0.00    +0.000 OA
ATOM      5  H   UNL     1       5.985   6.802  18.907  0.00  0.00    +0.000 HD
BRANCH   3   6
ATOM      6  C   UNL     1       8.204   7.946  18.264  0.00  0.00    +0.000 C 
BRANCH   6   7
ATOM      7  C   UNL     1       8.016   9.404  17.858  0.00  0.00    +0.000 C 
BRANCH   7   8
ATOM      8  N   UNL     1       9.166  10.208  18.203  0.00  0.00    +0.000 N 
ATOM      9  C   UNL     1       9.206  11.571  17.993  0.00  0.00    +0.000 C 
ATOM     10  O   UNL     1       8.258  12.193  17.514  0.00  0.00    +0.000 OA
ATOM     11  H   UNL     1       9.967   9.786  18.661  0.00  0.00    +0.000 HD
BRANCH   9  12
ATOM     12  C   UNL     1      10.449  12.193  18.392  0.00  0.00    +0.000 A 
ATOM     13  C   UNL     1      11.057  12.302  19.629  0.00  0.00    +0.000 A 
ATOM     14  C   UNL     1      12.261  13.021  19.427  0.00  0.00    +0.000 A 
ATOM     15  C   UNL     1      12.318  13.303  18.085  0.00  0.00    +0.000 A 
ATOM     16  O   UNL     1      11.226  12.809  17.444  0.00  0.00    +0.000 OA
ENDBRANCH   9  12
ENDBRANCH   7   8
ENDBRANCH   6   7
ENDBRANCH   3   6
ENDBRANCH   1   2
BRANCH   1  17
ATOM     17  C   UNL     1       5.349   4.410  17.517  0.00  0.00    +0.000 C 
ATOM     18  O   UNL     1       5.574   3.993  18.649  0.00  0.00    +0.000 OA
BRANCH  17  20
ATOM     19  C   UNL     1       5.444   4.341  15.144  0.00  0.00    +0.000 C 
ATOM     20  O   UNL     1       5.341   3.637  16.389  0.00  0.00    +0.000 OA
ENDBRANCH  17  20
ENDBRANCH   1  17
BRANCH   1  21
ATOM     21  C   UNL     1       3.700   6.363  17.287  0.00  0.00    +0.000 C 
BRANCH  21  22
ATOM     22  C   UNL     1       3.000   5.923  18.543  0.00  0.00    +0.000 A 
ATOM     23  C   UNL     1       3.035   6.601  19.748  0.00  0.00    +0.000 A 
ATOM     24  N   UNL     1       2.310   5.896  20.665  0.00  0.00    +0.000 N 
ATOM     25  C   UNL     1       1.823   4.743  20.099  0.00  0.00    +0.000 A 
ATOM     26  C   UNL     1       1.102   3.696  20.685  0.00  0.00    +0.000 A 
ATOM     27  C   UNL     1       0.758   2.615  19.870  0.00  0.00    +0.000 A 
ATOM     28  C   UNL     1       1.071   2.606  18.520  0.00  0.00    +0.000 A 
ATOM     29  C   UNL     1       1.762   3.682  17.941  0.00  0.00    +0.000 A 
ATOM     30  C   UNL     1       2.193   4.755  18.753  0.00  0.00    +0.000 A 
ATOM     31  H   UNL     1       2.185   6.158  21.633  0.00  0.00    +0.000 HD
ENDBRANCH  21  22
ENDBRANCH   1  21
TORSDOF 9
ENDMDL
MODEL 3
REMARK VINA RESULT:      -8.2      1.091      1.198
REMARK  Name = 
REMARK  10 active torsions:
REMARK  status: ('A' for Active; 'I' for Inactive)
REMARK    1  A    between atoms: C_1  and  O_2
REMARK    2  A    between atoms: O_2  and  C_3
REMARK    3  A    between atoms: C_3  and  C_5
REMARK    4  A    between atoms: C_5  and  C_6
REMARK    5  A    between atoms: C_5  and  N_16
REMARK    6  A    between atoms: C_6  and  C_7
REMARK    7  A    between atoms: C_17  and  C_19
REMARK    8  A    between atoms: C_19  and  C_20
REMARK    9  A    between atoms: C_20  and  N_21
REMARK   10  A    between atoms: C_22  and  C_24
REMARK                            x       y       z     vdW  Elec       q    Type
REMARK                         _______ _______ _______ _____ _____    ______ ____
ROOT
ATOM      1  C   UNL     1       6.329   5.923  16.992  0.00  0.00    +0.000 C 
ENDROOT
BRANCH   1   2
ATOM      2  N   UNL     1       6.796   7.324  16.991  0.00  0.00    +0.000 N 
ATOM      3  C   UNL     1       7.750   7.771  17.870  0.00  0.00    +0.000 C 
ATOM      4  O   UNL     1       8.254   7.051  18.731  0.00  0.00    +0.000 OA
ATOM      5  H   UNL     1       6.202   7.999  16.518  0.00  0.00    +0.000 HD
BRANCH   3   6
ATOM      6  C   UNL     1       8.141   9.217  17.701  0.00  0.00    +0.000 C 
BRANCH   6   7
ATOM      7  C   UNL     1       8.973   9.669  18.898  0.00  0.00    +0.000 C 
BRANCH   7   8
ATOM      8  N   UNL     1       9.669  10.907  18.629  0.00  0.00    +0.000 N 
ATOM      9  C   UNL     1       9.687  11.954  19.527  0.00  0.00    +0.000 C 
ATOM     10  O   UNL     1       9.128  11.896  20.621  0.00  0.00    +0.000 OA
ATOM     11  H   UNL     1      10.209  11.016  17.778  0.00  0.00    +0.000 HD
BRANCH   9  12
ATOM     12  C   UNL     1      10.425  13.110  19.068  0.00  0.00    +0.000 A 
ATOM     13  C   UNL     1      10.222  13.952  17.989  0.00  0.00    +0.000 A 
ATOM     14  C   UNL     1      11.260  14.915  18.025  0.00  0.00    +0.000 A 
ATOM     15  C   UNL     1      12.030  14.608  19.119  0.00  0.00    +0.000 A 
ATOM     16  O   UNL     1      11.538  13.516  19.761  0.00  0.00    +0.000 OA
ENDBRANCH   9  12
ENDBRANCH   7   8
ENDBRANCH   6   7
ENDBRANCH   3   6
ENDBRANCH   1   2
BRANCH   1  17
ATOM     17  C   UNL     1       7.416   5.000  16.407  0.00  0.00    +0.000 C 
ATOM     18  O   UNL     1       8.075   4.202  17.066  0.00  0.00    +0.000 OA
BRANCH  17  20
ATOM     19  C   UNL     1       6.708   4.662  14.165  0.00  0.00    +0.000 C 
ATOM     20  O   UNL     1       7.621   5.277  15.084  0.00  0.00    +0.000 OA
ENDBRANCH  17  20
ENDBRANCH   1  17
BRANCH   1  21
ATOM     21  C   UNL     1       5.807   5.429  18.361  0.00  0.00    +0.000 C 
BRANCH  21  22
ATOM     22  C   UNL     1       4.313   5.309  18.469  0.00  0.00    +0.000 A 
ATOM     23  C   UNL     1       3.445   6.370  18.655  0.00  0.00    +0.000 A 
ATOM     24  N   UNL     1       2.172   5.882  18.731  0.00  0.00    +0.000 N 
ATOM     25  C   UNL     1       2.183   4.512  18.634  0.00  0.00    +0.000 A 
ATOM     26  C   UNL     1       1.126   3.600  18.738  0.00  0.00    +0.000 A 
ATOM     27  C   UNL     1       1.432   2.242  18.629  0.00  0.00    +0.000 A 
ATOM     28  C   UNL     1       2.727   1.817  18.372  0.00  0.00    +0.000 A 
ATOM     29  C   UNL     1       3.768   2.747  18.233  0.00  0.00    +0.000 A 
ATOM     30  C   UNL     1       3.506   4.124  18.414  0.00  0.00    +0.000 A 
ATOM     31  H   UNL     1       1.344   6.440  18.882  0.00  0.00    +0.000 HD
ENDBRANCH  21  22
ENDBRANCH   1  21
TORSDOF 9
ENDMDL
MODEL 4
REMARK VINA RESULT:      -8.2      5.002      7.508
REMARK  Name = 
REMARK  10 active torsions:
REMARK  status: ('A' for Active; 'I' for Inactive)
REMARK    1  A    between atoms: C_1  and  O_2
REMARK    2  A    between atoms: O_2  and  C_3
REMARK    3  A    between atoms: C_3  and  C_5
REMARK    4  A    between atoms: C_5  and  C_6
REMARK    5  A    between atoms: C_5  and  N_16
REMARK    6  A    between atoms: C_6  and  C_7
REMARK    7  A    between atoms: C_17  and  C_19
REMARK    8  A    between atoms: C_19  and  C_20
REMARK    9  A    between atoms: C_20  and  N_21
REMARK   10  A    between atoms: C_22  and  C_24
REMARK                            x       y       z     vdW  Elec       q    Type
REMARK                         _______ _______ _______ _____ _____    ______ ____
ROOT
ATOM      1  C   UNL     1       2.469   5.527  19.789  0.00  0.00    +0.000 C 
ENDROOT
BRANCH   1   2
ATOM      2  N   UNL     1       3.928   5.703  19.643  0.00  0.00    +0.000 N 
ATOM      3  C   UNL     1       4.551   5.610  18.424  0.00  0.00    +0.000 C 
ATOM      4  O   UNL     1       3.948   5.345  17.384  0.00  0.00    +0.000 OA
ATOM      5  H   UNL     1       4.481   5.619  20.491  0.00  0.00    +0.000 HD
BRANCH   3   6
ATOM      6  C   UNL     1       6.037   5.860  18.450  0.00  0.00    +0.000 C 
BRANCH   6   7
ATOM      7  C   UNL     1       6.782   4.578  18.091  0.00  0.00    +0.000 C 
BRANCH   7   8
ATOM      8  N   UNL     1       6.688   4.281  16.680  0.00  0.00    +0.000 N 
ATOM      9  C   UNL     1       7.119   5.161  15.709  0.00  0.00    +0.000 C 
ATOM     10  O   UNL     1       7.628   6.247  15.981  0.00  0.00    +0.000 OA
ATOM     11  H   UNL     1       6.339   3.381  16.369  0.00  0.00    +0.000 HD
BRANCH   9  12
ATOM     12  C   UNL     1       6.926   4.687  14.356  0.00  0.00    +0.000 A 
ATOM     13  C   UNL     1       6.098   3.705  13.844  0.00  0.00    +0.000 A 
ATOM     14  C   UNL     1       6.330   3.665  12.448  0.00  0.00    +0.000 A 
ATOM     15  C   UNL     1       7.280   4.622  12.190  0.00  0.00    +0.000 A 
ATOM     16  O   UNL     1       7.652   5.249  13.337  0.00  0.00    +0.000 OA
ENDBRANCH   9  12
ENDBRANCH   7   8
ENDBRANCH   6   7
ENDBRANCH   3   6
ENDBRANCH   1   2
BRANCH   1  17
ATOM     17  C   UNL     1       2.129   4.036  19.978  0.00  0.00    +0.000 C 
ATOM     18  O   UNL     1       1.675   3.312  19.098  0.00  0.00    +0.000 OA
BRANCH  17  20
ATOM     19  C   UNL     1       1.480   2.576  21.736  0.00  0.00    +0.000 C 
ATOM     20  O   UNL     1       2.292   3.668  21.285  0.00  0.00    +0.000 OA
ENDBRANCH  17  20
ENDBRANCH   1  17
BRANCH   1  21
ATOM     21  C   UNL     1       1.827   6.422  20.874  0.00  0.00    +0.000 C 
BRANCH  21  22
ATOM     22  C   UNL     1       1.454   7.806  20.421  0.00  0.00    +0.000 A 
ATOM     23  C   UNL     1       1.787   8.355  19.196  0.00  0.00    +0.000 A 
ATOM     24  N   UNL     1       1.304   9.632  19.146  0.00  0.00    +0.000 N 
ATOM     25  C   UNL     1       0.685   9.951  20.330  0.00  0.00    +0.000 A 
ATOM     26  C   UNL     1       0.121  11.163  20.745  0.00  0.00    +0.000 A 
ATOM     27  C   UNL     1      -0.420  11.216  22.030  0.00  0.00    +0.000 A 
ATOM     28  C   UNL     1      -0.447  10.095  22.844  0.00  0.00    +0.000 A 
ATOM     29  C   UNL     1       0.089   8.877  22.399  0.00  0.00    +0.000 A 
ATOM     30  C   UNL     1       0.713   8.809  21.133  0.00  0.00    +0.000 A 
ATOM     31  H   UNL     1       1.421  10.267  18.370  0.00  0.00    +0.000 HD
ENDBRANCH  21  22
ENDBRANCH   1  21
TORSDOF 9
ENDMDL
MODEL 5
REMARK VINA RESULT:      -8.2      2.166      3.429
REMARK  Name = 
REMARK  10 active torsions:
REMARK  status: ('A' for Active; 'I' for Inactive)
REMARK    1  A    between atoms: C_1  and  O_2
REMARK    2  A    between atoms: O_2  and  C_3
REMARK    3  A    between atoms: C_3  and  C_5
REMARK    4  A    between atoms: C_5  and  C_6
REMARK    5  A    between atoms: C_5  and  N_16
REMARK    6  A    between atoms: C_6  and  C_7
REMARK    7  A    between atoms: C_17  and  C_19
REMARK    8  A    between atoms: C_19  and  C_20
REMARK    9  A    between atoms: C_20  and  N_21
REMARK   10  A    between atoms: C_22  and  C_24
REMARK                            x       y       z     vdW  Elec       q    Type
REMARK                         _______ _______ _______ _____ _____    ______ ____
ROOT
ATOM      1  C   UNL     1       5.183   5.244  17.546  0.00  0.00    +0.000 C 
ENDROOT
BRANCH   1   2
ATOM      2  N   UNL     1       6.174   6.148  18.165  0.00  0.00    +0.000 N 
ATOM      3  C   UNL     1       7.257   6.621  17.469  0.00  0.00    +0.000 C 
ATOM      4  O   UNL     1       7.492   6.304  16.303  0.00  0.00    +0.000 OA
ATOM      5  H   UNL     1       6.181   6.184  19.179  0.00  0.00    +0.000 HD
BRANCH   3   6
ATOM      6  C   UNL     1       8.142   7.568  18.238  0.00  0.00    +0.000 C 
BRANCH   6   7
ATOM      7  C   UNL     1       7.750   9.009  17.927  0.00  0.00    +0.000 C 
BRANCH   7   8
ATOM      8  N   UNL     1       8.898   9.887  17.924  0.00  0.00    +0.000 N 
ATOM      9  C   UNL     1       9.387  10.469  19.075  0.00  0.00    +0.000 C 
ATOM     10  O   UNL     1       8.888  10.265  20.181  0.00  0.00    +0.000 OA
ATOM     11  H   UNL     1       9.408  10.060  17.064  0.00  0.00    +0.000 HD
BRANCH   9  12
ATOM     12  C   UNL     1      10.532  11.325  18.862  0.00  0.00    +0.000 A 
ATOM     13  C   UNL     1      11.011  11.939  17.719  0.00  0.00    +0.000 A 
ATOM     14  C   UNL     1      12.173  12.655  18.100  0.00  0.00    +0.000 A 
ATOM     15  C   UNL     1      12.332  12.440  19.446  0.00  0.00    +0.000 A 
ATOM     16  O   UNL     1      11.347  11.634  19.923  0.00  0.00    +0.000 OA
ENDBRANCH   9  12
ENDBRANCH   7   8
ENDBRANCH   6   7
ENDBRANCH   3   6
ENDBRANCH   1   2
BRANCH   1  17
ATOM     17  C   UNL     1       5.075   3.938  18.356  0.00  0.00    +0.000 C 
ATOM     18  O   UNL     1       5.701   3.708  19.387  0.00  0.00    +0.000 OA
BRANCH  17  20
ATOM     19  C   UNL     1       3.454   2.211  18.542  0.00  0.00    +0.000 C 
ATOM     20  O   UNL     1       4.281   3.034  17.708  0.00  0.00    +0.000 OA
ENDBRANCH  17  20
ENDBRANCH   1  17
BRANCH   1  21
ATOM     21  C   UNL     1       3.804   5.895  17.287  0.00  0.00    +0.000 C 
BRANCH  21  22
ATOM     22  C   UNL     1       3.122   6.451  18.506  0.00  0.00    +0.000 A 
ATOM     23  C   UNL     1       3.005   5.792  19.717  0.00  0.00    +0.000 A 
ATOM     24  N   UNL     1       2.306   6.589  20.579  0.00  0.00    +0.000 N 
ATOM     25  C   UNL     1       1.928   7.750  19.950  0.00  0.00    +0.000 A 
ATOM     26  C   UNL     1       1.140   8.806  20.423  0.00  0.00    +0.000 A 
ATOM     27  C   UNL     1       0.884   9.862  19.546  0.00  0.00    +0.000 A 
ATOM     28  C   UNL     1       1.436   9.889  18.275  0.00  0.00    +0.000 A 
ATOM     29  C   UNL     1       2.254   8.840  17.830  0.00  0.00    +0.000 A 
ATOM     30  C   UNL     1       2.471   7.720  18.664  0.00  0.00    +0.000 A 
ATOM     31  H   UNL     1       2.062   6.344  21.528  0.00  0.00    +0.000 HD
ENDBRANCH  21  22
ENDBRANCH   1  21
TORSDOF 9
ENDMDL
MODEL 6
REMARK VINA RESULT:      -8.2      5.305      7.496
REMARK  Name = 
REMARK  10 active torsions:
REMARK  status: ('A' for Active; 'I' for Inactive)
REMARK    1  A    between atoms: C_1  and  O_2
REMARK    2  A    between atoms: O_2  and  C_3
REMARK    3  A    between atoms: C_3  and  C_5
REMARK    4  A    between atoms: C_5  and  C_6
REMARK    5  A    between atoms: C_5  and  N_16
REMARK    6  A    between atoms: C_6  and  C_7
REMARK    7  A    between atoms: C_17  and  C_19
REMARK    8  A    between atoms: C_19  and  C_20
REMARK    9  A    between atoms: C_20  and  N_21
REMARK   10  A    between atoms: C_22  and  C_24
REMARK                            x       y       z     vdW  Elec       q    Type
REMARK                         _______ _______ _______ _____ _____    ______ ____
ROOT
ATOM      1  C   UNL     1       2.771   5.401  18.682  0.00  0.00    +0.000 C 
ENDROOT
BRANCH   1   2
ATOM      2  N   UNL     1       4.056   4.709  18.906  0.00  0.00    +0.000 N 
ATOM      3  C   UNL     1       5.250   5.244  18.491  0.00  0.00    +0.000 C 
ATOM      4  O   UNL     1       5.327   6.312  17.883  0.00  0.00    +0.000 OA
ATOM      5  H   UNL     1       4.005   3.718  19.121  0.00  0.00    +0.000 HD
BRANCH   3   6
ATOM      6  C   UNL     1       6.468   4.428  18.840  0.00  0.00    +0.000 C 
BRANCH   6   7
ATOM      7  C   UNL     1       7.529   4.597  17.757  0.00  0.00    +0.000 C 
BRANCH   7   8
ATOM      8  N   UNL     1       7.041   4.183  16.461  0.00  0.00    +0.000 N 
ATOM      9  C   UNL     1       7.158   4.977  15.339  0.00  0.00    +0.000 C 
ATOM     10  O   UNL     1       7.702   6.080  15.365  0.00  0.00    +0.000 OA
ATOM     11  H   UNL     1       6.636   3.261  16.337  0.00  0.00    +0.000 HD
BRANCH   9  12
ATOM     12  C   UNL     1       6.596   4.392  14.142  0.00  0.00    +0.000 A 
ATOM     13  C   UNL     1       5.361   3.819  13.901  0.00  0.00    +0.000 A 
ATOM     14  C   UNL     1       5.361   3.409  12.545  0.00  0.00    +0.000 A 
ATOM     15  C   UNL     1       6.590   3.756  12.040  0.00  0.00    +0.000 A 
ATOM     16  O   UNL     1       7.350   4.352  12.996  0.00  0.00    +0.000 OA
ENDBRANCH   9  12
ENDBRANCH   7   8
ENDBRANCH   6   7
ENDBRANCH   3   6
ENDBRANCH   1   2
BRANCH   1  17
ATOM     17  C   UNL     1       1.677   4.383  18.308  0.00  0.00    +0.000 C 
ATOM     18  O   UNL     1       1.084   4.365  17.233  0.00  0.00    +0.000 OA
BRANCH  17  20
ATOM     19  C   UNL     1       0.852   2.286  19.063  0.00  0.00    +0.000 C 
ATOM     20  O   UNL     1       1.379   3.583  19.376  0.00  0.00    +0.000 OA
ENDBRANCH  17  20
ENDBRANCH   1  17
BRANCH   1  21
ATOM     21  C   UNL     1       2.341   6.333  19.839  0.00  0.00    +0.000 C 
BRANCH  21  22
ATOM     22  C   UNL     1       1.929   7.717  19.424  0.00  0.00    +0.000 A 
ATOM     23  C   UNL     1       2.149   8.268  18.174  0.00  0.00    +0.000 A 
ATOM     24  N   UNL     1       1.665   9.545  18.170  0.00  0.00    +0.000 N 
ATOM     25  C   UNL     1       1.158   9.863  19.407  0.00  0.00    +0.000 A 
ATOM     26  C   UNL     1       0.637  11.076  19.873  0.00  0.00    +0.000 A 
ATOM     27  C   UNL     1       0.217  11.128  21.204  0.00  0.00    +0.000 A 
ATOM     28  C   UNL     1       0.265  10.005  22.015  0.00  0.00    +0.000 A 
ATOM     29  C   UNL     1       0.755   8.787  21.521  0.00  0.00    +0.000 A 
ATOM     30  C   UNL     1       1.259   8.720  20.202  0.00  0.00    +0.000 A 
ATOM     31  H   UNL     1       1.711  10.181  17.388  0.00  0.00    +0.000 HD
ENDBRANCH  21  22
ENDBRANCH   1  21
TORSDOF 9
ENDMDL
MODEL 7
REMARK VINA RESULT:      -8.2      1.068      1.086
REMARK  Name = 
REMARK  10 active torsions:
REMARK  status: ('A' for Active; 'I' for Inactive)
REMARK    1  A    between atoms: C_1  and  O_2
REMARK    2  A    between atoms: O_2  and  C_3
REMARK    3  A    between atoms: C_3  and  C_5
REMARK    4  A    between atoms: C_5  and  C_6
REMARK    5  A    between atoms: C_5  and  N_16
REMARK    6  A    between atoms: C_6  and  C_7
REMARK    7  A    between atoms: C_17  and  C_19
REMARK    8  A    between atoms: C_19  and  C_20
REMARK    9  A    between atoms: C_20  and  N_21
REMARK   10  A    between atoms: C_22  and  C_24
REMARK                            x       y       z     vdW  Elec       q    Type
REMARK                         _______ _______ _______ _____ _____    ______ ____
ROOT
ATOM      1  C   UNL     1       6.255   5.977  17.028  0.00  0.00    +0.000 C 
ENDROOT
BRANCH   1   2
ATOM      2  N   UNL     1       6.777   7.357  16.967  0.00  0.00    +0.000 N 
ATOM      3  C   UNL     1       7.766   7.797  17.809  0.00  0.00    +0.000 C 
ATOM      4  O   UNL     1       8.260   7.087  18.686  0.00  0.00    +0.000 OA
ATOM      5  H   UNL     1       6.199   8.038  16.482  0.00  0.00    +0.000 HD
BRANCH   3   6
ATOM      6  C   UNL     1       8.210   9.219  17.581  0.00  0.00    +0.000 C 
BRANCH   6   7
ATOM      7  C   UNL     1       8.907   9.748  18.831  0.00  0.00    +0.000 C 
BRANCH   7   8
ATOM      8  N   UNL     1       9.765  10.872  18.530  0.00  0.00    +0.000 N 
ATOM      9  C   UNL     1       9.319  11.977  17.835  0.00  0.00    +0.000 C 
ATOM     10  O   UNL     1       8.158  12.086  17.442  0.00  0.00    +0.000 OA
ATOM     11  H   UNL     1      10.720  10.892  18.871  0.00  0.00    +0.000 HD
BRANCH   9  12
ATOM     12  C   UNL     1      10.331  12.987  17.623  0.00  0.00    +0.000 A 
ATOM     13  C   UNL     1      10.279  14.366  17.722  0.00  0.00    +0.000 A 
ATOM     14  C   UNL     1      11.571  14.846  17.396  0.00  0.00    +0.000 A 
ATOM     15  C   UNL     1      12.333  13.738  17.120  0.00  0.00    +0.000 A 
ATOM     16  O   UNL     1      11.596  12.604  17.252  0.00  0.00    +0.000 OA
ENDBRANCH   9  12
ENDBRANCH   7   8
ENDBRANCH   6   7
ENDBRANCH   3   6
ENDBRANCH   1   2
BRANCH   1  17
ATOM     17  C   UNL     1       7.286   4.993  16.442  0.00  0.00    +0.000 C 
ATOM     18  O   UNL     1       7.984   4.239  17.113  0.00  0.00    +0.000 OA
BRANCH  17  20
ATOM     19  C   UNL     1       6.606   4.276  14.281  0.00  0.00    +0.000 C 
ATOM     20  O   UNL     1       7.395   5.160  15.089  0.00  0.00    +0.000 OA
ENDBRANCH  17  20
ENDBRANCH   1  17
BRANCH   1  21
ATOM     21  C   UNL     1       5.757   5.548  18.428  0.00  0.00    +0.000 C 
BRANCH  21  22
ATOM     22  C   UNL     1       4.267   5.397  18.556  0.00  0.00    +0.000 A 
ATOM     23  C   UNL     1       3.334   6.254  18.002  0.00  0.00    +0.000 A 
ATOM     24  N   UNL     1       2.086   5.819  18.346  0.00  0.00    +0.000 N 
ATOM     25  C   UNL     1       2.176   4.707  19.148  0.00  0.00    +0.000 A 
ATOM     26  C   UNL     1       1.163   3.984  19.790  0.00  0.00    +0.000 A 
ATOM     27  C   UNL     1       1.548   2.900  20.581  0.00  0.00    +0.000 A 
ATOM     28  C   UNL     1       2.877   2.522  20.683  0.00  0.00    +0.000 A 
ATOM     29  C   UNL     1       3.876   3.235  20.003  0.00  0.00    +0.000 A 
ATOM     30  C   UNL     1       3.530   4.383  19.255  0.00  0.00    +0.000 A 
ATOM     31  H   UNL     1       1.221   6.271  18.088  0.00  0.00    +0.000 HD
ENDBRANCH  21  22
ENDBRANCH   1  21
TORSDOF 9
ENDMDL
MODEL 8
REMARK VINA RESULT:      -8.1      5.551      8.474
REMARK  Name = 
REMARK  10 active torsions:
REMARK  status: ('A' for Active; 'I' for Inactive)
REMARK    1  A    between atoms: C_1  and  O_2
REMARK    2  A    between atoms: O_2  and  C_3
REMARK    3  A    between atoms: C_3  and  C_5
REMARK    4  A    between atoms: C_5  and  C_6
REMARK    5  A    between atoms: C_5  and  N_16
REMARK    6  A    between atoms: C_6  and  C_7
REMARK    7  A    between atoms: C_17  and  C_19
REMARK    8  A    between atoms: C_19  and  C_20
REMARK    9  A    between atoms: C_20  and  N_21
REMARK   10  A    between atoms: C_22  and  C_24
REMARK                            x       y       z     vdW  Elec       q    Type
REMARK                         _______ _______ _______ _____ _____    ______ ____
ROOT
ATOM      1  C   UNL     1       3.166   4.993  19.820  0.00  0.00    +0.000 C 
ENDROOT
BRANCH   1   2
ATOM      2  N   UNL     1       2.978   5.954  18.714  0.00  0.00    +0.000 N 
ATOM      3  C   UNL     1       2.496   7.220  18.929  0.00  0.00    +0.000 C 
ATOM      4  O   UNL     1       2.161   7.628  20.041  0.00  0.00    +0.000 OA
ATOM      5  H   UNL     1       2.951   5.565  17.777  0.00  0.00    +0.000 HD
BRANCH   3   6
ATOM      6  C   UNL     1       2.408   8.084  17.697  0.00  0.00    +0.000 C 
BRANCH   6   7
ATOM      7  C   UNL     1       2.037   9.510  18.092  0.00  0.00    +0.000 C 
BRANCH   7   8
ATOM      8  N   UNL     1       0.679   9.834  17.717  0.00  0.00    +0.000 N 
ATOM      9  C   UNL     1      -0.292  10.138  18.648  0.00  0.00    +0.000 C 
ATOM     10  O   UNL     1      -0.062  10.171  19.855  0.00  0.00    +0.000 OA
ATOM     11  H   UNL     1       0.419   9.892  16.738  0.00  0.00    +0.000 HD
BRANCH   9  12
ATOM     12  C   UNL     1      -1.590  10.420  18.074  0.00  0.00    +0.000 A 
ATOM     13  C   UNL     1      -2.222   9.909  16.955  0.00  0.00    +0.000 A 
ATOM     14  C   UNL     1      -3.480  10.553  16.870  0.00  0.00    +0.000 A 
ATOM     15  C   UNL     1      -3.543  11.413  17.939  0.00  0.00    +0.000 A 
ATOM     16  O   UNL     1      -2.404  11.345  18.677  0.00  0.00    +0.000 OA
ENDBRANCH   9  12
ENDBRANCH   7   8
ENDBRANCH   6   7
ENDBRANCH   3   6
ENDBRANCH   1   2
BRANCH   1  17
ATOM     17  C   UNL     1       1.884   4.165  20.030  0.00  0.00    +0.000 C 
ATOM     18  O   UNL     1       0.866   4.589  20.569  0.00  0.00    +0.000 OA
BRANCH  17  20
ATOM     19  C   UNL     1       1.576   2.520  18.344  0.00  0.00    +0.000 C 
ATOM     20  O   UNL     1       2.079   2.869  19.641  0.00  0.00    +0.000 OA
ENDBRANCH  17  20
ENDBRANCH   1  17
BRANCH   1  21
ATOM     21  C   UNL     1       4.426   4.107  19.683  0.00  0.00    +0.000 C 
BRANCH  21  22
ATOM     22  C   UNL     1       5.519   4.680  18.824  0.00  0.00    +0.000 A 
ATOM     23  C   UNL     1       6.556   5.470  19.285  0.00  0.00    +0.000 A 
ATOM     24  N   UNL     1       7.337   5.826  18.223  0.00  0.00    +0.000 N 
ATOM     25  C   UNL     1       6.817   5.313  17.059  0.00  0.00    +0.000 A 
ATOM     26  C   UNL     1       7.242   5.488  15.737  0.00  0.00    +0.000 A 
ATOM     27  C   UNL     1       6.496   4.868  14.733  0.00  0.00    +0.000 A 
ATOM     28  C   UNL     1       5.409   4.064  15.039  0.00  0.00    +0.000 A 
ATOM     29  C   UNL     1       5.020   3.869  16.372  0.00  0.00    +0.000 A 
ATOM     30  C   UNL     1       5.705   4.544  17.407  0.00  0.00    +0.000 A 
ATOM     31  H   UNL     1       8.155   6.416  18.275  0.00  0.00    +0.000 HD
ENDBRANCH  21  22
ENDBRANCH   1  21
TORSDOF 9
ENDMDL
MODEL 9
REMARK VINA RESULT:      -8.1      1.576      2.228
REMARK  Name = 
REMARK  10 active torsions:
REMARK  status: ('A' for Active; 'I' for Inactive)
REMARK    1  A    between atoms: C_1  and  O_2
REMARK    2  A    between atoms: O_2  and  C_3
REMARK    3  A    between atoms: C_3  and  C_5
REMARK    4  A    between atoms: C_5  and  C_6
REMARK    5  A    between atoms: C_5  and  N_16
REMARK    6  A    between atoms: C_6  and  C_7
REMARK    7  A    between atoms: C_17  and  C_19
REMARK    8  A    between atoms: C_19  and  C_20
REMARK    9  A    between atoms: C_20  and  N_21
REMARK   10  A    between atoms: C_22  and  C_24
REMARK                            x       y       z     vdW  Elec       q    Type
REMARK                         _______ _______ _______ _____ _____    ______ ____
ROOT
ATOM      1  C   UNL     1       5.814   5.405  15.859  0.00  0.00    +0.000 C 
ENDROOT
BRANCH   1   2
ATOM      2  N   UNL     1       6.559   6.304  16.763  0.00  0.00    +0.000 N 
ATOM      3  C   UNL     1       7.369   5.822  17.759  0.00  0.00    +0.000 C 
ATOM      4  O   UNL     1       7.505   4.620  17.986  0.00  0.00    +0.000 OA
ATOM      5  H   UNL     1       6.242   7.268  16.805  0.00  0.00    +0.000 HD
BRANCH   3   6
ATOM      6  C   UNL     1       8.089   6.877  18.560  0.00  0.00    +0.000 C 
BRANCH   6   7
ATOM      7  C   UNL     1       7.963   8.228  17.863  0.00  0.00    +0.000 C 
BRANCH   7   8
ATOM      8  N   UNL     1       8.726   9.253  18.540  0.00  0.00    +0.000 N 
ATOM      9  C   UNL     1       8.635  10.587  18.202  0.00  0.00    +0.000 C 
ATOM     10  O   UNL     1       7.886  10.994  17.315  0.00  0.00    +0.000 OA
ATOM     11  H   UNL     1       9.321   9.012  19.326  0.00  0.00    +0.000 HD
BRANCH   9  12
ATOM     12  C   UNL     1       9.487  11.453  18.987  0.00  0.00    +0.000 A 
ATOM     13  C   UNL     1       9.847  12.777  18.815  0.00  0.00    +0.000 A 
ATOM     14  C   UNL     1      10.710  13.106  19.889  0.00  0.00    +0.000 A 
ATOM     15  C   UNL     1      10.823  11.970  20.651  0.00  0.00    +0.000 A 
ATOM     16  O   UNL     1      10.088  10.959  20.117  0.00  0.00    +0.000 OA
ENDBRANCH   9  12
ENDBRANCH   7   8
ENDBRANCH   6   7
ENDBRANCH   3   6
ENDBRANCH   1   2
BRANCH   1  17
ATOM     17  C   UNL     1       6.741   4.886  14.743  0.00  0.00    +0.000 C 
ATOM     18  O   UNL     1       7.712   5.497  14.308  0.00  0.00    +0.000 OA
BRANCH  17  20
ATOM     19  C   UNL     1       6.243   3.614  12.799  0.00  0.00    +0.000 C 
ATOM     20  O   UNL     1       6.265   3.712  14.230  0.00  0.00    +0.000 OA
ENDBRANCH  17  20
ENDBRANCH   1  17
BRANCH   1  21
ATOM     21  C   UNL     1       5.059   4.264  16.579  0.00  0.00    +0.000 C 
BRANCH  21  22
ATOM     22  C   UNL     1       3.916   4.705  17.451  0.00  0.00    +0.000 A 
ATOM     23  C   UNL     1       3.619   6.020  17.760  0.00  0.00    +0.000 A 
ATOM     24  N   UNL     1       2.535   6.036  18.591  0.00  0.00    +0.000 N 
ATOM     25  C   UNL     1       2.130   4.753  18.867  0.00  0.00    +0.000 A 
ATOM     26  C   UNL     1       1.120   4.300  19.724  0.00  0.00    +0.000 A 
ATOM     27  C   UNL     1       0.943   2.920  19.839  0.00  0.00    +0.000 A 
ATOM     28  C   UNL     1       1.702   2.034  19.089  0.00  0.00    +0.000 A 
ATOM     29  C   UNL     1       2.685   2.507  18.206  0.00  0.00    +0.000 A 
ATOM     30  C   UNL     1       2.942   3.894  18.123  0.00  0.00    +0.000 A 
ATOM     31  H   UNL     1       2.117   6.867  18.984  0.00  0.00    +0.000 HD
ENDBRANCH  21  22
ENDBRANCH   1  21
TORSDOF 9
ENDMDL
