MODEL 1
REMARK VINA RESULT:      -7.6      0.000      0.000
REMARK  Name = 
REMARK  10 active torsions:
REMARK  status: ('A' for Active; 'I' for Inactive)
REMARK    1  A    between atoms: C_1  and  O_2
REMARK    2  A    between atoms: O_2  and  C_3
REMARK    3  A    between atoms: C_3  and  C_5
REMARK    4  A    between atoms: C_6  and  C_7
REMARK    5  A    between atoms: C_12  and  C_13
REMARK    6  A    between atoms: C_15  and  C_16
REMARK    7  A    between atoms: N_17  and  C_18
REMARK    8  A    between atoms: C_19  and  C_20
REMARK    9  A    between atoms: C_24  and  C_25
REMARK   10  A    between atoms: C_26  and  C_27
REMARK                            x       y       z     vdW  Elec       q    Type
REMARK                         _______ _______ _______ _____ _____    ______ ____
ROOT
ATOM      1  C   UNL     1       2.153   7.623  19.727  0.00  0.00    +0.000 A 
ATOM      2  C   UNL     1       1.523   7.643  20.957  0.00  0.00    +0.000 A 
ATOM      3  C   UNL     1       0.701   8.752  20.997  0.00  0.00    +0.000 A 
ATOM      4  C   UNL     1      -0.087   9.051  22.221  0.00  0.00    +0.000 C 
ATOM      5  N   UNL     1       0.822   9.473  19.779  0.00  0.00    +0.000 N 
ATOM      6  C   UNL     1       1.709   8.695  18.979  0.00  0.00    +0.000 A 
ATOM      7  C   UNL     1       2.060   8.901  17.539  0.00  0.00    +0.000 C 
ENDROOT
BRANCH   1  15
ATOM      8  C   UNL     1       3.825   4.236  19.021  0.00  0.00    +0.000 C 
ATOM      9  C   UNL     1       3.166   3.065  19.109  0.00  0.00    +0.000 C 
ATOM     10  C   UNL     1       3.592   1.669  18.828  0.00  0.00    +0.000 C 
ATOM     11  N   UNL     1       1.888   3.279  19.575  0.00  0.00    +0.000 N 
ATOM     12  C   UNL     1       1.637   4.612  19.823  0.00  0.00    +0.000 C 
ATOM     13  O   UNL     1       0.606   5.075  20.280  0.00  0.00    +0.000 OA
ATOM     14  C   UNL     1       2.903   5.294  19.393  0.00  0.00    +0.000 C 
ATOM     15  C   UNL     1       3.069   6.627  19.317  0.00  0.00    +0.000 C 
ATOM     16  H   UNL     1       1.198   2.567  19.763  0.00  0.00    +0.000 HD
BRANCH   8  17
ATOM     17  C   UNL     1       5.243   4.395  18.640  0.00  0.00    +0.000 C 
ATOM     18  O   UNL     1       6.171   4.448  19.429  0.00  0.00    +0.000 OA
BRANCH  17  20
ATOM     19  C   UNL     1       6.681   4.514  16.776  0.00  0.00    +0.000 C 
ATOM     20  O   UNL     1       5.351   4.511  17.291  0.00  0.00    +0.000 OA
ENDBRANCH  17  20
ENDBRANCH   8  17
ENDBRANCH   1  15
BRANCH   5  21
ATOM     21  C   UNL     1       0.178  10.738  19.381  0.00  0.00    +0.000 A 
ATOM     22  C   UNL     1       0.725  12.005  19.769  0.00  0.00    +0.000 A 
ATOM     23  C   UNL     1       1.821  12.268  20.774  0.00  0.00    +0.000 C 
ATOM     24  C   UNL     1       0.185  13.214  19.253  0.00  0.00    +0.000 A 
ATOM     25  C   UNL     1      -0.929  13.228  18.441  0.00  0.00    +0.000 A 
ATOM     26  C   UNL     1      -1.522  12.023  18.124  0.00  0.00    +0.000 A 
ATOM     27  C   UNL     1      -0.987  10.779  18.551  0.00  0.00    +0.000 A 
ATOM     28  C   UNL     1      -1.777   9.619  18.018  0.00  0.00    +0.000 C 
ENDBRANCH   5  21
TORSDOF 4
ENDMDL
MODEL 2
REMARK VINA RESULT:      -7.5      0.146      1.707
REMARK  Name = 
REMARK  10 active torsions:
REMARK  status: ('A' for Active; 'I' for Inactive)
REMARK    1  A    between atoms: C_1  and  O_2
REMARK    2  A    between atoms: O_2  and  C_3
REMARK    3  A    between atoms: C_3  and  C_5
REMARK    4  A    between atoms: C_6  and  C_7
REMARK    5  A    between atoms: C_12  and  C_13
REMARK    6  A    between atoms: C_15  and  C_16
REMARK    7  A    between atoms: N_17  and  C_18
REMARK    8  A    between atoms: C_19  and  C_20
REMARK    9  A    between atoms: C_24  and  C_25
REMARK   10  A    between atoms: C_26  and  C_27
REMARK                            x       y       z     vdW  Elec       q    Type
REMARK                         _______ _______ _______ _____ _____    ______ ____
ROOT
ATOM      1  C   UNL     1       2.153   7.609  19.729  0.00  0.00    +0.000 A 
ATOM      2  C   UNL     1       1.513   7.616  20.954  0.00  0.00    +0.000 A 
ATOM      3  C   UNL     1       0.692   8.725  21.000  0.00  0.00    +0.000 A 
ATOM      4  C   UNL     1      -0.106   9.011  22.221  0.00  0.00    +0.000 C 
ATOM      5  N   UNL     1       0.825   9.461  19.792  0.00  0.00    +0.000 N 
ATOM      6  C   UNL     1       1.718   8.692  18.991  0.00  0.00    +0.000 A 
ATOM      7  C   UNL     1       2.082   8.914  17.556  0.00  0.00    +0.000 C 
ENDROOT
BRANCH   1  15
ATOM      8  C   UNL     1       3.829   4.228  19.006  0.00  0.00    +0.000 C 
ATOM      9  C   UNL     1       3.171   3.056  19.084  0.00  0.00    +0.000 C 
ATOM     10  C   UNL     1       3.599   1.663  18.796  0.00  0.00    +0.000 C 
ATOM     11  N   UNL     1       1.892   3.267  19.549  0.00  0.00    +0.000 N 
ATOM     12  C   UNL     1       1.639   4.598  19.805  0.00  0.00    +0.000 C 
ATOM     13  O   UNL     1       0.607   5.057  20.262  0.00  0.00    +0.000 OA
ATOM     14  C   UNL     1       2.906   5.283  19.382  0.00  0.00    +0.000 C 
ATOM     15  C   UNL     1       3.070   6.617  19.315  0.00  0.00    +0.000 C 
ATOM     16  H   UNL     1       1.201   2.552  19.731  0.00  0.00    +0.000 HD
BRANCH   8  17
ATOM     17  C   UNL     1       5.248   4.391  18.629  0.00  0.00    +0.000 C 
ATOM     18  O   UNL     1       6.161   4.555  19.420  0.00  0.00    +0.000 OA
BRANCH  17  20
ATOM     19  C   UNL     1       6.698   4.554  16.778  0.00  0.00    +0.000 C 
ATOM     20  O   UNL     1       5.374   4.369  17.277  0.00  0.00    +0.000 OA
ENDBRANCH  17  20
ENDBRANCH   8  17
ENDBRANCH   1  15
BRANCH   5  21
ATOM     21  C   UNL     1       0.187  10.733  19.404  0.00  0.00    +0.000 A 
ATOM     22  C   UNL     1      -0.978  10.755  18.568  0.00  0.00    +0.000 A 
ATOM     23  C   UNL     1      -1.577   9.608  17.789  0.00  0.00    +0.000 C 
ATOM     24  C   UNL     1      -1.671  11.972  18.327  0.00  0.00    +0.000 A 
ATOM     25  C   UNL     1      -1.211  13.180  18.805  0.00  0.00    +0.000 A 
ATOM     26  C   UNL     1      -0.045  13.192  19.541  0.00  0.00    +0.000 A 
ATOM     27  C   UNL     1       0.653  12.001  19.874  0.00  0.00    +0.000 A 
ATOM     28  C   UNL     1       1.850  12.278  20.736  0.00  0.00    +0.000 C 
ENDBRANCH   5  21
TORSDOF 4
ENDMDL
MODEL 3
REMARK VINA RESULT:      -7.0      2.778      7.961
REMARK  Name = 
REMARK  10 active torsions:
REMARK  status: ('A' for Active; 'I' for Inactive)
REMARK    1  A    between atoms: C_1  and  O_2
REMARK    2  A    between atoms: O_2  and  C_3
REMARK    3  A    between atoms: C_3  and  C_5
REMARK    4  A    between atoms: C_6  and  C_7
REMARK    5  A    between atoms: C_12  and  C_13
REMARK    6  A    between atoms: C_15  and  C_16
REMARK    7  A    between atoms: N_17  and  C_18
REMARK    8  A    between atoms: C_19  and  C_20
REMARK    9  A    between atoms: C_24  and  C_25
REMARK   10  A    between atoms: C_26  and  C_27
REMARK                            x       y       z     vdW  Elec       q    Type
REMARK                         _______ _______ _______ _____ _____    ______ ____
ROOT
ATOM      1  C   UNL     1       2.154   8.225  19.259  0.00  0.00    +0.000 A 
ATOM      2  C   UNL     1       2.875   8.430  18.099  0.00  0.00    +0.000 A 
ATOM      3  C   UNL     1       3.363   7.209  17.678  0.00  0.00    +0.000 A 
ATOM      4  C   UNL     1       4.210   7.124  16.459  0.00  0.00    +0.000 C 
ATOM      5  N   UNL     1       2.969   6.201  18.598  0.00  0.00    +0.000 N 
ATOM      6  C   UNL     1       2.158   6.876  19.556  0.00  0.00    +0.000 A 
ATOM      7  C   UNL     1       1.346   6.270  20.657  0.00  0.00    +0.000 C 
ENDROOT
BRANCH   1  15
ATOM      8  C   UNL     1      -0.200  11.102  20.234  0.00  0.00    +0.000 C 
ATOM      9  C   UNL     1      -1.258  11.464  19.486  0.00  0.00    +0.000 C 
ATOM     10  C   UNL     1      -2.313  12.487  19.699  0.00  0.00    +0.000 C 
ATOM     11  N   UNL     1      -1.281  10.731  18.320  0.00  0.00    +0.000 N 
ATOM     12  C   UNL     1      -0.230   9.842  18.239  0.00  0.00    +0.000 C 
ATOM     13  O   UNL     1       0.014   9.104  17.300  0.00  0.00    +0.000 OA
ATOM     14  C   UNL     1       0.482  10.018  19.549  0.00  0.00    +0.000 C 
ATOM     15  C   UNL     1       1.496   9.248  19.980  0.00  0.00    +0.000 C 
ATOM     16  H   UNL     1      -1.951  10.828  17.571  0.00  0.00    +0.000 HD
BRANCH   8  17
ATOM     17  C   UNL     1       0.201  11.726  21.512  0.00  0.00    +0.000 C 
ATOM     18  O   UNL     1       0.710  12.829  21.615  0.00  0.00    +0.000 OA
BRANCH  17  20
ATOM     19  C   UNL     1      -1.339  10.991  23.138  0.00  0.00    +0.000 C 
ATOM     20  O   UNL     1      -0.048  10.876  22.541  0.00  0.00    +0.000 OA
ENDBRANCH  17  20
ENDBRANCH   8  17
ENDBRANCH   1  15
BRANCH   5  21
ATOM     21  C   UNL     1       3.289   4.761  18.593  0.00  0.00    +0.000 A 
ATOM     22  C   UNL     1       4.543   4.277  19.093  0.00  0.00    +0.000 A 
ATOM     23  C   UNL     1       5.766   5.086  19.456  0.00  0.00    +0.000 C 
ATOM     24  C   UNL     1       4.778   2.882  19.224  0.00  0.00    +0.000 A 
ATOM     25  C   UNL     1       3.861   1.944  18.799  0.00  0.00    +0.000 A 
ATOM     26  C   UNL     1       2.682   2.389  18.237  0.00  0.00    +0.000 A 
ATOM     27  C   UNL     1       2.361   3.769  18.144  0.00  0.00    +0.000 A 
ATOM     28  C   UNL     1       0.997   3.987  17.557  0.00  0.00    +0.000 C 
ENDBRANCH   5  21
TORSDOF 4
ENDMDL
MODEL 4
REMARK VINA RESULT:      -6.8      2.237      3.787
REMARK  Name = 
REMARK  10 active torsions:
REMARK  status: ('A' for Active; 'I' for Inactive)
REMARK    1  A    between atoms: C_1  and  O_2
REMARK    2  A    between atoms: O_2  and  C_3
REMARK    3  A    between atoms: C_3  and  C_5
REMARK    4  A    between atoms: C_6  and  C_7
REMARK    5  A    between atoms: C_12  and  C_13
REMARK    6  A    between atoms: C_15  and  C_16
REMARK    7  A    between atoms: N_17  and  C_18
REMARK    8  A    between atoms: C_19  and  C_20
REMARK    9  A    between atoms: C_24  and  C_25
REMARK   10  A    between atoms: C_26  and  C_27
REMARK                            x       y       z     vdW  Elec       q    Type
REMARK                         _______ _______ _______ _____ _____    ______ ____
ROOT
ATOM      1  C   UNL     1       0.683   8.869  20.474  0.00  0.00    +0.000 A 
ATOM      2  C   UNL     1       0.102   9.391  19.335  0.00  0.00    +0.000 A 
ATOM      3  C   UNL     1      -0.176  10.723  19.569  0.00  0.00    +0.000 A 
ATOM      4  C   UNL     1      -0.837  11.543  18.520  0.00  0.00    +0.000 C 
ATOM      5  N   UNL     1       0.211  11.060  20.894  0.00  0.00    +0.000 N 
ATOM      6  C   UNL     1       0.801   9.872  21.416  0.00  0.00    +0.000 A 
ATOM      7  C   UNL     1       1.528   9.705  22.714  0.00  0.00    +0.000 C 
ENDROOT
BRANCH   1  15
ATOM      8  C   UNL     1       2.415   5.490  19.884  0.00  0.00    +0.000 C 
ATOM      9  C   UNL     1       3.409   5.326  18.990  0.00  0.00    +0.000 C 
ATOM     10  C   UNL     1       4.243   4.146  18.648  0.00  0.00    +0.000 C 
ATOM     11  N   UNL     1       3.606   6.495  18.289  0.00  0.00    +0.000 N 
ATOM     12  C   UNL     1       2.746   7.497  18.686  0.00  0.00    +0.000 C 
ATOM     13  O   UNL     1       2.676   8.614  18.204  0.00  0.00    +0.000 OA
ATOM     14  C   UNL     1       1.974   6.871  19.811  0.00  0.00    +0.000 C 
ATOM     15  C   UNL     1       1.111   7.528  20.607  0.00  0.00    +0.000 C 
ATOM     16  H   UNL     1       4.268   6.632  17.539  0.00  0.00    +0.000 HD
BRANCH   8  17
ATOM     17  C   UNL     1       1.865   4.433  20.757  0.00  0.00    +0.000 C 
ATOM     18  O   UNL     1       2.401   4.025  21.773  0.00  0.00    +0.000 OA
BRANCH  17  20
ATOM     19  C   UNL     1       0.806   2.772  19.465  0.00  0.00    +0.000 C 
ATOM     20  O   UNL     1       0.700   3.965  20.240  0.00  0.00    +0.000 OA
ENDBRANCH  17  20
ENDBRANCH   8  17
ENDBRANCH   1  15
BRANCH   5  21
ATOM     21  C   UNL     1       0.070  12.343  21.606  0.00  0.00    +0.000 A 
ATOM     22  C   UNL     1       0.924  13.455  21.310  0.00  0.00    +0.000 A 
ATOM     23  C   UNL     1       2.180  13.457  20.471  0.00  0.00    +0.000 C 
ATOM     24  C   UNL     1       0.680  14.729  21.891  0.00  0.00    +0.000 A 
ATOM     25  C   UNL     1      -0.318  14.928  22.821  0.00  0.00    +0.000 A 
ATOM     26  C   UNL     1      -1.099  13.849  23.183  0.00  0.00    +0.000 A 
ATOM     27  C   UNL     1      -0.949  12.570  22.585  0.00  0.00    +0.000 A 
ATOM     28  C   UNL     1      -1.960  11.589  23.103  0.00  0.00    +0.000 C 
ENDBRANCH   5  21
TORSDOF 4
ENDMDL
MODEL 5
REMARK VINA RESULT:      -6.7      4.753      9.448
REMARK  Name = 
REMARK  10 active torsions:
REMARK  status: ('A' for Active; 'I' for Inactive)
REMARK    1  A    between atoms: C_1  and  O_2
REMARK    2  A    between atoms: O_2  and  C_3
REMARK    3  A    between atoms: C_3  and  C_5
REMARK    4  A    between atoms: C_6  and  C_7
REMARK    5  A    between atoms: C_12  and  C_13
REMARK    6  A    between atoms: C_15  and  C_16
REMARK    7  A    between atoms: N_17  and  C_18
REMARK    8  A    between atoms: C_19  and  C_20
REMARK    9  A    between atoms: C_24  and  C_25
REMARK   10  A    between atoms: C_26  and  C_27
REMARK                            x       y       z     vdW  Elec       q    Type
REMARK                         _______ _______ _______ _____ _____    ______ ____
ROOT
ATOM      1  C   UNL     1      -0.255  13.002  18.780  0.00  0.00    +0.000 A 
ATOM      2  C   UNL     1      -1.310  12.295  18.235  0.00  0.00    +0.000 A 
ATOM      3  C   UNL     1      -1.112  10.957  18.508  0.00  0.00    +0.000 A 
ATOM      4  C   UNL     1      -2.083   9.944  18.014  0.00  0.00    +0.000 C 
ATOM      5  N   UNL     1       0.106  10.795  19.219  0.00  0.00    +0.000 N 
ATOM      6  C   UNL     1       0.592  12.120  19.420  0.00  0.00    +0.000 A 
ATOM      7  C   UNL     1       1.757  12.550  20.254  0.00  0.00    +0.000 C 
ENDROOT
BRANCH   1  15
ATOM      8  C   UNL     1      -0.510  16.763  19.530  0.00  0.00    +0.000 C 
ATOM      9  C   UNL     1      -0.975  17.243  20.698  0.00  0.00    +0.000 C 
ATOM     10  C   UNL     1      -1.103  18.631  21.213  0.00  0.00    +0.000 C 
ATOM     11  N   UNL     1      -1.420  16.207  21.488  0.00  0.00    +0.000 N 
ATOM     12  C   UNL     1      -1.271  14.980  20.877  0.00  0.00    +0.000 C 
ATOM     13  O   UNL     1      -1.619  13.904  21.332  0.00  0.00    +0.000 OA
ATOM     14  C   UNL     1      -0.594  15.314  19.579  0.00  0.00    +0.000 C 
ATOM     15  C   UNL     1      -0.116  14.407  18.708  0.00  0.00    +0.000 C 
ATOM     16  H   UNL     1      -1.845  16.295  22.399  0.00  0.00    +0.000 HD
BRANCH   8  17
ATOM     17  C   UNL     1      -0.028  17.580  18.397  0.00  0.00    +0.000 C 
ATOM     18  O   UNL     1      -0.667  17.805  17.384  0.00  0.00    +0.000 OA
BRANCH  17  20
ATOM     19  C   UNL     1       2.275  17.101  18.265  0.00  0.00    +0.000 C 
ATOM     20  O   UNL     1       1.238  18.006  18.639  0.00  0.00    +0.000 OA
ENDBRANCH  17  20
ENDBRANCH   8  17
ENDBRANCH   1  15
BRANCH   5  21
ATOM     21  C   UNL     1       0.754   9.554  19.683  0.00  0.00    +0.000 A 
ATOM     22  C   UNL     1       0.451   8.993  20.967  0.00  0.00    +0.000 A 
ATOM     23  C   UNL     1      -0.326   9.632  22.094  0.00  0.00    +0.000 C 
ATOM     24  C   UNL     1       0.964   7.720  21.339  0.00  0.00    +0.000 A 
ATOM     25  C   UNL     1       1.834   7.020  20.531  0.00  0.00    +0.000 A 
ATOM     26  C   UNL     1       2.205   7.582  19.327  0.00  0.00    +0.000 A 
ATOM     27  C   UNL     1       1.672   8.816  18.870  0.00  0.00    +0.000 A 
ATOM     28  C   UNL     1       2.183   9.174  17.505  0.00  0.00    +0.000 C 
ENDBRANCH   5  21
TORSDOF 4
ENDMDL
MODEL 6
REMARK VINA RESULT:      -6.7      2.808      8.112
REMARK  Name = 
REMARK  10 active torsions:
REMARK  status: ('A' for Active; 'I' for Inactive)
REMARK    1  A    between atoms: C_1  and  O_2
REMARK    2  A    between atoms: O_2  and  C_3
REMARK    3  A    between atoms: C_3  and  C_5
REMARK    4  A    between atoms: C_6  and  C_7
REMARK    5  A    between atoms: C_12  and  C_13
REMARK    6  A    between atoms: C_15  and  C_16
REMARK    7  A    between atoms: N_17  and  C_18
REMARK    8  A    between atoms: C_19  and  C_20
REMARK    9  A    between atoms: C_24  and  C_25
REMARK   10  A    between atoms: C_26  and  C_27
REMARK                            x       y       z     vdW  Elec       q    Type
REMARK                         _______ _______ _______ _____ _____    ______ ____
ROOT
ATOM      1  C   UNL     1       2.149   8.264  19.185  0.00  0.00    +0.000 A 
ATOM      2  C   UNL     1       2.869   8.487  18.026  0.00  0.00    +0.000 A 
ATOM      3  C   UNL     1       3.351   7.271  17.584  0.00  0.00    +0.000 A 
ATOM      4  C   UNL     1       4.195   7.204  16.362  0.00  0.00    +0.000 C 
ATOM      5  N   UNL     1       2.956   6.249  18.488  0.00  0.00    +0.000 N 
ATOM      6  C   UNL     1       2.149   6.911  19.459  0.00  0.00    +0.000 A 
ATOM      7  C   UNL     1       1.337   6.289  20.552  0.00  0.00    +0.000 C 
ENDROOT
BRANCH   1  15
ATOM      8  C   UNL     1      -0.218  11.107  20.226  0.00  0.00    +0.000 C 
ATOM      9  C   UNL     1      -1.302  11.454  19.506  0.00  0.00    +0.000 C 
ATOM     10  C   UNL     1      -2.366  12.462  19.749  0.00  0.00    +0.000 C 
ATOM     11  N   UNL     1      -1.346  10.721  18.341  0.00  0.00    +0.000 N 
ATOM     12  C   UNL     1      -0.285   9.848  18.230  0.00  0.00    +0.000 C 
ATOM     13  O   UNL     1      -0.055   9.114  17.285  0.00  0.00    +0.000 OA
ATOM     14  C   UNL     1       0.460  10.034  19.521  0.00  0.00    +0.000 C 
ATOM     15  C   UNL     1       1.497   9.277  19.924  0.00  0.00    +0.000 C 
ATOM     16  H   UNL     1      -2.037  10.809  17.610  0.00  0.00    +0.000 HD
BRANCH   8  17
ATOM     17  C   UNL     1       0.207  11.736  21.493  0.00  0.00    +0.000 C 
ATOM     18  O   UNL     1       0.689  12.852  21.585  0.00  0.00    +0.000 OA
BRANCH  17  20
ATOM     19  C   UNL     1      -1.268  10.926  23.143  0.00  0.00    +0.000 C 
ATOM     20  O   UNL     1       0.017  10.874  22.525  0.00  0.00    +0.000 OA
ENDBRANCH  17  20
ENDBRANCH   8  17
ENDBRANCH   1  15
BRANCH   5  21
ATOM     21  C   UNL     1       3.271   4.809  18.458  0.00  0.00    +0.000 A 
ATOM     22  C   UNL     1       2.341   3.855  17.930  0.00  0.00    +0.000 A 
ATOM     23  C   UNL     1       0.892   4.083  17.566  0.00  0.00    +0.000 C 
ATOM     24  C   UNL     1       2.715   2.494  17.767  0.00  0.00    +0.000 A 
ATOM     25  C   UNL     1       3.939   2.019  18.185  0.00  0.00    +0.000 A 
ATOM     26  C   UNL     1       4.819   2.904  18.774  0.00  0.00    +0.000 A 
ATOM     27  C   UNL     1       4.529   4.289  18.900  0.00  0.00    +0.000 A 
ATOM     28  C   UNL     1       5.672   5.045  19.512  0.00  0.00    +0.000 C 
ENDBRANCH   5  21
TORSDOF 4
ENDMDL
MODEL 7
REMARK VINA RESULT:      -6.6      2.241      3.948
REMARK  Name = 
REMARK  10 active torsions:
REMARK  status: ('A' for Active; 'I' for Inactive)
REMARK    1  A    between atoms: C_1  and  O_2
REMARK    2  A    between atoms: O_2  and  C_3
REMARK    3  A    between atoms: C_3  and  C_5
REMARK    4  A    between atoms: C_6  and  C_7
REMARK    5  A    between atoms: C_12  and  C_13
REMARK    6  A    between atoms: C_15  and  C_16
REMARK    7  A    between atoms: N_17  and  C_18
REMARK    8  A    between atoms: C_19  and  C_20
REMARK    9  A    between atoms: C_24  and  C_25
REMARK   10  A    between atoms: C_26  and  C_27
REMARK                            x       y       z     vdW  Elec       q    Type
REMARK                         _______ _______ _______ _____ _____    ______ ____
ROOT
ATOM      1  C   UNL     1       0.598   8.856  20.471  0.00  0.00    +0.000 A 
ATOM      2  C   UNL     1      -0.042   9.323  19.339  0.00  0.00    +0.000 A 
ATOM      3  C   UNL     1      -0.338  10.657  19.535  0.00  0.00    +0.000 A 
ATOM      4  C   UNL     1      -1.061  11.422  18.486  0.00  0.00    +0.000 C 
ATOM      5  N   UNL     1       0.097  11.051  20.829  0.00  0.00    +0.000 N 
ATOM      6  C   UNL     1       0.734   9.897  21.369  0.00  0.00    +0.000 A 
ATOM      7  C   UNL     1       1.518   9.794  22.640  0.00  0.00    +0.000 C 
ENDROOT
BRANCH   1  15
ATOM      8  C   UNL     1       2.426   5.514  19.967  0.00  0.00    +0.000 C 
ATOM      9  C   UNL     1       3.433   5.359  19.087  0.00  0.00    +0.000 C 
ATOM     10  C   UNL     1       4.303   4.195  18.777  0.00  0.00    +0.000 C 
ATOM     11  N   UNL     1       3.607   6.519  18.364  0.00  0.00    +0.000 N 
ATOM     12  C   UNL     1       2.716   7.505  18.732  0.00  0.00    +0.000 C 
ATOM     13  O   UNL     1       2.621   8.610  18.228  0.00  0.00    +0.000 OA
ATOM     14  C   UNL     1       1.949   6.881  19.862  0.00  0.00    +0.000 C 
ATOM     15  C   UNL     1       1.061   7.531  20.636  0.00  0.00    +0.000 C 
ATOM     16  H   UNL     1       4.273   6.659  17.618  0.00  0.00    +0.000 HD
BRANCH   8  17
ATOM     17  C   UNL     1       1.895   4.461  20.856  0.00  0.00    +0.000 C 
ATOM     18  O   UNL     1       2.447   4.065  21.868  0.00  0.00    +0.000 OA
BRANCH  17  20
ATOM     19  C   UNL     1       0.844   2.853  19.491  0.00  0.00    +0.000 C 
ATOM     20  O   UNL     1       0.727   3.980  20.358  0.00  0.00    +0.000 OA
ENDBRANCH  17  20
ENDBRANCH   8  17
ENDBRANCH   1  15
BRANCH   5  21
ATOM     21  C   UNL     1      -0.042  12.358  21.497  0.00  0.00    +0.000 A 
ATOM     22  C   UNL     1      -0.993  12.556  22.552  0.00  0.00    +0.000 A 
ATOM     23  C   UNL     1      -2.107  11.628  22.976  0.00  0.00    +0.000 C 
ATOM     24  C   UNL     1      -1.012  13.771  23.290  0.00  0.00    +0.000 A 
ATOM     25  C   UNL     1      -0.191  14.831  22.971  0.00  0.00    +0.000 A 
ATOM     26  C   UNL     1       0.673  14.691  21.905  0.00  0.00    +0.000 A 
ATOM     27  C   UNL     1       0.788  13.478  21.175  0.00  0.00    +0.000 A 
ATOM     28  C   UNL     1       1.843  13.564  20.111  0.00  0.00    +0.000 C 
ENDBRANCH   5  21
TORSDOF 4
ENDMDL
MODEL 8
REMARK VINA RESULT:      -6.5      4.519      7.877
REMARK  Name = 
REMARK  10 active torsions:
REMARK  status: ('A' for Active; 'I' for Inactive)
REMARK    1  A    between atoms: C_1  and  O_2
REMARK    2  A    between atoms: O_2  and  C_3
REMARK    3  A    between atoms: C_3  and  C_5
REMARK    4  A    between atoms: C_6  and  C_7
REMARK    5  A    between atoms: C_12  and  C_13
REMARK    6  A    between atoms: C_15  and  C_16
REMARK    7  A    between atoms: N_17  and  C_18
REMARK    8  A    between atoms: C_19  and  C_20
REMARK    9  A    between atoms: C_24  and  C_25
REMARK   10  A    between atoms: C_26  and  C_27
REMARK                            x       y       z     vdW  Elec       q    Type
REMARK                         _______ _______ _______ _____ _____    ______ ____
ROOT
ATOM      1  C   UNL     1       5.272   3.827  16.363  0.00  0.00    +0.000 A 
ATOM      2  C   UNL     1       6.236   4.480  17.108  0.00  0.00    +0.000 A 
ATOM      3  C   UNL     1       5.783   4.564  18.410  0.00  0.00    +0.000 A 
ATOM      4  C   UNL     1       6.606   5.250  19.441  0.00  0.00    +0.000 C 
ATOM      5  N   UNL     1       4.493   3.977  18.500  0.00  0.00    +0.000 N 
ATOM      6  C   UNL     1       4.228   3.472  17.194  0.00  0.00    +0.000 A 
ATOM      7  C   UNL     1       3.081   2.614  16.761  0.00  0.00    +0.000 C 
ENDROOT
BRANCH   1  15
ATOM      8  C   UNL     1       6.266   3.980  12.654  0.00  0.00    +0.000 C 
ATOM      9  C   UNL     1       7.265   4.759  12.199  0.00  0.00    +0.000 C 
ATOM     10  C   UNL     1       7.846   4.925  10.841  0.00  0.00    +0.000 C 
ATOM     11  N   UNL     1       7.766   5.527  13.225  0.00  0.00    +0.000 N 
ATOM     12  C   UNL     1       7.118   5.295  14.420  0.00  0.00    +0.000 C 
ATOM     13  O   UNL     1       7.330   5.867  15.475  0.00  0.00    +0.000 OA
ATOM     14  C   UNL     1       6.143   4.203  14.084  0.00  0.00    +0.000 C 
ATOM     15  C   UNL     1       5.387   3.548  14.982  0.00  0.00    +0.000 C 
ATOM     16  H   UNL     1       8.498   6.219  13.147  0.00  0.00    +0.000 HD
BRANCH   8  17
ATOM     17  C   UNL     1       5.432   3.083  11.828  0.00  0.00    +0.000 C 
ATOM     18  O   UNL     1       5.736   1.943  11.520  0.00  0.00    +0.000 OA
BRANCH  17  20
ATOM     19  C   UNL     1       3.399   2.962  10.643  0.00  0.00    +0.000 C 
ATOM     20  O   UNL     1       4.305   3.729  11.435  0.00  0.00    +0.000 OA
ENDBRANCH  17  20
ENDBRANCH   8  17
ENDBRANCH   1  15
BRANCH   5  21
ATOM     21  C   UNL     1       3.599   3.874  19.668  0.00  0.00    +0.000 A 
ATOM     22  C   UNL     1       2.606   4.873  19.934  0.00  0.00    +0.000 A 
ATOM     23  C   UNL     1       2.458   6.226  19.278  0.00  0.00    +0.000 C 
ATOM     24  C   UNL     1       1.652   4.686  20.972  0.00  0.00    +0.000 A 
ATOM     25  C   UNL     1       1.695   3.595  21.813  0.00  0.00    +0.000 A 
ATOM     26  C   UNL     1       2.695   2.664  21.628  0.00  0.00    +0.000 A 
ATOM     27  C   UNL     1       3.632   2.760  20.566  0.00  0.00    +0.000 A 
ATOM     28  C   UNL     1       4.573   1.590  20.543  0.00  0.00    +0.000 C 
ENDBRANCH   5  21
TORSDOF 4
ENDMDL
MODEL 9
REMARK VINA RESULT:      -6.5      6.732      9.098
REMARK  Name = 
REMARK  10 active torsions:
REMARK  status: ('A' for Active; 'I' for Inactive)
REMARK    1  A    between atoms: C_1  and  O_2
REMARK    2  A    between atoms: O_2  and  C_3
REMARK    3  A    between atoms: C_3  and  C_5
REMARK    4  A    between atoms: C_6  and  C_7
REMARK    5  A    between atoms: C_12  and  C_13
REMARK    6  A    between atoms: C_15  and  C_16
REMARK    7  A    between atoms: N_17  and  C_18
REMARK    8  A    between atoms: C_19  and  C_20
REMARK    9  A    between atoms: C_24  and  C_25
REMARK   10  A    between atoms: C_26  and  C_27
REMARK                            x       y       z     vdW  Elec       q    Type
REMARK                         _______ _______ _______ _____ _____    ______ ____
ROOT
ATOM      1  C   UNL     1      -0.471  14.054  19.026  0.00  0.00    +0.000 A 
ATOM      2  C   UNL     1      -0.818  12.849  18.446  0.00  0.00    +0.000 A 
ATOM      3  C   UNL     1      -1.789  12.261  19.231  0.00  0.00    +0.000 A 
ATOM      4  C   UNL     1      -2.337  10.929  18.865  0.00  0.00    +0.000 C 
ATOM      5  N   UNL     1      -2.055  13.090  20.353  0.00  0.00    +0.000 N 
ATOM      6  C   UNL     1      -1.240  14.243  20.158  0.00  0.00    +0.000 A 
ATOM      7  C   UNL     1      -1.244  15.511  20.952  0.00  0.00    +0.000 C 
ENDROOT
BRANCH   1  15
ATOM      8  C   UNL     1       2.805  15.949  18.362  0.00  0.00    +0.000 C 
ATOM      9  C   UNL     1       3.991  15.551  18.859  0.00  0.00    +0.000 C 
ATOM     10  C   UNL     1       5.365  16.089  18.684  0.00  0.00    +0.000 C 
ATOM     11  N   UNL     1       3.812  14.467  19.689  0.00  0.00    +0.000 N 
ATOM     12  C   UNL     1       2.489  14.092  19.785  0.00  0.00    +0.000 C 
ATOM     13  O   UNL     1       2.045  13.196  20.482  0.00  0.00    +0.000 OA
ATOM     14  C   UNL     1       1.789  15.031  18.845  0.00  0.00    +0.000 C 
ATOM     15  C   UNL     1       0.492  14.945  18.500  0.00  0.00    +0.000 C 
ATOM     16  H   UNL     1       4.535  13.996  20.214  0.00  0.00    +0.000 HD
BRANCH   8  17
ATOM     17  C   UNL     1       2.589  17.130  17.502  0.00  0.00    +0.000 C 
ATOM     18  O   UNL     1       2.913  17.202  16.329  0.00  0.00    +0.000 OA
BRANCH  17  20
ATOM     19  C   UNL     1       0.779  18.626  17.706  0.00  0.00    +0.000 C 
ATOM     20  O   UNL     1       2.014  18.128  18.220  0.00  0.00    +0.000 OA
ENDBRANCH  17  20
ENDBRANCH   8  17
ENDBRANCH   1  15
BRANCH   5  21
ATOM     21  C   UNL     1      -2.975  12.859  21.482  0.00  0.00    +0.000 A 
ATOM     22  C   UNL     1      -2.516  12.269  22.706  0.00  0.00    +0.000 A 
ATOM     23  C   UNL     1      -1.186  11.602  22.966  0.00  0.00    +0.000 C 
ATOM     24  C   UNL     1      -3.373  12.192  23.837  0.00  0.00    +0.000 A 
ATOM     25  C   UNL     1      -4.691  12.592  23.782  0.00  0.00    +0.000 A 
ATOM     26  C   UNL     1      -5.176  13.085  22.589  0.00  0.00    +0.000 A 
ATOM     27  C   UNL     1      -4.350  13.252  21.446  0.00  0.00    +0.000 A 
ATOM     28  C   UNL     1      -5.100  13.867  20.300  0.00  0.00    +0.000 C 
ENDBRANCH   5  21
TORSDOF 4
ENDMDL
