MODEL 1
REMARK VINA RESULT:      -7.6      0.000      0.000
REMARK  Name = 
REMARK  7 active torsions:
REMARK  status: ('A' for Active; 'I' for Inactive)
REMARK    1  A    between atoms: C_2  and  C_16
REMARK    2  A    between atoms: N_3  and  C_4
REMARK    3  A    between atoms: C_7  and  N_8
REMARK    4  A    between atoms: C_12  and  C_13
REMARK    5  A    between atoms: C_13  and  O_15
REMARK    6  A    between atoms: C_19  and  S_20
REMARK    7  A    between atoms: S_20  and  C_21
REMARK                            x       y       z     vdW  Elec       q    Type
REMARK                         _______ _______ _______ _____ _____    ______ ____
ROOT
ATOM      1  O   UNL     1       2.078   8.727  17.416  0.00  0.00    +0.000 OA
ATOM      2  C   UNL     1       2.109   8.252  18.544  0.00  0.00    +0.000 C 
ATOM      3  N   UNL     1       2.780   7.087  18.887  0.00  0.00    +0.000 N 
ATOM      4  H   UNL     1       2.410   6.556  19.675  0.00  0.00    +0.000 HD
ENDROOT
BRANCH   3   5
ATOM      5  C   UNL     1       3.645   6.424  17.985  0.00  0.00    +0.000 A 
ATOM      6  C   UNL     1       4.775   7.096  17.495  0.00  0.00    +0.000 A 
ATOM      7  C   UNL     1       5.666   6.459  16.629  0.00  0.00    +0.000 A 
ATOM      8  C   UNL     1       5.421   5.139  16.233  0.00  0.00    +0.000 A 
ATOM      9  C   UNL     1       4.307   4.446  16.720  0.00  0.00    +0.000 A 
ATOM     10  C   UNL     1       3.419   5.090  17.598  0.00  0.00    +0.000 A 
BRANCH   8  11
ATOM     11  N   UNL     1       6.331   4.486  15.284  0.00  0.00    +0.000 N 
ATOM     12  O   UNL     1       7.537   4.752  15.368  0.00  0.00    +0.000 OA
ATOM     13  O   UNL     1       5.836   3.716  14.449  0.00  0.00    +0.000 OA
ENDBRANCH   8  11
BRANCH  10  14
ATOM     14  C   UNL     1       2.225   4.324  18.028  0.00  0.00    +0.000 C 
ATOM     15  O   UNL     1       1.342   3.994  17.258  0.00  0.00    +0.000 OA
BRANCH  14  16
ATOM     16  O   UNL     1       2.205   4.049  19.349  0.00  0.00    +0.000 OA
ATOM     17  H   UNL     1       1.397   4.360  19.810  0.00  0.00    +0.000 HD
ENDBRANCH  14  16
ENDBRANCH  10  14
ENDBRANCH   3   5
BRANCH   2  18
ATOM     18  C   UNL     1       1.287   8.857  19.618  0.00  0.00    +0.000 A 
ATOM     19  C   UNL     1       0.394   9.884  19.294  0.00  0.00    +0.000 A 
ATOM     20  C   UNL     1      -0.365  10.492  20.296  0.00  0.00    +0.000 A 
ATOM     21  C   UNL     1      -0.234  10.085  21.630  0.00  0.00    +0.000 A 
ATOM     22  C   UNL     1       0.684   9.076  21.949  0.00  0.00    +0.000 A 
ATOM     23  C   UNL     1       1.435   8.455  20.949  0.00  0.00    +0.000 A 
BRANCH  21  24
ATOM     24  S   UNL     1      -1.161  10.937  22.887  0.00  0.00    +0.000 S 
BRANCH  24  25
ATOM     25  C   UNL     1      -0.851  12.659  22.465  0.00  0.00    +0.000 C 
ATOM     26  F   UNL     1       0.384  12.882  21.958  0.00  0.00    +0.000 F 
ATOM     27  F   UNL     1      -1.744  13.093  21.543  0.00  0.00    +0.000 F 
ATOM     28  F   UNL     1      -0.984  13.450  23.556  0.00  0.00    +0.000 F 
ENDBRANCH  24  25
ENDBRANCH  21  24
ENDBRANCH   2  18
TORSDOF 7
ENDMDL
MODEL 2
REMARK VINA RESULT:      -7.5      5.608      9.041
REMARK  Name = 
REMARK  7 active torsions:
REMARK  status: ('A' for Active; 'I' for Inactive)
REMARK    1  A    between atoms: C_2  and  C_16
REMARK    2  A    between atoms: N_3  and  C_4
REMARK    3  A    between atoms: C_7  and  N_8
REMARK    4  A    between atoms: C_12  and  C_13
REMARK    5  A    between atoms: C_13  and  O_15
REMARK    6  A    between atoms: C_19  and  S_20
REMARK    7  A    between atoms: S_20  and  C_21
REMARK                            x       y       z     vdW  Elec       q    Type
REMARK                         _______ _______ _______ _____ _____    ______ ____
ROOT
ATOM      1  O   UNL     1       1.547   5.834  20.487  0.00  0.00    +0.000 OA
ATOM      2  C   UNL     1       2.235   6.430  19.667  0.00  0.00    +0.000 C 
ATOM      3  N   UNL     1       2.167   7.795  19.430  0.00  0.00    +0.000 N 
ATOM      4  H   UNL     1       2.421   8.114  18.495  0.00  0.00    +0.000 HD
ENDROOT
BRANCH   3   5
ATOM      5  C   UNL     1       1.407   8.664  20.247  0.00  0.00    +0.000 A 
ATOM      6  C   UNL     1       1.468   8.527  21.642  0.00  0.00    +0.000 A 
ATOM      7  C   UNL     1       0.754   9.389  22.477  0.00  0.00    +0.000 A 
ATOM      8  C   UNL     1      -0.043  10.392  21.915  0.00  0.00    +0.000 A 
ATOM      9  C   UNL     1      -0.110  10.554  20.526  0.00  0.00    +0.000 A 
ATOM     10  C   UNL     1       0.618   9.688  19.692  0.00  0.00    +0.000 A 
BRANCH   8  11
ATOM     11  N   UNL     1      -0.833  11.267  22.791  0.00  0.00    +0.000 N 
ATOM     12  O   UNL     1      -0.464  12.443  22.913  0.00  0.00    +0.000 OA
ATOM     13  O   UNL     1      -1.814  10.774  23.365  0.00  0.00    +0.000 OA
ENDBRANCH   8  11
BRANCH  10  14
ATOM     14  C   UNL     1       0.457   9.871  18.230  0.00  0.00    +0.000 C 
ATOM     15  O   UNL     1      -0.630   9.858  17.680  0.00  0.00    +0.000 OA
BRANCH  14  16
ATOM     16  O   UNL     1       1.624  10.032  17.573  0.00  0.00    +0.000 OA
ATOM     17  H   UNL     1       1.959   9.214  17.147  0.00  0.00    +0.000 HD
ENDBRANCH  14  16
ENDBRANCH  10  14
ENDBRANCH   3   5
BRANCH   2  18
ATOM     18  C   UNL     1       3.121   5.665  18.759  0.00  0.00    +0.000 A 
ATOM     19  C   UNL     1       4.477   6.002  18.689  0.00  0.00    +0.000 A 
ATOM     20  C   UNL     1       5.323   5.318  17.815  0.00  0.00    +0.000 A 
ATOM     21  C   UNL     1       4.823   4.296  16.998  0.00  0.00    +0.000 A 
ATOM     22  C   UNL     1       3.458   3.984  17.054  0.00  0.00    +0.000 A 
ATOM     23  C   UNL     1       2.610   4.656  17.936  0.00  0.00    +0.000 A 
BRANCH  21  24
ATOM     24  S   UNL     1       5.917   3.500  15.843  0.00  0.00    +0.000 S 
BRANCH  24  25
ATOM     25  C   UNL     1       5.802   4.595  14.419  0.00  0.00    +0.000 C 
ATOM     26  F   UNL     1       5.210   5.781  14.690  0.00  0.00    +0.000 F 
ATOM     27  F   UNL     1       7.035   4.870  13.927  0.00  0.00    +0.000 F 
ATOM     28  F   UNL     1       5.093   4.013  13.423  0.00  0.00    +0.000 F 
ENDBRANCH  24  25
ENDBRANCH  21  24
ENDBRANCH   2  18
TORSDOF 7
ENDMDL
MODEL 3
REMARK VINA RESULT:      -7.5      0.214      1.130
REMARK  Name = 
REMARK  7 active torsions:
REMARK  status: ('A' for Active; 'I' for Inactive)
REMARK    1  A    between atoms: C_2  and  C_16
REMARK    2  A    between atoms: N_3  and  C_4
REMARK    3  A    between atoms: C_7  and  N_8
REMARK    4  A    between atoms: C_12  and  C_13
REMARK    5  A    between atoms: C_13  and  O_15
REMARK    6  A    between atoms: C_19  and  S_20
REMARK    7  A    between atoms: S_20  and  C_21
REMARK                            x       y       z     vdW  Elec       q    Type
REMARK                         _______ _______ _______ _____ _____    ______ ____
ROOT
ATOM      1  O   UNL     1       2.136   8.820  17.409  0.00  0.00    +0.000 OA
ATOM      2  C   UNL     1       2.125   8.299  18.517  0.00  0.00    +0.000 C 
ATOM      3  N   UNL     1       2.751   7.101  18.828  0.00  0.00    +0.000 N 
ATOM      4  H   UNL     1       2.346   6.552  19.586  0.00  0.00    +0.000 HD
ENDROOT
BRANCH   3   5
ATOM      5  C   UNL     1       3.617   6.447  17.920  0.00  0.00    +0.000 A 
ATOM      6  C   UNL     1       4.701   7.151  17.375  0.00  0.00    +0.000 A 
ATOM      7  C   UNL     1       5.593   6.524  16.501  0.00  0.00    +0.000 A 
ATOM      8  C   UNL     1       5.393   5.184  16.153  0.00  0.00    +0.000 A 
ATOM      9  C   UNL     1       4.324   4.460  16.694  0.00  0.00    +0.000 A 
ATOM     10  C   UNL     1       3.436   5.094  17.580  0.00  0.00    +0.000 A 
BRANCH   8  11
ATOM     11  N   UNL     1       6.301   4.540  15.196  0.00  0.00    +0.000 N 
ATOM     12  O   UNL     1       5.796   3.909  14.258  0.00  0.00    +0.000 OA
ATOM     13  O   UNL     1       7.519   4.659  15.389  0.00  0.00    +0.000 OA
ENDBRANCH   8  11
BRANCH  10  14
ATOM     14  C   UNL     1       2.289   4.292  18.069  0.00  0.00    +0.000 C 
ATOM     15  O   UNL     1       1.807   4.439  19.177  0.00  0.00    +0.000 OA
BRANCH  14  16
ATOM     16  O   UNL     1       1.849   3.378  17.178  0.00  0.00    +0.000 OA
ATOM     17  H   UNL     1       2.374   3.342  16.350  0.00  0.00    +0.000 HD
ENDBRANCH  14  16
ENDBRANCH  10  14
ENDBRANCH   3   5
BRANCH   2  18
ATOM     18  C   UNL     1       1.297   8.888  19.596  0.00  0.00    +0.000 A 
ATOM     19  C   UNL     1       0.413   9.926  19.285  0.00  0.00    +0.000 A 
ATOM     20  C   UNL     1      -0.351  10.518  20.293  0.00  0.00    +0.000 A 
ATOM     21  C   UNL     1      -0.235  10.084  21.619  0.00  0.00    +0.000 A 
ATOM     22  C   UNL     1       0.673   9.062  21.925  0.00  0.00    +0.000 A 
ATOM     23  C   UNL     1       1.430   8.457  20.920  0.00  0.00    +0.000 A 
BRANCH  21  24
ATOM     24  S   UNL     1      -1.170  10.915  22.885  0.00  0.00    +0.000 S 
BRANCH  24  25
ATOM     25  C   UNL     1      -0.879  12.643  22.476  0.00  0.00    +0.000 C 
ATOM     26  F   UNL     1      -1.727  13.133  21.543  0.00  0.00    +0.000 F 
ATOM     27  F   UNL     1      -1.007  13.423  23.578  0.00  0.00    +0.000 F 
ATOM     28  F   UNL     1       0.378  12.819  22.005  0.00  0.00    +0.000 F 
ENDBRANCH  24  25
ENDBRANCH  21  24
ENDBRANCH   2  18
TORSDOF 7
ENDMDL
MODEL 4
REMARK VINA RESULT:      -7.4      0.277      1.204
REMARK  Name = 
REMARK  7 active torsions:
REMARK  status: ('A' for Active; 'I' for Inactive)
REMARK    1  A    between atoms: C_2  and  C_16
REMARK    2  A    between atoms: N_3  and  C_4
REMARK    3  A    between atoms: C_7  and  N_8
REMARK    4  A    between atoms: C_12  and  C_13
REMARK    5  A    between atoms: C_13  and  O_15
REMARK    6  A    between atoms: C_19  and  S_20
REMARK    7  A    between atoms: S_20  and  C_21
REMARK                            x       y       z     vdW  Elec       q    Type
REMARK                         _______ _______ _______ _____ _____    ______ ____
ROOT
ATOM      1  O   UNL     1       2.114   8.758  17.335  0.00  0.00    +0.000 OA
ATOM      2  C   UNL     1       2.181   8.296  18.466  0.00  0.00    +0.000 C 
ATOM      3  N   UNL     1       2.855   7.130  18.799  0.00  0.00    +0.000 N 
ATOM      4  H   UNL     1       2.510   6.613  19.607  0.00  0.00    +0.000 HD
ENDROOT
BRANCH   3   5
ATOM      5  C   UNL     1       3.682   6.449  17.876  0.00  0.00    +0.000 A 
ATOM      6  C   UNL     1       4.788   7.112  17.323  0.00  0.00    +0.000 A 
ATOM      7  C   UNL     1       5.643   6.457  16.433  0.00  0.00    +0.000 A 
ATOM      8  C   UNL     1       5.383   5.129  16.077  0.00  0.00    +0.000 A 
ATOM      9  C   UNL     1       4.292   4.446  16.625  0.00  0.00    +0.000 A 
ATOM     10  C   UNL     1       3.442   5.107  17.527  0.00  0.00    +0.000 A 
BRANCH   8  11
ATOM     11  N   UNL     1       6.253   4.457  15.103  0.00  0.00    +0.000 N 
ATOM     12  O   UNL     1       7.477   4.541  15.270  0.00  0.00    +0.000 OA
ATOM     13  O   UNL     1       5.710   3.853  14.167  0.00  0.00    +0.000 OA
ENDBRANCH   8  11
BRANCH  10  14
ATOM     14  C   UNL     1       2.269   4.350  18.024  0.00  0.00    +0.000 C 
ATOM     15  O   UNL     1       1.462   3.822  17.280  0.00  0.00    +0.000 OA
BRANCH  14  16
ATOM     16  O   UNL     1       2.174   4.320  19.370  0.00  0.00    +0.000 OA
ATOM     17  H   UNL     1       1.261   4.193  19.704  0.00  0.00    +0.000 HD
ENDBRANCH  14  16
ENDBRANCH  10  14
ENDBRANCH   3   5
BRANCH   2  18
ATOM     18  C   UNL     1       1.404   8.922  19.562  0.00  0.00    +0.000 A 
ATOM     19  C   UNL     1       1.478   8.374  20.846  0.00  0.00    +0.000 A 
ATOM     20  C   UNL     1       0.727   8.926  21.886  0.00  0.00    +0.000 A 
ATOM     21  C   UNL     1      -0.109  10.025  21.651  0.00  0.00    +0.000 A 
ATOM     22  C   UNL     1      -0.198  10.550  20.355  0.00  0.00    +0.000 A 
ATOM     23  C   UNL     1       0.561  10.010  19.314  0.00  0.00    +0.000 A 
BRANCH  21  24
ATOM     24  S   UNL     1      -1.107  10.652  22.984  0.00  0.00    +0.000 S 
BRANCH  24  25
ATOM     25  C   UNL     1      -1.203  12.402  22.574  0.00  0.00    +0.000 C 
ATOM     26  F   UNL     1      -2.028  12.675  21.536  0.00  0.00    +0.000 F 
ATOM     27  F   UNL     1      -1.650  13.117  23.636  0.00  0.00    +0.000 F 
ATOM     28  F   UNL     1       0.019  12.886  22.251  0.00  0.00    +0.000 F 
ENDBRANCH  24  25
ENDBRANCH  21  24
ENDBRANCH   2  18
TORSDOF 7
ENDMDL
MODEL 5
REMARK VINA RESULT:      -7.4      0.279      1.500
REMARK  Name = 
REMARK  7 active torsions:
REMARK  status: ('A' for Active; 'I' for Inactive)
REMARK    1  A    between atoms: C_2  and  C_16
REMARK    2  A    between atoms: N_3  and  C_4
REMARK    3  A    between atoms: C_7  and  N_8
REMARK    4  A    between atoms: C_12  and  C_13
REMARK    5  A    between atoms: C_13  and  O_15
REMARK    6  A    between atoms: C_19  and  S_20
REMARK    7  A    between atoms: S_20  and  C_21
REMARK                            x       y       z     vdW  Elec       q    Type
REMARK                         _______ _______ _______ _____ _____    ______ ____
ROOT
ATOM      1  O   UNL     1       1.838   8.808  17.337  0.00  0.00    +0.000 OA
ATOM      2  C   UNL     1       1.969   8.438  18.497  0.00  0.00    +0.000 C 
ATOM      3  N   UNL     1       2.711   7.332  18.889  0.00  0.00    +0.000 N 
ATOM      4  H   UNL     1       2.421   6.863  19.746  0.00  0.00    +0.000 HD
ENDROOT
BRANCH   3   5
ATOM      5  C   UNL     1       3.536   6.621  17.986  0.00  0.00    +0.000 A 
ATOM      6  C   UNL     1       4.634   7.268  17.401  0.00  0.00    +0.000 A 
ATOM      7  C   UNL     1       5.487   6.585  16.531  0.00  0.00    +0.000 A 
ATOM      8  C   UNL     1       5.232   5.243  16.227  0.00  0.00    +0.000 A 
ATOM      9  C   UNL     1       4.148   4.575  16.808  0.00  0.00    +0.000 A 
ATOM     10  C   UNL     1       3.300   5.266  17.690  0.00  0.00    +0.000 A 
BRANCH   8  11
ATOM     11  N   UNL     1       6.099   4.538  15.273  0.00  0.00    +0.000 N 
ATOM     12  O   UNL     1       5.563   4.009  14.291  0.00  0.00    +0.000 OA
ATOM     13  O   UNL     1       7.313   4.508  15.514  0.00  0.00    +0.000 OA
ENDBRANCH   8  11
BRANCH  10  14
ATOM     14  C   UNL     1       2.135   4.521  18.223  0.00  0.00    +0.000 C 
ATOM     15  O   UNL     1       1.923   4.393  19.415  0.00  0.00    +0.000 OA
BRANCH  14  16
ATOM     16  O   UNL     1       1.350   3.987  17.263  0.00  0.00    +0.000 OA
ATOM     17  H   UNL     1       0.539   4.505  17.076  0.00  0.00    +0.000 HD
ENDBRANCH  14  16
ENDBRANCH  10  14
ENDBRANCH   3   5
BRANCH   2  18
ATOM     18  C   UNL     1       1.203   9.109  19.573  0.00  0.00    +0.000 A 
ATOM     19  C   UNL     1       1.437   8.744  20.903  0.00  0.00    +0.000 A 
ATOM     20  C   UNL     1       0.702   9.339  21.930  0.00  0.00    +0.000 A 
ATOM     21  C   UNL     1      -0.277  10.298  21.638  0.00  0.00    +0.000 A 
ATOM     22  C   UNL     1      -0.524  10.636  20.301  0.00  0.00    +0.000 A 
ATOM     23  C   UNL     1       0.218  10.054  19.271  0.00  0.00    +0.000 A 
BRANCH  21  24
ATOM     24  S   UNL     1      -1.245  10.976  22.968  0.00  0.00    +0.000 S 
BRANCH  24  25
ATOM     25  C   UNL     1      -1.052  12.744  22.693  0.00  0.00    +0.000 C 
ATOM     26  F   UNL     1      -1.154  13.486  23.820  0.00  0.00    +0.000 F 
ATOM     27  F   UNL     1       0.160  13.014  22.148  0.00  0.00    +0.000 F 
ATOM     28  F   UNL     1      -1.990  13.199  21.829  0.00  0.00    +0.000 F 
ENDBRANCH  24  25
ENDBRANCH  21  24
ENDBRANCH   2  18
TORSDOF 7
ENDMDL
MODEL 6
REMARK VINA RESULT:      -7.2      5.652      9.091
REMARK  Name = 
REMARK  7 active torsions:
REMARK  status: ('A' for Active; 'I' for Inactive)
REMARK    1  A    between atoms: C_2  and  C_16
REMARK    2  A    between atoms: N_3  and  C_4
REMARK    3  A    between atoms: C_7  and  N_8
REMARK    4  A    between atoms: C_12  and  C_13
REMARK    5  A    between atoms: C_13  and  O_15
REMARK    6  A    between atoms: C_19  and  S_20
REMARK    7  A    between atoms: S_20  and  C_21
REMARK                            x       y       z     vdW  Elec       q    Type
REMARK                         _______ _______ _______ _____ _____    ______ ____
ROOT
ATOM      1  O   UNL     1       1.652   6.005  20.444  0.00  0.00    +0.000 OA
ATOM      2  C   UNL     1       2.257   6.634  19.586  0.00  0.00    +0.000 C 
ATOM      3  N   UNL     1       2.101   7.993  19.351  0.00  0.00    +0.000 N 
ATOM      4  H   UNL     1       2.282   8.321  18.403  0.00  0.00    +0.000 HD
ENDROOT
BRANCH   3   5
ATOM      5  C   UNL     1       1.341   8.822  20.209  0.00  0.00    +0.000 A 
ATOM      6  C   UNL     1       1.448   8.656  21.598  0.00  0.00    +0.000 A 
ATOM      7  C   UNL     1       0.736   9.481  22.473  0.00  0.00    +0.000 A 
ATOM      8  C   UNL     1      -0.106  10.472  21.957  0.00  0.00    +0.000 A 
ATOM      9  C   UNL     1      -0.218  10.662  20.575  0.00  0.00    +0.000 A 
ATOM     10  C   UNL     1       0.509   9.835  19.701  0.00  0.00    +0.000 A 
BRANCH   8  11
ATOM     11  N   UNL     1      -0.892  11.306  22.876  0.00  0.00    +0.000 N 
ATOM     12  O   UNL     1      -1.854  10.778  23.450  0.00  0.00    +0.000 OA
ATOM     13  O   UNL     1      -0.552  12.489  23.013  0.00  0.00    +0.000 OA
ENDBRANCH   8  11
BRANCH  10  14
ATOM     14  C   UNL     1       0.298  10.045  18.249  0.00  0.00    +0.000 C 
ATOM     15  O   UNL     1      -0.806  10.044  17.736  0.00  0.00    +0.000 OA
BRANCH  14  16
ATOM     16  O   UNL     1       1.444  10.216  17.555  0.00  0.00    +0.000 OA
ATOM     17  H   UNL     1       1.488  11.059  17.057  0.00  0.00    +0.000 HD
ENDBRANCH  14  16
ENDBRANCH  10  14
ENDBRANCH   3   5
BRANCH   2  18
ATOM     18  C   UNL     1       3.132   5.916  18.629  0.00  0.00    +0.000 A 
ATOM     19  C   UNL     1       2.708   4.687  18.112  0.00  0.00    +0.000 A 
ATOM     20  C   UNL     1       3.531   3.977  17.236  0.00  0.00    +0.000 A 
ATOM     21  C   UNL     1       4.786   4.483  16.875  0.00  0.00    +0.000 A 
ATOM     22  C   UNL     1       5.214   5.700  17.420  0.00  0.00    +0.000 A 
ATOM     23  C   UNL     1       4.389   6.422  18.285  0.00  0.00    +0.000 A 
BRANCH  21  24
ATOM     24  S   UNL     1       5.837   3.511  15.817  0.00  0.00    +0.000 S 
BRANCH  24  25
ATOM     25  C   UNL     1       5.883   4.519  14.326  0.00  0.00    +0.000 C 
ATOM     26  F   UNL     1       7.134   4.759  13.869  0.00  0.00    +0.000 F 
ATOM     27  F   UNL     1       5.201   3.916  13.321  0.00  0.00    +0.000 F 
ATOM     28  F   UNL     1       5.299   5.721  14.543  0.00  0.00    +0.000 F 
ENDBRANCH  24  25
ENDBRANCH  21  24
ENDBRANCH   2  18
TORSDOF 7
ENDMDL
MODEL 7
REMARK VINA RESULT:      -7.1      0.717      1.123
REMARK  Name = 
REMARK  7 active torsions:
REMARK  status: ('A' for Active; 'I' for Inactive)
REMARK    1  A    between atoms: C_2  and  C_16
REMARK    2  A    between atoms: N_3  and  C_4
REMARK    3  A    between atoms: C_7  and  N_8
REMARK    4  A    between atoms: C_12  and  C_13
REMARK    5  A    between atoms: C_13  and  O_15
REMARK    6  A    between atoms: C_19  and  S_20
REMARK    7  A    between atoms: S_20  and  C_21
REMARK                            x       y       z     vdW  Elec       q    Type
REMARK                         _______ _______ _______ _____ _____    ______ ____
ROOT
ATOM      1  O   UNL     1       2.168   8.925  17.367  0.00  0.00    +0.000 OA
ATOM      2  C   UNL     1       2.126   8.444  18.491  0.00  0.00    +0.000 C 
ATOM      3  N   UNL     1       2.716   7.241  18.853  0.00  0.00    +0.000 N 
ATOM      4  H   UNL     1       2.286   6.729  19.623  0.00  0.00    +0.000 HD
ENDROOT
BRANCH   3   5
ATOM      5  C   UNL     1       3.578   6.534  17.983  0.00  0.00    +0.000 A 
ATOM      6  C   UNL     1       4.719   7.173  17.475  0.00  0.00    +0.000 A 
ATOM      7  C   UNL     1       5.607   6.492  16.639  0.00  0.00    +0.000 A 
ATOM      8  C   UNL     1       5.347   5.162  16.291  0.00  0.00    +0.000 A 
ATOM      9  C   UNL     1       4.221   4.502  16.796  0.00  0.00    +0.000 A 
ATOM     10  C   UNL     1       3.336   5.190  17.644  0.00  0.00    +0.000 A 
BRANCH   8  11
ATOM     11  N   UNL     1       6.254   4.462  15.373  0.00  0.00    +0.000 N 
ATOM     12  O   UNL     1       5.748   3.812  14.449  0.00  0.00    +0.000 OA
ATOM     13  O   UNL     1       7.471   4.556  15.583  0.00  0.00    +0.000 OA
ENDBRANCH   8  11
BRANCH  10  14
ATOM     14  C   UNL     1       2.131   4.456  18.094  0.00  0.00    +0.000 C 
ATOM     15  O   UNL     1       1.292   4.030  17.322  0.00  0.00    +0.000 OA
BRANCH  14  16
ATOM     16  O   UNL     1       2.045   4.326  19.436  0.00  0.00    +0.000 OA
ATOM     17  H   UNL     1       1.341   3.711  19.734  0.00  0.00    +0.000 HD
ENDBRANCH  14  16
ENDBRANCH  10  14
ENDBRANCH   3   5
BRANCH   2  18
ATOM     18  C   UNL     1       1.298   9.090  19.536  0.00  0.00    +0.000 A 
ATOM     19  C   UNL     1       0.949  10.437  19.390  0.00  0.00    +0.000 A 
ATOM     20  C   UNL     1       0.199  11.076  20.379  0.00  0.00    +0.000 A 
ATOM     21  C   UNL     1      -0.205  10.378  21.525  0.00  0.00    +0.000 A 
ATOM     22  C   UNL     1       0.174   9.037  21.676  0.00  0.00    +0.000 A 
ATOM     23  C   UNL     1       0.912   8.390  20.683  0.00  0.00    +0.000 A 
BRANCH  21  24
ATOM     24  S   UNL     1      -1.094  11.247  22.797  0.00  0.00    +0.000 S 
BRANCH  24  25
ATOM     25  C   UNL     1      -2.144  12.339  21.826  0.00  0.00    +0.000 C 
ATOM     26  F   UNL     1      -2.437  11.861  20.594  0.00  0.00    +0.000 F 
ATOM     27  F   UNL     1      -3.323  12.556  22.459  0.00  0.00    +0.000 F 
ATOM     28  F   UNL     1      -1.552  13.545  21.655  0.00  0.00    +0.000 F 
ENDBRANCH  24  25
ENDBRANCH  21  24
ENDBRANCH   2  18
TORSDOF 7
ENDMDL
MODEL 8
REMARK VINA RESULT:      -7.0      1.224      1.502
REMARK  Name = 
REMARK  7 active torsions:
REMARK  status: ('A' for Active; 'I' for Inactive)
REMARK    1  A    between atoms: C_2  and  C_16
REMARK    2  A    between atoms: N_3  and  C_4
REMARK    3  A    between atoms: C_7  and  N_8
REMARK    4  A    between atoms: C_12  and  C_13
REMARK    5  A    between atoms: C_13  and  O_15
REMARK    6  A    between atoms: C_19  and  S_20
REMARK    7  A    between atoms: S_20  and  C_21
REMARK                            x       y       z     vdW  Elec       q    Type
REMARK                         _______ _______ _______ _____ _____    ______ ____
ROOT
ATOM      1  O   UNL     1       2.267   9.092  17.004  0.00  0.00    +0.000 OA
ATOM      2  C   UNL     1       1.942   8.704  18.119  0.00  0.00    +0.000 C 
ATOM      3  N   UNL     1       2.353   7.506  18.685  0.00  0.00    +0.000 N 
ATOM      4  H   UNL     1       1.728   7.079  19.367  0.00  0.00    +0.000 HD
ENDROOT
BRANCH   3   5
ATOM      5  C   UNL     1       3.340   6.690  18.083  0.00  0.00    +0.000 A 
ATOM      6  C   UNL     1       4.566   7.258  17.704  0.00  0.00    +0.000 A 
ATOM      7  C   UNL     1       5.573   6.473  17.138  0.00  0.00    +0.000 A 
ATOM      8  C   UNL     1       5.350   5.108  16.932  0.00  0.00    +0.000 A 
ATOM      9  C   UNL     1       4.140   4.518  17.313  0.00  0.00    +0.000 A 
ATOM     10  C   UNL     1       3.134   5.312  17.891  0.00  0.00    +0.000 A 
BRANCH   8  11
ATOM     11  N   UNL     1       6.390   4.292  16.291  0.00  0.00    +0.000 N 
ATOM     12  O   UNL     1       6.028   3.440  15.469  0.00  0.00    +0.000 OA
ATOM     13  O   UNL     1       7.567   4.499  16.618  0.00  0.00    +0.000 OA
ENDBRANCH   8  11
BRANCH  10  14
ATOM     14  C   UNL     1       1.853   4.642  18.215  0.00  0.00    +0.000 C 
ATOM     15  O   UNL     1       1.129   4.158  17.364  0.00  0.00    +0.000 OA
BRANCH  14  16
ATOM     16  O   UNL     1       1.561   4.640  19.533  0.00  0.00    +0.000 OA
ATOM     17  H   UNL     1       0.795   5.203  19.773  0.00  0.00    +0.000 HD
ENDBRANCH  14  16
ENDBRANCH  10  14
ENDBRANCH   3   5
BRANCH   2  18
ATOM     18  C   UNL     1       0.944   9.472  18.901  0.00  0.00    +0.000 A 
ATOM     19  C   UNL     1      -0.173  10.000  18.245  0.00  0.00    +0.000 A 
ATOM     20  C   UNL     1      -1.107  10.756  18.956  0.00  0.00    +0.000 A 
ATOM     21  C   UNL     1      -0.931  10.997  20.324  0.00  0.00    +0.000 A 
ATOM     22  C   UNL     1       0.205  10.488  20.966  0.00  0.00    +0.000 A 
ATOM     23  C   UNL     1       1.136   9.720  20.264  0.00  0.00    +0.000 A 
BRANCH  21  24
ATOM     24  S   UNL     1      -2.104  12.029  21.178  0.00  0.00    +0.000 S 
BRANCH  24  25
ATOM     25  C   UNL     1      -1.744  11.642  22.898  0.00  0.00    +0.000 C 
ATOM     26  F   UNL     1      -0.734  12.375  23.422  0.00  0.00    +0.000 F 
ATOM     27  F   UNL     1      -2.835  11.855  23.674  0.00  0.00    +0.000 F 
ATOM     28  F   UNL     1      -1.404  10.338  23.034  0.00  0.00    +0.000 F 
ENDBRANCH  24  25
ENDBRANCH  21  24
ENDBRANCH   2  18
TORSDOF 7
ENDMDL
MODEL 9
REMARK VINA RESULT:      -7.0      5.644      9.140
REMARK  Name = 
REMARK  7 active torsions:
REMARK  status: ('A' for Active; 'I' for Inactive)
REMARK    1  A    between atoms: C_2  and  C_16
REMARK    2  A    between atoms: N_3  and  C_4
REMARK    3  A    between atoms: C_7  and  N_8
REMARK    4  A    between atoms: C_12  and  C_13
REMARK    5  A    between atoms: C_13  and  O_15
REMARK    6  A    between atoms: C_19  and  S_20
REMARK    7  A    between atoms: S_20  and  C_21
REMARK                            x       y       z     vdW  Elec       q    Type
REMARK                         _______ _______ _______ _____ _____    ______ ____
ROOT
ATOM      1  O   UNL     1       0.935   6.932  21.203  0.00  0.00    +0.000 OA
ATOM      2  C   UNL     1       1.573   7.555  20.364  0.00  0.00    +0.000 C 
ATOM      3  N   UNL     1       1.366   8.891  20.053  0.00  0.00    +0.000 N 
ATOM      4  H   UNL     1       1.604   9.186  19.107  0.00  0.00    +0.000 HD
ENDROOT
BRANCH   3   5
ATOM      5  C   UNL     1       0.501   9.714  20.811  0.00  0.00    +0.000 A 
ATOM      6  C   UNL     1       0.416   9.531  22.199  0.00  0.00    +0.000 A 
ATOM      7  C   UNL     1      -0.404  10.349  22.980  0.00  0.00    +0.000 A 
ATOM      8  C   UNL     1      -1.162  11.352  22.367  0.00  0.00    +0.000 A 
ATOM      9  C   UNL     1      -1.084  11.560  20.986  0.00  0.00    +0.000 A 
ATOM     10  C   UNL     1      -0.250  10.740  20.207  0.00  0.00    +0.000 A 
BRANCH   8  11
ATOM     11  N   UNL     1      -2.063  12.179  23.181  0.00  0.00    +0.000 N 
ATOM     12  O   UNL     1      -3.128  11.672  23.557  0.00  0.00    +0.000 OA
ATOM     13  O   UNL     1      -1.707  13.338  23.435  0.00  0.00    +0.000 OA
ENDBRANCH   8  11
BRANCH  10  14
ATOM     14  C   UNL     1      -0.259  10.969  18.743  0.00  0.00    +0.000 C 
ATOM     15  O   UNL     1      -1.282  10.967  18.082  0.00  0.00    +0.000 OA
BRANCH  14  16
ATOM     16  O   UNL     1       0.969  11.159  18.217  0.00  0.00    +0.000 OA
ATOM     17  H   UNL     1       1.312  10.390  17.714  0.00  0.00    +0.000 HD
ENDBRANCH  14  16
ENDBRANCH  10  14
ENDBRANCH   3   5
BRANCH   2  18
ATOM     18  C   UNL     1       2.554   6.843  19.511  0.00  0.00    +0.000 A 
ATOM     19  C   UNL     1       3.004   7.455  18.337  0.00  0.00    +0.000 A 
ATOM     20  C   UNL     1       3.902   6.788  17.501  0.00  0.00    +0.000 A 
ATOM     21  C   UNL     1       4.354   5.503  17.827  0.00  0.00    +0.000 A 
ATOM     22  C   UNL     1       3.876   4.887  18.991  0.00  0.00    +0.000 A 
ATOM     23  C   UNL     1       2.988   5.555  19.838  0.00  0.00    +0.000 A 
BRANCH  21  24
ATOM     24  S   UNL     1       5.438   4.657  16.699  0.00  0.00    +0.000 S 
BRANCH  24  25
ATOM     25  C   UNL     1       7.056   5.192  17.278  0.00  0.00    +0.000 C 
ATOM     26  F   UNL     1       8.002   4.226  17.223  0.00  0.00    +0.000 F 
ATOM     27  F   UNL     1       7.508   6.234  16.537  0.00  0.00    +0.000 F 
ATOM     28  F   UNL     1       6.988   5.613  18.563  0.00  0.00    +0.000 F 
ENDBRANCH  24  25
ENDBRANCH  21  24
ENDBRANCH   2  18
TORSDOF 7
ENDMDL
