MODEL 1
REMARK VINA RESULT:      -8.5      0.000      0.000
REMARK  Name = 
REMARK  7 active torsions:
REMARK  status: ('A' for Active; 'I' for Inactive)
REMARK    1  A    between atoms: C_1  and  C_2
REMARK    2  A    between atoms: C_7  and  C_8
REMARK    3  A    between atoms: C_8  and  O_10
REMARK    4  A    between atoms: O_10  and  C_11
REMARK    5  A    between atoms: C_11  and  C_12
REMARK    6  A    between atoms: C_12  and  C_13
REMARK    7  A    between atoms: C_14  and  C_15
REMARK                            x       y       z     vdW  Elec       q    Type
REMARK                         _______ _______ _______ _____ _____    ______ ____
ROOT
ATOM      1  C   UNL     1       3.162   6.639  18.880  0.00  0.00    +0.000 A 
ATOM      2  C   UNL     1       3.919   5.522  18.684  0.00  0.00    +0.000 A 
ATOM      3  C   UNL     1       3.724   4.338  19.585  0.00  0.00    +0.000 A 
ATOM      4  C   UNL     1       4.452   3.145  19.433  0.00  0.00    +0.000 A 
ATOM      5  C   UNL     1       4.211   2.055  20.276  0.00  0.00    +0.000 A 
ATOM      6 CL   UNL     1       5.098   0.597  20.060  0.00  0.00    +0.000 Cl
ATOM      7  C   UNL     1       3.255   2.132  21.282  0.00  0.00    +0.000 A 
ATOM      8  C   UNL     1       2.528   3.309  21.448  0.00  0.00    +0.000 A 
ATOM      9  C   UNL     1       2.775   4.392  20.605  0.00  0.00    +0.000 A 
ATOM     10  N   UNL     1       2.053   5.556  20.796  0.00  0.00    +0.000 N 
ATOM     11  C   UNL     1       2.220   6.682  20.062  0.00  0.00    +0.000 A 
ATOM     12  O   UNL     1       1.594   7.679  20.404  0.00  0.00    +0.000 OA
ATOM     13  H   UNL     1       1.389   5.634  21.556  0.00  0.00    +0.000 HD
ENDROOT
BRANCH   2  14
ATOM     14  C   UNL     1       4.928   5.470  17.578  0.00  0.00    +0.000 A 
ATOM     15  C   UNL     1       4.486   5.182  16.275  0.00  0.00    +0.000 A 
ATOM     16  C   UNL     1       5.401   4.932  15.246  0.00  0.00    +0.000 A 
ATOM     17  C   UNL     1       6.772   4.982  15.502  0.00  0.00    +0.000 A 
ATOM     18  C   UNL     1       7.228   5.287  16.785  0.00  0.00    +0.000 A 
ATOM     19  C   UNL     1       6.314   5.524  17.820  0.00  0.00    +0.000 A 
ATOM     20 CL   UNL     1       6.955   5.811  19.400  0.00  0.00    +0.000 Cl
ENDBRANCH   2  14
BRANCH   1  21
ATOM     21  C   UNL     1       3.195   7.865  17.960  0.00  0.00    +0.000 C 
BRANCH  21  22
ATOM     22  C   UNL     1       1.854   8.532  17.604  0.00  0.00    +0.000 C 
BRANCH  22  23
ATOM     23  O   UNL     1       1.950   9.961  17.477  0.00  0.00    +0.000 OA
BRANCH  23  24
ATOM     24  C   UNL     1       1.248  10.638  18.424  0.00  0.00    +0.000 C 
ATOM     25  O   UNL     1       1.618  11.683  18.943  0.00  0.00    +0.000 OA
BRANCH  24  32
ATOM     26  C   UNL     1      -3.564  12.728  21.170  0.00  0.00    +0.000 C 
ATOM     27  C   UNL     1      -3.313  12.340  19.734  0.00  0.00    +0.000 C 
ATOM     28  O   UNL     1      -4.226  12.403  18.910  0.00  0.00    +0.000 OA
ATOM     29  N   UNL     1      -2.025  11.953  19.401  0.00  0.00    +0.000 N 
ATOM     30  C   UNL     1      -1.675  11.737  17.999  0.00  0.00    +0.000 C 
ATOM     31  C   UNL     1      -1.183  10.309  17.778  0.00  0.00    +0.000 C 
ATOM     32  C   UNL     1      -0.054   9.929  18.750  0.00  0.00    +0.000 C 
ATOM     33  C   UNL     1      -0.464  10.241  20.199  0.00  0.00    +0.000 C 
ATOM     34  C   UNL     1      -0.958  11.682  20.360  0.00  0.00    +0.000 C 
ENDBRANCH  24  32
ENDBRANCH  23  24
ENDBRANCH  22  23
ENDBRANCH  21  22
ENDBRANCH   1  21
TORSDOF 6
ENDMDL
MODEL 2
REMARK VINA RESULT:      -8.5      1.311      1.687
REMARK  Name = 
REMARK  7 active torsions:
REMARK  status: ('A' for Active; 'I' for Inactive)
REMARK    1  A    between atoms: C_1  and  C_2
REMARK    2  A    between atoms: C_7  and  C_8
REMARK    3  A    between atoms: C_8  and  O_10
REMARK    4  A    between atoms: O_10  and  C_11
REMARK    5  A    between atoms: C_11  and  C_12
REMARK    6  A    between atoms: C_12  and  C_13
REMARK    7  A    between atoms: C_14  and  C_15
REMARK                            x       y       z     vdW  Elec       q    Type
REMARK                         _______ _______ _______ _____ _____    ______ ____
ROOT
ATOM      1  C   UNL     1       3.202   6.750  18.832  0.00  0.00    +0.000 A 
ATOM      2  C   UNL     1       3.939   5.614  18.668  0.00  0.00    +0.000 A 
ATOM      3  C   UNL     1       3.698   4.447  19.579  0.00  0.00    +0.000 A 
ATOM      4  C   UNL     1       4.403   3.237  19.460  0.00  0.00    +0.000 A 
ATOM      5  C   UNL     1       4.119   2.164  20.310  0.00  0.00    +0.000 A 
ATOM      6 CL   UNL     1       4.979   0.684  20.133  0.00  0.00    +0.000 Cl
ATOM      7  C   UNL     1       3.142   2.275  21.293  0.00  0.00    +0.000 A 
ATOM      8  C   UNL     1       2.438   3.469  21.427  0.00  0.00    +0.000 A 
ATOM      9  C   UNL     1       2.727   4.535  20.576  0.00  0.00    +0.000 A 
ATOM     10  N   UNL     1       2.026   5.717  20.736  0.00  0.00    +0.000 N 
ATOM     11  C   UNL     1       2.235   6.829  19.991  0.00  0.00    +0.000 A 
ATOM     12  O   UNL     1       1.623   7.844  20.306  0.00  0.00    +0.000 OA
ATOM     13  H   UNL     1       1.347   5.820  21.479  0.00  0.00    +0.000 HD
ENDROOT
BRANCH   2  14
ATOM     14  C   UNL     1       4.972   5.526  17.586  0.00  0.00    +0.000 A 
ATOM     15  C   UNL     1       4.550   5.256  16.273  0.00  0.00    +0.000 A 
ATOM     16  C   UNL     1       5.480   4.973  15.265  0.00  0.00    +0.000 A 
ATOM     17  C   UNL     1       6.845   4.972  15.554  0.00  0.00    +0.000 A 
ATOM     18  C   UNL     1       7.281   5.259  16.848  0.00  0.00    +0.000 A 
ATOM     19  C   UNL     1       6.353   5.529  17.861  0.00  0.00    +0.000 A 
ATOM     20 CL   UNL     1       6.965   5.791  19.457  0.00  0.00    +0.000 Cl
ENDBRANCH   2  14
BRANCH   1  21
ATOM     21  C   UNL     1       3.283   7.963  17.898  0.00  0.00    +0.000 C 
BRANCH  21  22
ATOM     22  C   UNL     1       1.970   8.686  17.544  0.00  0.00    +0.000 C 
BRANCH  22  23
ATOM     23  O   UNL     1       1.927  10.042  18.020  0.00  0.00    +0.000 OA
BRANCH  23  24
ATOM     24  C   UNL     1       0.666  10.497  18.246  0.00  0.00    +0.000 C 
ATOM     25  O   UNL     1      -0.352   9.903  17.916  0.00  0.00    +0.000 OA
BRANCH  24  32
ATOM     26  C   UNL     1      -3.179  12.704  22.172  0.00  0.00    +0.000 C 
ATOM     27  C   UNL     1      -1.760  12.213  22.319  0.00  0.00    +0.000 C 
ATOM     28  O   UNL     1      -1.198  12.273  23.413  0.00  0.00    +0.000 OA
ATOM     29  N   UNL     1      -1.158  11.677  21.192  0.00  0.00    +0.000 N 
ATOM     30  C   UNL     1       0.144  11.025  21.309  0.00  0.00    +0.000 C 
ATOM     31  C   UNL     1       1.175  11.710  20.416  0.00  0.00    +0.000 C 
ATOM     32  C   UNL     1       0.689  11.836  18.963  0.00  0.00    +0.000 C 
ATOM     33  C   UNL     1      -0.712  12.470  18.917  0.00  0.00    +0.000 C 
ATOM     34  C   UNL     1      -1.701  11.750  19.839  0.00  0.00    +0.000 C 
ENDBRANCH  24  32
ENDBRANCH  23  24
ENDBRANCH  22  23
ENDBRANCH  21  22
ENDBRANCH   1  21
TORSDOF 6
ENDMDL
MODEL 3
REMARK VINA RESULT:      -8.3      1.747      2.105
REMARK  Name = 
REMARK  7 active torsions:
REMARK  status: ('A' for Active; 'I' for Inactive)
REMARK    1  A    between atoms: C_1  and  C_2
REMARK    2  A    between atoms: C_7  and  C_8
REMARK    3  A    between atoms: C_8  and  O_10
REMARK    4  A    between atoms: O_10  and  C_11
REMARK    5  A    between atoms: C_11  and  C_12
REMARK    6  A    between atoms: C_12  and  C_13
REMARK    7  A    between atoms: C_14  and  C_15
REMARK                            x       y       z     vdW  Elec       q    Type
REMARK                         _______ _______ _______ _____ _____    ______ ____
ROOT
ATOM      1  C   UNL     1       3.171   6.724  18.908  0.00  0.00    +0.000 A 
ATOM      2  C   UNL     1       3.920   5.599  18.721  0.00  0.00    +0.000 A 
ATOM      3  C   UNL     1       3.691   4.412  19.609  0.00  0.00    +0.000 A 
ATOM      4  C   UNL     1       4.409   3.212  19.466  0.00  0.00    +0.000 A 
ATOM      5  C   UNL     1       4.137   2.120  20.296  0.00  0.00    +0.000 A 
ATOM      6 CL   UNL     1       5.012   0.653  20.090  0.00  0.00    +0.000 Cl
ATOM      7  C   UNL     1       3.159   2.201  21.281  0.00  0.00    +0.000 A 
ATOM      8  C   UNL     1       2.442   3.385  21.438  0.00  0.00    +0.000 A 
ATOM      9  C   UNL     1       2.720   4.470  20.608  0.00  0.00    +0.000 A 
ATOM     10  N   UNL     1       2.007   5.642  20.791  0.00  0.00    +0.000 N 
ATOM     11  C   UNL     1       2.203   6.770  20.068  0.00  0.00    +0.000 A 
ATOM     12  O   UNL     1       1.581   7.772  20.402  0.00  0.00    +0.000 OA
ATOM     13  H   UNL     1       1.326   5.723  21.536  0.00  0.00    +0.000 HD
ENDROOT
BRANCH   2  14
ATOM     14  C   UNL     1       4.953   5.543  17.638  0.00  0.00    +0.000 A 
ATOM     15  C   UNL     1       4.531   5.320  16.316  0.00  0.00    +0.000 A 
ATOM     16  C   UNL     1       5.460   5.067  15.300  0.00  0.00    +0.000 A 
ATOM     17  C   UNL     1       6.825   5.049  15.589  0.00  0.00    +0.000 A 
ATOM     18  C   UNL     1       7.262   5.289  16.892  0.00  0.00    +0.000 A 
ATOM     19  C   UNL     1       6.334   5.530  17.914  0.00  0.00    +0.000 A 
ATOM     20 CL   UNL     1       6.946   5.734  19.518  0.00  0.00    +0.000 Cl
ENDBRANCH   2  14
BRANCH   1  21
ATOM     21  C   UNL     1       3.238   7.955  17.997  0.00  0.00    +0.000 C 
BRANCH  21  22
ATOM     22  C   UNL     1       1.912   8.631  17.602  0.00  0.00    +0.000 C 
BRANCH  22  23
ATOM     23  O   UNL     1       1.682   9.870  18.294  0.00  0.00    +0.000 OA
BRANCH  23  24
ATOM     24  C   UNL     1       0.366  10.194  18.401  0.00  0.00    +0.000 C 
ATOM     25  O   UNL     1      -0.511   9.780  17.653  0.00  0.00    +0.000 OA
BRANCH  24  32
ATOM     26  C   UNL     1       1.908  15.880  19.006  0.00  0.00    +0.000 C 
ATOM     27  C   UNL     1       0.567  15.214  18.822  0.00  0.00    +0.000 C 
ATOM     28  O   UNL     1      -0.461  15.892  18.818  0.00  0.00    +0.000 OA
ATOM     29  N   UNL     1       0.564  13.842  18.631  0.00  0.00    +0.000 N 
ATOM     30  C   UNL     1      -0.680  13.165  18.273  0.00  0.00    +0.000 C 
ATOM     31  C   UNL     1      -1.036  12.103  19.310  0.00  0.00    +0.000 C 
ATOM     32  C   UNL     1       0.128  11.134  19.570  0.00  0.00    +0.000 C 
ATOM     33  C   UNL     1       1.418  11.913  19.878  0.00  0.00    +0.000 C 
ATOM     34  C   UNL     1       1.721  12.970  18.811  0.00  0.00    +0.000 C 
ENDBRANCH  24  32
ENDBRANCH  23  24
ENDBRANCH  22  23
ENDBRANCH  21  22
ENDBRANCH   1  21
TORSDOF 6
ENDMDL
MODEL 4
REMARK VINA RESULT:      -8.2      2.595      4.642
REMARK  Name = 
REMARK  7 active torsions:
REMARK  status: ('A' for Active; 'I' for Inactive)
REMARK    1  A    between atoms: C_1  and  C_2
REMARK    2  A    between atoms: C_7  and  C_8
REMARK    3  A    between atoms: C_8  and  O_10
REMARK    4  A    between atoms: O_10  and  C_11
REMARK    5  A    between atoms: C_11  and  C_12
REMARK    6  A    between atoms: C_12  and  C_13
REMARK    7  A    between atoms: C_14  and  C_15
REMARK                            x       y       z     vdW  Elec       q    Type
REMARK                         _______ _______ _______ _____ _____    ______ ____
ROOT
ATOM      1  C   UNL     1       1.935   7.399  19.272  0.00  0.00    +0.000 A 
ATOM      2  C   UNL     1       2.460   6.175  18.980  0.00  0.00    +0.000 A 
ATOM      3  C   UNL     1       3.493   6.061  17.897  0.00  0.00    +0.000 A 
ATOM      4  C   UNL     1       4.094   4.838  17.552  0.00  0.00    +0.000 A 
ATOM      5  C   UNL     1       5.078   4.787  16.559  0.00  0.00    +0.000 A 
ATOM      6 CL   UNL     1       5.817   3.284  16.167  0.00  0.00    +0.000 Cl
ATOM      7  C   UNL     1       5.473   5.940  15.890  0.00  0.00    +0.000 A 
ATOM      8  C   UNL     1       4.883   7.158  16.217  0.00  0.00    +0.000 A 
ATOM      9  C   UNL     1       3.902   7.201  17.207  0.00  0.00    +0.000 A 
ATOM     10  N   UNL     1       3.318   8.419  17.506  0.00  0.00    +0.000 N 
ATOM     11  C   UNL     1       2.338   8.585  18.427  0.00  0.00    +0.000 A 
ATOM     12  O   UNL     1       1.831   9.697  18.518  0.00  0.00    +0.000 OA
ATOM     13  H   UNL     1       3.568   9.254  16.991  0.00  0.00    +0.000 HD
ENDROOT
BRANCH   2  14
ATOM     14  C   UNL     1       2.022   4.957  19.735  0.00  0.00    +0.000 A 
ATOM     15  C   UNL     1       2.470   4.787  21.056  0.00  0.00    +0.000 A 
ATOM     16  C   UNL     1       2.251   3.583  21.737  0.00  0.00    +0.000 A 
ATOM     17  C   UNL     1       1.567   2.540  21.111  0.00  0.00    +0.000 A 
ATOM     18  C   UNL     1       1.098   2.701  19.808  0.00  0.00    +0.000 A 
ATOM     19  C   UNL     1       1.327   3.899  19.119  0.00  0.00    +0.000 A 
ATOM     20 CL   UNL     1       0.790   3.992  17.478  0.00  0.00    +0.000 Cl
ENDBRANCH   2  14
BRANCH   1  21
ATOM     21  C   UNL     1       0.958   7.655  20.425  0.00  0.00    +0.000 C 
BRANCH  21  22
ATOM     22  C   UNL     1       1.494   8.379  21.674  0.00  0.00    +0.000 C 
BRANCH  22  23
ATOM     23  O   UNL     1       1.203   9.787  21.679  0.00  0.00    +0.000 OA
BRANCH  23  24
ATOM     24  C   UNL     1       0.165  10.123  22.489  0.00  0.00    +0.000 C 
ATOM     25  O   UNL     1       0.137   9.921  23.697  0.00  0.00    +0.000 OA
BRANCH  24  32
ATOM     26  C   UNL     1      -1.650  15.760  22.582  0.00  0.00    +0.000 C 
ATOM     27  C   UNL     1      -0.923  14.953  21.535  0.00  0.00    +0.000 C 
ATOM     28  O   UNL     1      -0.641  15.463  20.451  0.00  0.00    +0.000 OA
ATOM     29  N   UNL     1      -0.574  13.654  21.869  0.00  0.00    +0.000 N 
ATOM     30  C   UNL     1       0.282  12.883  20.971  0.00  0.00    +0.000 C 
ATOM     31  C   UNL     1      -0.420  11.607  20.516  0.00  0.00    +0.000 C 
ATOM     32  C   UNL     1      -0.952  10.785  21.701  0.00  0.00    +0.000 C 
ATOM     33  C   UNL     1      -1.791  11.671  22.638  0.00  0.00    +0.000 C 
ATOM     34  C   UNL     1      -1.040  12.940  23.054  0.00  0.00    +0.000 C 
ENDBRANCH  24  32
ENDBRANCH  23  24
ENDBRANCH  22  23
ENDBRANCH  21  22
ENDBRANCH   1  21
TORSDOF 6
ENDMDL
MODEL 5
REMARK VINA RESULT:      -8.2      4.906     10.310
REMARK  Name = 
REMARK  7 active torsions:
REMARK  status: ('A' for Active; 'I' for Inactive)
REMARK    1  A    between atoms: C_1  and  C_2
REMARK    2  A    between atoms: C_7  and  C_8
REMARK    3  A    between atoms: C_8  and  O_10
REMARK    4  A    between atoms: O_10  and  C_11
REMARK    5  A    between atoms: C_11  and  C_12
REMARK    6  A    between atoms: C_12  and  C_13
REMARK    7  A    between atoms: C_14  and  C_15
REMARK                            x       y       z     vdW  Elec       q    Type
REMARK                         _______ _______ _______ _____ _____    ______ ____
ROOT
ATOM      1  C   UNL     1      -1.575  13.413  19.968  0.00  0.00    +0.000 A 
ATOM      2  C   UNL     1      -2.824  13.206  20.474  0.00  0.00    +0.000 A 
ATOM      3  C   UNL     1      -3.823  12.435  19.664  0.00  0.00    +0.000 A 
ATOM      4  C   UNL     1      -5.123  12.164  20.126  0.00  0.00    +0.000 A 
ATOM      5  C   UNL     1      -6.009  11.411  19.349  0.00  0.00    +0.000 A 
ATOM      6 CL   UNL     1      -7.588  11.072  19.942  0.00  0.00    +0.000 Cl
ATOM      7  C   UNL     1      -5.626  10.924  18.104  0.00  0.00    +0.000 A 
ATOM      8  C   UNL     1      -4.343  11.189  17.630  0.00  0.00    +0.000 A 
ATOM      9  C   UNL     1      -3.466  11.941  18.410  0.00  0.00    +0.000 A 
ATOM     10  N   UNL     1      -2.202  12.204  17.914  0.00  0.00    +0.000 N 
ATOM     11  C   UNL     1      -1.271  12.944  18.564  0.00  0.00    +0.000 A 
ATOM     12  O   UNL     1      -0.229  13.194  17.967  0.00  0.00    +0.000 OA
ATOM     13  H   UNL     1      -1.933  11.893  16.989  0.00  0.00    +0.000 HD
ENDROOT
BRANCH   2  14
ATOM     14  C   UNL     1      -3.194  13.731  21.828  0.00  0.00    +0.000 A 
ATOM     15  C   UNL     1      -3.146  12.855  22.926  0.00  0.00    +0.000 A 
ATOM     16  C   UNL     1      -3.663  13.237  24.170  0.00  0.00    +0.000 A 
ATOM     17  C   UNL     1      -4.220  14.505  24.336  0.00  0.00    +0.000 A 
ATOM     18  C   UNL     1      -4.257  15.394  23.262  0.00  0.00    +0.000 A 
ATOM     19  C   UNL     1      -3.753  15.010  22.012  0.00  0.00    +0.000 A 
ATOM     20 CL   UNL     1      -3.911  16.134  20.707  0.00  0.00    +0.000 Cl
ENDBRANCH   2  14
BRANCH   1  21
ATOM     21  C   UNL     1      -0.439  14.089  20.746  0.00  0.00    +0.000 C 
BRANCH  21  22
ATOM     22  C   UNL     1       0.559  13.184  21.492  0.00  0.00    +0.000 C 
BRANCH  22  23
ATOM     23  O   UNL     1       0.616  11.849  20.961  0.00  0.00    +0.000 OA
BRANCH  23  24
ATOM     24  C   UNL     1      -0.011  10.929  21.741  0.00  0.00    +0.000 C 
ATOM     25  O   UNL     1      -0.132  11.020  22.955  0.00  0.00    +0.000 OA
BRANCH  24  32
ATOM     26  C   UNL     1       2.902   7.329  18.048  0.00  0.00    +0.000 C 
ATOM     27  C   UNL     1       2.274   7.092  19.399  0.00  0.00    +0.000 C 
ATOM     28  O   UNL     1       2.289   5.966  19.896  0.00  0.00    +0.000 OA
ATOM     29  N   UNL     1       1.727   8.191  20.043  0.00  0.00    +0.000 N 
ATOM     30  C   UNL     1       1.265   8.064  21.422  0.00  0.00    +0.000 C 
ATOM     31  C   UNL     1      -0.219   8.409  21.530  0.00  0.00    +0.000 C 
ATOM     32  C   UNL     1      -0.541   9.776  20.906  0.00  0.00    +0.000 C 
ATOM     33  C   UNL     1       0.028   9.865  19.480  0.00  0.00    +0.000 C 
ATOM     34  C   UNL     1       1.515   9.499  19.431  0.00  0.00    +0.000 C 
ENDBRANCH  24  32
ENDBRANCH  23  24
ENDBRANCH  22  23
ENDBRANCH  21  22
ENDBRANCH   1  21
TORSDOF 6
ENDMDL
MODEL 6
REMARK VINA RESULT:      -8.1      1.588      2.169
REMARK  Name = 
REMARK  7 active torsions:
REMARK  status: ('A' for Active; 'I' for Inactive)
REMARK    1  A    between atoms: C_1  and  C_2
REMARK    2  A    between atoms: C_7  and  C_8
REMARK    3  A    between atoms: C_8  and  O_10
REMARK    4  A    between atoms: O_10  and  C_11
REMARK    5  A    between atoms: C_11  and  C_12
REMARK    6  A    between atoms: C_12  and  C_13
REMARK    7  A    between atoms: C_14  and  C_15
REMARK                            x       y       z     vdW  Elec       q    Type
REMARK                         _______ _______ _______ _____ _____    ______ ____
ROOT
ATOM      1  C   UNL     1       3.169   6.802  18.887  0.00  0.00    +0.000 A 
ATOM      2  C   UNL     1       3.911   5.673  18.706  0.00  0.00    +0.000 A 
ATOM      3  C   UNL     1       3.666   4.486  19.590  0.00  0.00    +0.000 A 
ATOM      4  C   UNL     1       4.377   3.282  19.451  0.00  0.00    +0.000 A 
ATOM      5  C   UNL     1       4.090   2.189  20.277  0.00  0.00    +0.000 A 
ATOM      6 CL   UNL     1       4.957   0.717  20.076  0.00  0.00    +0.000 Cl
ATOM      7  C   UNL     1       3.104   2.276  21.253  0.00  0.00    +0.000 A 
ATOM      8  C   UNL     1       2.394   3.465  21.406  0.00  0.00    +0.000 A 
ATOM      9  C   UNL     1       2.687   4.550  20.580  0.00  0.00    +0.000 A 
ATOM     10  N   UNL     1       1.981   5.726  20.759  0.00  0.00    +0.000 N 
ATOM     11  C   UNL     1       2.192   6.854  20.039  0.00  0.00    +0.000 A 
ATOM     12  O   UNL     1       1.573   7.859  20.370  0.00  0.00    +0.000 OA
ATOM     13  H   UNL     1       1.295   5.810  21.498  0.00  0.00    +0.000 HD
ENDROOT
BRANCH   2  14
ATOM     14  C   UNL     1       4.953   5.611  17.631  0.00  0.00    +0.000 A 
ATOM     15  C   UNL     1       4.540   5.393  16.305  0.00  0.00    +0.000 A 
ATOM     16  C   UNL     1       5.477   5.135  15.296  0.00  0.00    +0.000 A 
ATOM     17  C   UNL     1       6.839   5.107  15.597  0.00  0.00    +0.000 A 
ATOM     18  C   UNL     1       7.266   5.342  16.904  0.00  0.00    +0.000 A 
ATOM     19  C   UNL     1       6.331   5.588  17.919  0.00  0.00    +0.000 A 
ATOM     20 CL   UNL     1       6.931   5.785  19.528  0.00  0.00    +0.000 Cl
ENDBRANCH   2  14
BRANCH   1  21
ATOM     21  C   UNL     1       3.252   8.035  17.979  0.00  0.00    +0.000 C 
BRANCH  21  22
ATOM     22  C   UNL     1       1.945   8.785  17.663  0.00  0.00    +0.000 C 
BRANCH  22  23
ATOM     23  O   UNL     1       1.961  10.155  18.099  0.00  0.00    +0.000 OA
BRANCH  23  24
ATOM     24  C   UNL     1       0.728  10.645  18.393  0.00  0.00    +0.000 C 
ATOM     25  O   UNL     1      -0.244   9.952  18.664  0.00  0.00    +0.000 OA
BRANCH  24  32
ATOM     26  C   UNL     1      -0.865  14.513  22.585  0.00  0.00    +0.000 C 
ATOM     27  C   UNL     1       0.479  14.161  21.998  0.00  0.00    +0.000 C 
ATOM     28  O   UNL     1       1.489  14.758  22.371  0.00  0.00    +0.000 OA
ATOM     29  N   UNL     1       0.512  13.135  21.067  0.00  0.00    +0.000 N 
ATOM     30  C   UNL     1       1.799  12.629  20.596  0.00  0.00    +0.000 C 
ATOM     31  C   UNL     1       1.917  12.778  19.081  0.00  0.00    +0.000 C 
ATOM     32  C   UNL     1       0.716  12.163  18.344  0.00  0.00    +0.000 C 
ATOM     33  C   UNL     1      -0.604  12.689  18.932  0.00  0.00    +0.000 C 
ATOM     34  C   UNL     1      -0.662  12.523  20.454  0.00  0.00    +0.000 C 
ENDBRANCH  24  32
ENDBRANCH  23  24
ENDBRANCH  22  23
ENDBRANCH  21  22
ENDBRANCH   1  21
TORSDOF 6
ENDMDL
MODEL 7
REMARK VINA RESULT:      -8.1      3.916      9.778
REMARK  Name = 
REMARK  7 active torsions:
REMARK  status: ('A' for Active; 'I' for Inactive)
REMARK    1  A    between atoms: C_1  and  C_2
REMARK    2  A    between atoms: C_7  and  C_8
REMARK    3  A    between atoms: C_8  and  O_10
REMARK    4  A    between atoms: O_10  and  C_11
REMARK    5  A    between atoms: C_11  and  C_12
REMARK    6  A    between atoms: C_12  and  C_13
REMARK    7  A    between atoms: C_14  and  C_15
REMARK                            x       y       z     vdW  Elec       q    Type
REMARK                         _______ _______ _______ _____ _____    ______ ____
ROOT
ATOM      1  C   UNL     1      -0.273  10.459  19.268  0.00  0.00    +0.000 A 
ATOM      2  C   UNL     1      -1.278  11.275  19.695  0.00  0.00    +0.000 A 
ATOM      3  C   UNL     1      -2.507  11.427  18.847  0.00  0.00    +0.000 A 
ATOM      4  C   UNL     1      -3.592  12.234  19.228  0.00  0.00    +0.000 A 
ATOM      5  C   UNL     1      -4.732  12.318  18.422  0.00  0.00    +0.000 A 
ATOM      6 CL   UNL     1      -6.059  13.295  18.917  0.00  0.00    +0.000 Cl
ATOM      7  C   UNL     1      -4.810  11.613  17.226  0.00  0.00    +0.000 A 
ATOM      8  C   UNL     1      -3.740  10.812  16.832  0.00  0.00    +0.000 A 
ATOM      9  C   UNL     1      -2.607  10.735  17.641  0.00  0.00    +0.000 A 
ATOM     10  N   UNL     1      -1.550   9.946  17.224  0.00  0.00    +0.000 N 
ATOM     11  C   UNL     1      -0.388   9.811  17.907  0.00  0.00    +0.000 A 
ATOM     12  O   UNL     1       0.510   9.169  17.374  0.00  0.00    +0.000 OA
ATOM     13  H   UNL     1      -1.581   9.467  16.332  0.00  0.00    +0.000 HD
ENDROOT
BRANCH   2  14
ATOM     14  C   UNL     1      -1.166  12.005  20.998  0.00  0.00    +0.000 A 
ATOM     15  C   UNL     1      -1.721  11.420  22.148  0.00  0.00    +0.000 A 
ATOM     16  C   UNL     1      -1.815  12.140  23.345  0.00  0.00    +0.000 A 
ATOM     17  C   UNL     1      -1.340  13.450  23.412  0.00  0.00    +0.000 A 
ATOM     18  C   UNL     1      -0.766  14.038  22.285  0.00  0.00    +0.000 A 
ATOM     19  C   UNL     1      -0.683  13.326  21.082  0.00  0.00    +0.000 A 
ATOM     20 CL   UNL     1      -0.039  14.151  19.706  0.00  0.00    +0.000 Cl
ENDBRANCH   2  14
BRANCH   1  21
ATOM     21  C   UNL     1       0.978  10.140  20.095  0.00  0.00    +0.000 C 
BRANCH  21  22
ATOM     22  C   UNL     1       1.170   8.691  20.580  0.00  0.00    +0.000 C 
BRANCH  22  23
ATOM     23  O   UNL     1       2.347   8.067  20.039  0.00  0.00    +0.000 OA
BRANCH  23  24
ATOM     24  C   UNL     1       2.175   6.751  19.742  0.00  0.00    +0.000 C 
ATOM     25  O   UNL     1       2.019   5.869  20.577  0.00  0.00    +0.000 OA
BRANCH  24  32
ATOM     26  C   UNL     1       6.754   5.430  16.228  0.00  0.00    +0.000 C 
ATOM     27  C   UNL     1       5.566   4.619  16.680  0.00  0.00    +0.000 C 
ATOM     28  O   UNL     1       5.413   3.468  16.270  0.00  0.00    +0.000 OA
ATOM     29  N   UNL     1       4.701   5.216  17.583  0.00  0.00    +0.000 N 
ATOM     30  C   UNL     1       3.635   4.426  18.194  0.00  0.00    +0.000 C 
ATOM     31  C   UNL     1       2.268   5.029  17.881  0.00  0.00    +0.000 C 
ATOM     32  C   UNL     1       2.197   6.522  18.241  0.00  0.00    +0.000 C 
ATOM     33  C   UNL     1       3.382   7.281  17.620  0.00  0.00    +0.000 C 
ATOM     34  C   UNL     1       4.726   6.627  17.958  0.00  0.00    +0.000 C 
ENDBRANCH  24  32
ENDBRANCH  23  24
ENDBRANCH  22  23
ENDBRANCH  21  22
ENDBRANCH   1  21
TORSDOF 6
ENDMDL
MODEL 8
REMARK VINA RESULT:      -7.9      0.991      1.259
REMARK  Name = 
REMARK  7 active torsions:
REMARK  status: ('A' for Active; 'I' for Inactive)
REMARK    1  A    between atoms: C_1  and  C_2
REMARK    2  A    between atoms: C_7  and  C_8
REMARK    3  A    between atoms: C_8  and  O_10
REMARK    4  A    between atoms: O_10  and  C_11
REMARK    5  A    between atoms: C_11  and  C_12
REMARK    6  A    between atoms: C_12  and  C_13
REMARK    7  A    between atoms: C_14  and  C_15
REMARK                            x       y       z     vdW  Elec       q    Type
REMARK                         _______ _______ _______ _____ _____    ______ ____
ROOT
ATOM      1  C   UNL     1       3.050   6.690  18.959  0.00  0.00    +0.000 A 
ATOM      2  C   UNL     1       3.812   5.567  18.822  0.00  0.00    +0.000 A 
ATOM      3  C   UNL     1       3.595   4.416  19.759  0.00  0.00    +0.000 A 
ATOM      4  C   UNL     1       4.327   3.220  19.669  0.00  0.00    +0.000 A 
ATOM      5  C   UNL     1       4.066   2.160  20.544  0.00  0.00    +0.000 A 
ATOM      6 CL   UNL     1       4.958   0.696  20.402  0.00  0.00    +0.000 Cl
ATOM      7  C   UNL     1       3.085   2.273  21.524  0.00  0.00    +0.000 A 
ATOM      8  C   UNL     1       2.355   3.455  21.629  0.00  0.00    +0.000 A 
ATOM      9  C   UNL     1       2.622   4.506  20.754  0.00  0.00    +0.000 A 
ATOM     10  N   UNL     1       1.895   5.676  20.886  0.00  0.00    +0.000 N 
ATOM     11  C   UNL     1       2.081   6.775  20.115  0.00  0.00    +0.000 A 
ATOM     12  O   UNL     1       1.446   7.783  20.406  0.00  0.00    +0.000 OA
ATOM     13  H   UNL     1       1.213   5.781  21.626  0.00  0.00    +0.000 HD
ENDROOT
BRANCH   2  14
ATOM     14  C   UNL     1       4.847   5.476  17.743  0.00  0.00    +0.000 A 
ATOM     15  C   UNL     1       5.993   6.286  17.838  0.00  0.00    +0.000 A 
ATOM     16  C   UNL     1       6.893   6.383  16.770  0.00  0.00    +0.000 A 
ATOM     17  C   UNL     1       6.667   5.660  15.598  0.00  0.00    +0.000 A 
ATOM     18  C   UNL     1       5.546   4.836  15.495  0.00  0.00    +0.000 A 
ATOM     19  C   UNL     1       4.637   4.747  16.557  0.00  0.00    +0.000 A 
ATOM     20 CL   UNL     1       3.228   3.772  16.322  0.00  0.00    +0.000 Cl
ENDBRANCH   2  14
BRANCH   1  21
ATOM     21  C   UNL     1       3.105   7.882  17.997  0.00  0.00    +0.000 C 
BRANCH  21  22
ATOM     22  C   UNL     1       1.796   8.644  17.721  0.00  0.00    +0.000 C 
BRANCH  22  23
ATOM     23  O   UNL     1       1.986  10.064  17.594  0.00  0.00    +0.000 OA
BRANCH  23  24
ATOM     24  C   UNL     1       1.188  10.793  18.420  0.00  0.00    +0.000 C 
ATOM     25  O   UNL     1       1.446  11.926  18.806  0.00  0.00    +0.000 OA
BRANCH  24  32
ATOM     26  C   UNL     1      -3.865  12.771  20.792  0.00  0.00    +0.000 C 
ATOM     27  C   UNL     1      -3.536  12.245  19.417  0.00  0.00    +0.000 C 
ATOM     28  O   UNL     1      -4.424  12.137  18.570  0.00  0.00    +0.000 OA
ATOM     29  N   UNL     1      -2.210  11.932  19.161  0.00  0.00    +0.000 N 
ATOM     30  C   UNL     1      -1.799  11.588  17.802  0.00  0.00    +0.000 C 
ATOM     31  C   UNL     1      -1.186  10.191  17.759  0.00  0.00    +0.000 C 
ATOM     32  C   UNL     1      -0.063  10.019  18.795  0.00  0.00    +0.000 C 
ATOM     33  C   UNL     1      -0.544  10.458  20.188  0.00  0.00    +0.000 C 
ATOM     34  C   UNL     1      -1.158  11.862  20.169  0.00  0.00    +0.000 C 
ENDBRANCH  24  32
ENDBRANCH  23  24
ENDBRANCH  22  23
ENDBRANCH  21  22
ENDBRANCH   1  21
TORSDOF 6
ENDMDL
MODEL 9
REMARK VINA RESULT:      -7.9      1.434      1.667
REMARK  Name = 
REMARK  7 active torsions:
REMARK  status: ('A' for Active; 'I' for Inactive)
REMARK    1  A    between atoms: C_1  and  C_2
REMARK    2  A    between atoms: C_7  and  C_8
REMARK    3  A    between atoms: C_8  and  O_10
REMARK    4  A    between atoms: O_10  and  C_11
REMARK    5  A    between atoms: C_11  and  C_12
REMARK    6  A    between atoms: C_12  and  C_13
REMARK    7  A    between atoms: C_14  and  C_15
REMARK                            x       y       z     vdW  Elec       q    Type
REMARK                         _______ _______ _______ _____ _____    ______ ____
ROOT
ATOM      1  C   UNL     1       3.193   6.724  18.987  0.00  0.00    +0.000 A 
ATOM      2  C   UNL     1       3.934   5.600  18.767  0.00  0.00    +0.000 A 
ATOM      3  C   UNL     1       3.703   4.391  19.625  0.00  0.00    +0.000 A 
ATOM      4  C   UNL     1       4.413   3.192  19.446  0.00  0.00    +0.000 A 
ATOM      5  C   UNL     1       4.140   2.079  20.249  0.00  0.00    +0.000 A 
ATOM      6 CL   UNL     1       5.004   0.613  20.000  0.00  0.00    +0.000 Cl
ATOM      7  C   UNL     1       3.168   2.141  21.242  0.00  0.00    +0.000 A 
ATOM      8  C   UNL     1       2.460   3.325  21.435  0.00  0.00    +0.000 A 
ATOM      9  C   UNL     1       2.739   4.429  20.632  0.00  0.00    +0.000 A 
ATOM     10  N   UNL     1       2.034   5.600  20.849  0.00  0.00    +0.000 N 
ATOM     11  C   UNL     1       2.233   6.746  20.155  0.00  0.00    +0.000 A 
ATOM     12  O   UNL     1       1.619   7.742  20.519  0.00  0.00    +0.000 OA
ATOM     13  H   UNL     1       1.359   5.666  21.601  0.00  0.00    +0.000 HD
ENDROOT
BRANCH   2  14
ATOM     14  C   UNL     1       4.959   5.566  17.675  0.00  0.00    +0.000 A 
ATOM     15  C   UNL     1       4.530   5.356  16.353  0.00  0.00    +0.000 A 
ATOM     16  C   UNL     1       5.454   5.124  15.328  0.00  0.00    +0.000 A 
ATOM     17  C   UNL     1       6.821   5.113  15.608  0.00  0.00    +0.000 A 
ATOM     18  C   UNL     1       7.265   5.340  16.910  0.00  0.00    +0.000 A 
ATOM     19  C   UNL     1       6.342   5.560  17.942  0.00  0.00    +0.000 A 
ATOM     20 CL   UNL     1       6.965   5.748  19.544  0.00  0.00    +0.000 Cl
ENDBRANCH   2  14
BRANCH   1  21
ATOM     21  C   UNL     1       3.262   7.978  18.108  0.00  0.00    +0.000 C 
BRANCH  21  22
ATOM     22  C   UNL     1       1.952   8.491  17.483  0.00  0.00    +0.000 C 
BRANCH  22  23
ATOM     23  O   UNL     1       1.166   9.283  18.390  0.00  0.00    +0.000 OA
BRANCH  23  24
ATOM     24  C   UNL     1       1.383  10.620  18.271  0.00  0.00    +0.000 C 
ATOM     25  O   UNL     1       2.469  11.123  18.014  0.00  0.00    +0.000 OA
BRANCH  24  32
ATOM     26  C   UNL     1      -1.689  11.426  23.269  0.00  0.00    +0.000 C 
ATOM     27  C   UNL     1      -0.851  12.367  22.439  0.00  0.00    +0.000 C 
ATOM     28  O   UNL     1      -0.755  13.551  22.761  0.00  0.00    +0.000 OA
ATOM     29  N   UNL     1      -0.191  11.827  21.346  0.00  0.00    +0.000 N 
ATOM     30  C   UNL     1       0.772  12.642  20.610  0.00  0.00    +0.000 C 
ATOM     31  C   UNL     1       0.363  12.771  19.145  0.00  0.00    +0.000 C 
ATOM     32  C   UNL     1       0.102  11.404  18.494  0.00  0.00    +0.000 C 
ATOM     33  C   UNL     1      -0.869  10.575  19.352  0.00  0.00    +0.000 C 
ATOM     34  C   UNL     1      -0.414  10.487  20.812  0.00  0.00    +0.000 C 
ENDBRANCH  24  32
ENDBRANCH  23  24
ENDBRANCH  22  23
ENDBRANCH  21  22
ENDBRANCH   1  21
TORSDOF 6
ENDMDL
