MODEL 1
REMARK VINA RESULT:      -9.0      0.000      0.000
REMARK  Name = 
REMARK  6 active torsions:
REMARK  status: ('A' for Active; 'I' for Inactive)
REMARK    1  A    between atoms: C_9  and  C_10
REMARK    2  A    between atoms: C_13  and  C_14
REMARK    3  A    between atoms: N_16  and  C_17
REMARK    4  A    between atoms: C_17  and  C_18
REMARK    5  A    between atoms: C_18  and  N_19
REMARK    6  A    between atoms: C_20  and  C_22
REMARK                            x       y       z     vdW  Elec       q    Type
REMARK                         _______ _______ _______ _____ _____    ______ ____
ROOT
ATOM      1  C   UNL     1       2.846   7.025  18.417  0.00  0.00    +0.000 A 
ATOM      2  C   UNL     1       2.349   8.190  17.802  0.00  0.00    +0.000 A 
ATOM      3  C   UNL     1       1.579   9.126  18.508  0.00  0.00    +0.000 A 
ATOM      4  C   UNL     1       1.248   8.914  19.851  0.00  0.00    +0.000 A 
ATOM      5  C   UNL     1       1.756   7.777  20.484  0.00  0.00    +0.000 A 
ATOM      6  C   UNL     1       2.571   6.875  19.782  0.00  0.00    +0.000 A 
ENDROOT
BRANCH   1  15
ATOM      7  N   UNL     1       1.531   3.991  19.193  0.00  0.00    +0.000 N 
ATOM      8  C   UNL     1       2.583   3.697  18.411  0.00  0.00    +0.000 A 
ATOM      9  N   UNL     1       2.889   2.427  18.165  0.00  0.00    +0.000 NA
ATOM     10  N   UNL     1       3.930   2.508  17.333  0.00  0.00    +0.000 N 
ATOM     11  C   UNL     1       4.313   3.785  17.030  0.00  0.00    +0.000 A 
ATOM     12  C   UNL     1       5.332   4.234  16.187  0.00  0.00    +0.000 A 
ATOM     13  C   UNL     1       5.506   5.608  16.080  0.00  0.00    +0.000 A 
ATOM     14  C   UNL     1       4.699   6.484  16.803  0.00  0.00    +0.000 A 
ATOM     15  C   UNL     1       3.659   6.041  17.663  0.00  0.00    +0.000 A 
ATOM     16  C   UNL     1       3.462   4.626  17.756  0.00  0.00    +0.000 A 
ATOM     17  H   UNL     1       0.944   3.199  19.432  0.00  0.00    +0.000 HD
ATOM     18  H   UNL     1       0.998   4.830  18.999  0.00  0.00    +0.000 HD
ATOM     19  H   UNL     1       4.340   1.644  16.996  0.00  0.00    +0.000 HD
ENDBRANCH   1  15
BRANCH   4  20
ATOM     20  C   UNL     1       0.384   9.926  20.537  0.00  0.00    +0.000 C 
ATOM     21  O   UNL     1      -0.777   9.650  20.828  0.00  0.00    +0.000 OA
ATOM     22  N   UNL     1       0.946  11.151  20.839  0.00  0.00    +0.000 N 
ATOM     23  H   UNL     1       1.931  11.321  20.711  0.00  0.00    +0.000 HD
BRANCH  22  24
ATOM     24  C   UNL     1       0.194  12.184  21.533  0.00  0.00    +0.000 C 
BRANCH  24  25
ATOM     25  C   UNL     1      -0.490  13.151  20.567  0.00  0.00    +0.000 C 
BRANCH  25  26
ATOM     26  N   UNL     1      -1.048  12.480  19.407  0.00  0.00    +0.000 N 
ATOM     27  C   UNL     1      -2.382  12.155  19.330  0.00  0.00    +0.000 C 
ATOM     28  O   UNL     1      -3.193  12.391  20.219  0.00  0.00    +0.000 OA
ATOM     29  H   UNL     1      -0.481  12.464  18.570  0.00  0.00    +0.000 HD
BRANCH  27  30
ATOM     30  C   UNL     1      -2.826  11.512  18.057  0.00  0.00    +0.000 A 
ATOM     31  C   UNL     1      -4.113  11.720  17.538  0.00  0.00    +0.000 A 
ATOM     32  C   UNL     1      -4.500  11.083  16.355  0.00  0.00    +0.000 A 
ATOM     33  C   UNL     1      -3.599  10.254  15.696  0.00  0.00    +0.000 A 
ATOM     34  F   UNL     1      -3.977   9.638  14.568  0.00  0.00    +0.000 F 
ATOM     35  C   UNL     1      -2.312  10.060  16.184  0.00  0.00    +0.000 A 
ATOM     36  C   UNL     1      -1.922  10.695  17.367  0.00  0.00    +0.000 A 
ENDBRANCH  27  30
ENDBRANCH  25  26
ENDBRANCH  24  25
ENDBRANCH  22  24
ENDBRANCH   4  20
TORSDOF 6
ENDMDL
MODEL 2
REMARK VINA RESULT:      -9.0      0.373      1.276
REMARK  Name = 
REMARK  6 active torsions:
REMARK  status: ('A' for Active; 'I' for Inactive)
REMARK    1  A    between atoms: C_9  and  C_10
REMARK    2  A    between atoms: C_13  and  C_14
REMARK    3  A    between atoms: N_16  and  C_17
REMARK    4  A    between atoms: C_17  and  C_18
REMARK    5  A    between atoms: C_18  and  N_19
REMARK    6  A    between atoms: C_20  and  C_22
REMARK                            x       y       z     vdW  Elec       q    Type
REMARK                         _______ _______ _______ _____ _____    ______ ____
ROOT
ATOM      1  C   UNL     1       2.754   7.123  18.488  0.00  0.00    +0.000 A 
ATOM      2  C   UNL     1       2.469   6.870  19.844  0.00  0.00    +0.000 A 
ATOM      3  C   UNL     1       1.684   7.746  20.609  0.00  0.00    +0.000 A 
ATOM      4  C   UNL     1       1.182   8.928  20.054  0.00  0.00    +0.000 A 
ATOM      5  C   UNL     1       1.432   9.181  18.704  0.00  0.00    +0.000 A 
ATOM      6  C   UNL     1       2.172   8.271  17.933  0.00  0.00    +0.000 A 
ENDROOT
BRANCH   1  15
ATOM      7  N   UNL     1       1.599   4.018  19.238  0.00  0.00    +0.000 N 
ATOM      8  C   UNL     1       2.636   3.787  18.417  0.00  0.00    +0.000 A 
ATOM      9  N   UNL     1       2.990   2.538  18.133  0.00  0.00    +0.000 NA
ATOM     10  N   UNL     1       3.999   2.683  17.272  0.00  0.00    +0.000 N 
ATOM     11  C   UNL     1       4.316   3.981  16.985  0.00  0.00    +0.000 A 
ATOM     12  C   UNL     1       5.286   4.493  16.120  0.00  0.00    +0.000 A 
ATOM     13  C   UNL     1       5.396   5.875  16.037  0.00  0.00    +0.000 A 
ATOM     14  C   UNL     1       4.575   6.699  16.805  0.00  0.00    +0.000 A 
ATOM     15  C   UNL     1       3.584   6.192  17.687  0.00  0.00    +0.000 A 
ATOM     16  C   UNL     1       3.452   4.768  17.756  0.00  0.00    +0.000 A 
ATOM     17  H   UNL     1       1.056   3.196  19.478  0.00  0.00    +0.000 HD
ATOM     18  H   UNL     1       1.024   4.837  19.080  0.00  0.00    +0.000 HD
ATOM     19  H   UNL     1       4.436   1.845  16.902  0.00  0.00    +0.000 HD
ENDBRANCH   1  15
BRANCH   4  20
ATOM     20  C   UNL     1       0.392   9.845  20.935  0.00  0.00    +0.000 C 
ATOM     21  O   UNL     1      -0.436   9.386  21.719  0.00  0.00    +0.000 OA
ATOM     22  N   UNL     1       0.643  11.200  20.843  0.00  0.00    +0.000 N 
ATOM     23  H   UNL     1       1.409  11.554  20.291  0.00  0.00    +0.000 HD
BRANCH  22  24
ATOM     24  C   UNL     1      -0.052  12.163  21.681  0.00  0.00    +0.000 C 
BRANCH  24  25
ATOM     25  C   UNL     1      -1.180  12.875  20.932  0.00  0.00    +0.000 C 
BRANCH  25  26
ATOM     26  N   UNL     1      -1.516  12.225  19.679  0.00  0.00    +0.000 N 
ATOM     27  C   UNL     1      -2.821  12.045  19.283  0.00  0.00    +0.000 C 
ATOM     28  O   UNL     1      -3.788  12.402  19.946  0.00  0.00    +0.000 OA
ATOM     29  H   UNL     1      -0.770  12.114  19.006  0.00  0.00    +0.000 HD
BRANCH  27  30
ATOM     30  C   UNL     1      -3.016  11.405  17.949  0.00  0.00    +0.000 A 
ATOM     31  C   UNL     1      -2.049  10.553  17.393  0.00  0.00    +0.000 A 
ATOM     32  C   UNL     1      -2.257   9.989  16.131  0.00  0.00    +0.000 A 
ATOM     33  C   UNL     1      -3.430  10.271  15.439  0.00  0.00    +0.000 A 
ATOM     34  F   UNL     1      -3.621   9.737  14.225  0.00  0.00    +0.000 F 
ATOM     35  C   UNL     1      -4.408  11.091  15.989  0.00  0.00    +0.000 A 
ATOM     36  C   UNL     1      -4.203  11.657  17.250  0.00  0.00    +0.000 A 
ENDBRANCH  27  30
ENDBRANCH  25  26
ENDBRANCH  24  25
ENDBRANCH  22  24
ENDBRANCH   4  20
TORSDOF 6
ENDMDL
MODEL 3
REMARK VINA RESULT:      -8.9      3.730      8.721
REMARK  Name = 
REMARK  6 active torsions:
REMARK  status: ('A' for Active; 'I' for Inactive)
REMARK    1  A    between atoms: C_9  and  C_10
REMARK    2  A    between atoms: C_13  and  C_14
REMARK    3  A    between atoms: N_16  and  C_17
REMARK    4  A    between atoms: C_17  and  C_18
REMARK    5  A    between atoms: C_18  and  N_19
REMARK    6  A    between atoms: C_20  and  C_22
REMARK                            x       y       z     vdW  Elec       q    Type
REMARK                         _______ _______ _______ _____ _____    ______ ____
ROOT
ATOM      1  C   UNL     1       1.446   8.948  19.004  0.00  0.00    +0.000 A 
ATOM      2  C   UNL     1       2.248   9.239  17.884  0.00  0.00    +0.000 A 
ATOM      3  C   UNL     1       3.251   8.362  17.446  0.00  0.00    +0.000 A 
ATOM      4  C   UNL     1       3.514   7.173  18.134  0.00  0.00    +0.000 A 
ATOM      5  C   UNL     1       2.710   6.855  19.231  0.00  0.00    +0.000 A 
ATOM      6  C   UNL     1       1.673   7.713  19.627  0.00  0.00    +0.000 A 
ENDROOT
BRANCH   1  15
ATOM      7  N   UNL     1       1.716   9.025  22.390  0.00  0.00    +0.000 N 
ATOM      8  C   UNL     1       0.649   9.799  22.132  0.00  0.00    +0.000 A 
ATOM      9  N   UNL     1      -0.034  10.339  23.136  0.00  0.00    +0.000 NA
ATOM     10  N   UNL     1      -0.970  11.068  22.527  0.00  0.00    +0.000 N 
ATOM     11  C   UNL     1      -0.923  11.022  21.161  0.00  0.00    +0.000 A 
ATOM     12  C   UNL     1      -1.723  11.672  20.218  0.00  0.00    +0.000 A 
ATOM     13  C   UNL     1      -1.452  11.423  18.879  0.00  0.00    +0.000 A 
ATOM     14  C   UNL     1      -0.432  10.546  18.512  0.00  0.00    +0.000 A 
ATOM     15  C   UNL     1       0.389   9.880  19.460  0.00  0.00    +0.000 A 
ATOM     16  C   UNL     1       0.127  10.154  20.841  0.00  0.00    +0.000 A 
ATOM     17  H   UNL     1       2.016   9.023  23.358  0.00  0.00    +0.000 HD
ATOM     18  H   UNL     1       2.491   9.030  21.738  0.00  0.00    +0.000 HD
ATOM     19  H   UNL     1      -1.621  11.590  23.104  0.00  0.00    +0.000 HD
ENDBRANCH   1  15
BRANCH   4  20
ATOM     20  C   UNL     1       4.629   6.301  17.645  0.00  0.00    +0.000 C 
ATOM     21  O   UNL     1       5.586   6.057  18.376  0.00  0.00    +0.000 OA
ATOM     22  N   UNL     1       4.525   5.779  16.371  0.00  0.00    +0.000 N 
ATOM     23  H   UNL     1       3.681   5.883  15.831  0.00  0.00    +0.000 HD
BRANCH  22  24
ATOM     24  C   UNL     1       5.542   4.897  15.824  0.00  0.00    +0.000 C 
BRANCH  24  25
ATOM     25  C   UNL     1       5.321   3.438  16.226  0.00  0.00    +0.000 C 
BRANCH  25  26
ATOM     26  N   UNL     1       4.616   3.308  17.487  0.00  0.00    +0.000 N 
ATOM     27  C   UNL     1       3.245   3.213  17.544  0.00  0.00    +0.000 C 
ATOM     28  O   UNL     1       2.519   3.240  16.556  0.00  0.00    +0.000 OA
ATOM     29  H   UNL     1       5.167   3.060  18.297  0.00  0.00    +0.000 HD
BRANCH  27  30
ATOM     30  C   UNL     1       2.658   3.033  18.906  0.00  0.00    +0.000 A 
ATOM     31  C   UNL     1       3.451   2.669  20.005  0.00  0.00    +0.000 A 
ATOM     32  C   UNL     1       2.862   2.489  21.261  0.00  0.00    +0.000 A 
ATOM     33  C   UNL     1       1.494   2.682  21.410  0.00  0.00    +0.000 A 
ATOM     34  F   UNL     1       0.932   2.498  22.613  0.00  0.00    +0.000 F 
ATOM     35  C   UNL     1       0.701   3.069  20.336  0.00  0.00    +0.000 A 
ATOM     36  C   UNL     1       1.286   3.250  19.079  0.00  0.00    +0.000 A 
ENDBRANCH  27  30
ENDBRANCH  25  26
ENDBRANCH  24  25
ENDBRANCH  22  24
ENDBRANCH   4  20
TORSDOF 6
ENDMDL
MODEL 4
REMARK VINA RESULT:      -8.9      1.764      2.702
REMARK  Name = 
REMARK  6 active torsions:
REMARK  status: ('A' for Active; 'I' for Inactive)
REMARK    1  A    between atoms: C_9  and  C_10
REMARK    2  A    between atoms: C_13  and  C_14
REMARK    3  A    between atoms: N_16  and  C_17
REMARK    4  A    between atoms: C_17  and  C_18
REMARK    5  A    between atoms: C_18  and  N_19
REMARK    6  A    between atoms: C_20  and  C_22
REMARK                            x       y       z     vdW  Elec       q    Type
REMARK                         _______ _______ _______ _____ _____    ______ ____
ROOT
ATOM      1  C   UNL     1       2.036   6.618  19.676  0.00  0.00    +0.000 A 
ATOM      2  C   UNL     1       1.615   7.495  20.694  0.00  0.00    +0.000 A 
ATOM      3  C   UNL     1       1.428   8.865  20.457  0.00  0.00    +0.000 A 
ATOM      4  C   UNL     1       1.689   9.417  19.198  0.00  0.00    +0.000 A 
ATOM      5  C   UNL     1       2.081   8.556  18.170  0.00  0.00    +0.000 A 
ATOM      6  C   UNL     1       2.211   7.179  18.404  0.00  0.00    +0.000 A 
ENDROOT
BRANCH   1  15
ATOM      7  N   UNL     1       5.286   5.998  18.906  0.00  0.00    +0.000 N 
ATOM      8  C   UNL     1       4.793   4.790  19.224  0.00  0.00    +0.000 A 
ATOM      9  N   UNL     1       5.570   3.715  19.139  0.00  0.00    +0.000 NA
ATOM     10  N   UNL     1       4.787   2.723  19.567  0.00  0.00    +0.000 N 
ATOM     11  C   UNL     1       3.527   3.113  19.928  0.00  0.00    +0.000 A 
ATOM     12  C   UNL     1       2.469   2.355  20.436  0.00  0.00    +0.000 A 
ATOM     13  C   UNL     1       1.281   3.023  20.701  0.00  0.00    +0.000 A 
ATOM     14  C   UNL     1       1.164   4.389  20.451  0.00  0.00    +0.000 A 
ATOM     15  C   UNL     1       2.231   5.172  19.936  0.00  0.00    +0.000 A 
ATOM     16  C   UNL     1       3.464   4.490  19.684  0.00  0.00    +0.000 A 
ATOM     17  H   UNL     1       6.288   6.022  18.755  0.00  0.00    +0.000 HD
ATOM     18  H   UNL     1       4.944   6.811  19.406  0.00  0.00    +0.000 HD
ATOM     19  H   UNL     1       5.175   1.787  19.599  0.00  0.00    +0.000 HD
ENDBRANCH   1  15
BRANCH   4  20
ATOM     20  C   UNL     1       1.516  10.893  19.020  0.00  0.00    +0.000 C 
ATOM     21  O   UNL     1       1.674  11.404  17.913  0.00  0.00    +0.000 OA
ATOM     22  N   UNL     1       1.159  11.636  20.128  0.00  0.00    +0.000 N 
ATOM     23  H   UNL     1       0.909  11.193  20.997  0.00  0.00    +0.000 HD
BRANCH  22  24
ATOM     24  C   UNL     1       0.937  13.070  20.044  0.00  0.00    +0.000 C 
BRANCH  24  25
ATOM     25  C   UNL     1      -0.550  13.425  19.999  0.00  0.00    +0.000 C 
BRANCH  25  26
ATOM     26  N   UNL     1      -1.227  12.850  18.852  0.00  0.00    +0.000 N 
ATOM     27  C   UNL     1      -1.837  11.619  18.912  0.00  0.00    +0.000 C 
ATOM     28  O   UNL     1      -1.852  10.915  19.916  0.00  0.00    +0.000 OA
ATOM     29  H   UNL     1      -1.433  13.472  18.082  0.00  0.00    +0.000 HD
BRANCH  27  30
ATOM     30  C   UNL     1      -2.538  11.174  17.671  0.00  0.00    +0.000 A 
ATOM     31  C   UNL     1      -3.812  11.655  17.334  0.00  0.00    +0.000 A 
ATOM     32  C   UNL     1      -4.446  11.200  16.173  0.00  0.00    +0.000 A 
ATOM     33  C   UNL     1      -3.801  10.278  15.357  0.00  0.00    +0.000 A 
ATOM     34  F   UNL     1      -4.416   9.836  14.251  0.00  0.00    +0.000 F 
ATOM     35  C   UNL     1      -2.527   9.814  15.664  0.00  0.00    +0.000 A 
ATOM     36  C   UNL     1      -1.891  10.266  16.823  0.00  0.00    +0.000 A 
ENDBRANCH  27  30
ENDBRANCH  25  26
ENDBRANCH  24  25
ENDBRANCH  22  24
ENDBRANCH   4  20
TORSDOF 6
ENDMDL
MODEL 5
REMARK VINA RESULT:      -8.7      2.947      4.087
REMARK  Name = 
REMARK  6 active torsions:
REMARK  status: ('A' for Active; 'I' for Inactive)
REMARK    1  A    between atoms: C_9  and  C_10
REMARK    2  A    between atoms: C_13  and  C_14
REMARK    3  A    between atoms: N_16  and  C_17
REMARK    4  A    between atoms: C_17  and  C_18
REMARK    5  A    between atoms: C_18  and  N_19
REMARK    6  A    between atoms: C_20  and  C_22
REMARK                            x       y       z     vdW  Elec       q    Type
REMARK                         _______ _______ _______ _____ _____    ______ ____
ROOT
ATOM      1  C   UNL     1       2.238   6.642  18.531  0.00  0.00    +0.000 A 
ATOM      2  C   UNL     1       2.018   7.112  19.839  0.00  0.00    +0.000 A 
ATOM      3  C   UNL     1       1.638   8.438  20.093  0.00  0.00    +0.000 A 
ATOM      4  C   UNL     1       1.498   9.356  19.046  0.00  0.00    +0.000 A 
ATOM      5  C   UNL     1       1.686   8.899  17.739  0.00  0.00    +0.000 A 
ATOM      6  C   UNL     1       2.012   7.556  17.494  0.00  0.00    +0.000 A 
ENDROOT
BRANCH   1  15
ATOM      7  N   UNL     1       5.436   6.816  17.396  0.00  0.00    +0.000 N 
ATOM      8  C   UNL     1       5.135   5.510  17.316  0.00  0.00    +0.000 A 
ATOM      9  N   UNL     1       6.026   4.655  16.824  0.00  0.00    +0.000 NA
ATOM     10  N   UNL     1       5.425   3.470  16.938  0.00  0.00    +0.000 N 
ATOM     11  C   UNL     1       4.173   3.521  17.486  0.00  0.00    +0.000 A 
ATOM     12  C   UNL     1       3.281   2.485  17.772  0.00  0.00    +0.000 A 
ATOM     13  C   UNL     1       2.055   2.838  18.321  0.00  0.00    +0.000 A 
ATOM     14  C   UNL     1       1.742   4.176  18.556  0.00  0.00    +0.000 A 
ATOM     15  C   UNL     1       2.640   5.238  18.272  0.00  0.00    +0.000 A 
ATOM     16  C   UNL     1       3.913   4.875  17.728  0.00  0.00    +0.000 A 
ATOM     17  H   UNL     1       6.404   7.042  17.200  0.00  0.00    +0.000 HD
ATOM     18  H   UNL     1       5.053   7.359  18.162  0.00  0.00    +0.000 HD
ATOM     19  H   UNL     1       5.928   2.646  16.626  0.00  0.00    +0.000 HD
ENDBRANCH   1  15
BRANCH   4  20
ATOM     20  C   UNL     1       1.136  10.769  19.384  0.00  0.00    +0.000 C 
ATOM     21  O   UNL     1       0.742  11.051  20.513  0.00  0.00    +0.000 OA
ATOM     22  N   UNL     1       1.281  11.723  18.396  0.00  0.00    +0.000 N 
ATOM     23  H   UNL     1       1.722  11.504  17.518  0.00  0.00    +0.000 HD
BRANCH  22  24
ATOM     24  C   UNL     1       0.986  13.125  18.643  0.00  0.00    +0.000 C 
BRANCH  24  25
ATOM     25  C   UNL     1      -0.481  13.465  18.372  0.00  0.00    +0.000 C 
BRANCH  25  26
ATOM     26  N   UNL     1      -1.288  13.452  19.577  0.00  0.00    +0.000 N 
ATOM     27  C   UNL     1      -2.289  12.528  19.770  0.00  0.00    +0.000 C 
ATOM     28  O   UNL     1      -2.583  11.663  18.952  0.00  0.00    +0.000 OA
ATOM     29  H   UNL     1      -0.947  13.990  20.363  0.00  0.00    +0.000 HD
BRANCH  27  30
ATOM     30  C   UNL     1      -3.004  12.603  21.078  0.00  0.00    +0.000 A 
ATOM     31  C   UNL     1      -2.349  12.336  22.290  0.00  0.00    +0.000 A 
ATOM     32  C   UNL     1      -3.058  12.395  23.495  0.00  0.00    +0.000 A 
ATOM     33  C   UNL     1      -4.408  12.727  23.480  0.00  0.00    +0.000 A 
ATOM     34  F   UNL     1      -5.085  12.772  24.635  0.00  0.00    +0.000 F 
ATOM     35  C   UNL     1      -5.063  13.020  22.290  0.00  0.00    +0.000 A 
ATOM     36  C   UNL     1      -4.358  12.962  21.084  0.00  0.00    +0.000 A 
ENDBRANCH  27  30
ENDBRANCH  25  26
ENDBRANCH  24  25
ENDBRANCH  22  24
ENDBRANCH   4  20
TORSDOF 6
ENDMDL
MODEL 6
REMARK VINA RESULT:      -8.7      3.563      8.935
REMARK  Name = 
REMARK  6 active torsions:
REMARK  status: ('A' for Active; 'I' for Inactive)
REMARK    1  A    between atoms: C_9  and  C_10
REMARK    2  A    between atoms: C_13  and  C_14
REMARK    3  A    between atoms: N_16  and  C_17
REMARK    4  A    between atoms: C_17  and  C_18
REMARK    5  A    between atoms: C_18  and  N_19
REMARK    6  A    between atoms: C_20  and  C_22
REMARK                            x       y       z     vdW  Elec       q    Type
REMARK                         _______ _______ _______ _____ _____    ______ ____
ROOT
ATOM      1  C   UNL     1       1.128   9.419  19.833  0.00  0.00    +0.000 A 
ATOM      2  C   UNL     1       1.772   8.679  18.823  0.00  0.00    +0.000 A 
ATOM      3  C   UNL     1       2.014   7.304  18.956  0.00  0.00    +0.000 A 
ATOM      4  C   UNL     1       1.652   6.622  20.124  0.00  0.00    +0.000 A 
ATOM      5  C   UNL     1       0.988   7.336  21.124  0.00  0.00    +0.000 A 
ATOM      6  C   UNL     1       0.701   8.699  20.957  0.00  0.00    +0.000 A 
ENDROOT
BRANCH   1  15
ATOM      7  N   UNL     1      -1.521   9.658  17.720  0.00  0.00    +0.000 N 
ATOM      8  C   UNL     1      -1.172  10.935  17.947  0.00  0.00    +0.000 A 
ATOM      9  N   UNL     1      -1.825  11.918  17.335  0.00  0.00    +0.000 NA
ATOM     10  N   UNL     1      -1.260  13.025  17.822  0.00  0.00    +0.000 N 
ATOM     11  C   UNL     1      -0.261  12.799  18.727  0.00  0.00    +0.000 A 
ATOM     12  C   UNL     1       0.517  13.710  19.443  0.00  0.00    +0.000 A 
ATOM     13  C   UNL     1       1.482  13.189  20.295  0.00  0.00    +0.000 A 
ATOM     14  C   UNL     1       1.661  11.810  20.404  0.00  0.00    +0.000 A 
ATOM     15  C   UNL     1       0.876  10.872  19.684  0.00  0.00    +0.000 A 
ATOM     16  C   UNL     1      -0.136  11.408  18.824  0.00  0.00    +0.000 A 
ATOM     17  H   UNL     1      -2.377   9.539  17.190  0.00  0.00    +0.000 HD
ATOM     18  H   UNL     1      -1.427   8.986  18.472  0.00  0.00    +0.000 HD
ATOM     19  H   UNL     1      -1.608  13.921  17.498  0.00  0.00    +0.000 HD
ENDBRANCH   1  15
BRANCH   4  20
ATOM     20  C   UNL     1       1.980   5.165  20.225  0.00  0.00    +0.000 C 
ATOM     21  O   UNL     1       2.500   4.720  21.246  0.00  0.00    +0.000 OA
ATOM     22  N   UNL     1       1.661   4.358  19.151  0.00  0.00    +0.000 N 
ATOM     23  H   UNL     1       1.124   4.709  18.375  0.00  0.00    +0.000 HD
BRANCH  22  24
ATOM     24  C   UNL     1       1.913   2.927  19.173  0.00  0.00    +0.000 C 
BRANCH  24  25
ATOM     25  C   UNL     1       3.155   2.544  18.367  0.00  0.00    +0.000 C 
BRANCH  25  26
ATOM     26  N   UNL     1       4.005   3.684  18.077  0.00  0.00    +0.000 N 
ATOM     27  C   UNL     1       5.075   4.013  18.877  0.00  0.00    +0.000 C 
ATOM     28  O   UNL     1       5.388   3.389  19.885  0.00  0.00    +0.000 OA
ATOM     29  H   UNL     1       3.928   4.090  17.154  0.00  0.00    +0.000 HD
BRANCH  27  30
ATOM     30  C   UNL     1       5.890   5.181  18.430  0.00  0.00    +0.000 A 
ATOM     31  C   UNL     1       5.442   6.047  17.420  0.00  0.00    +0.000 A 
ATOM     32  C   UNL     1       6.243   7.119  17.013  0.00  0.00    +0.000 A 
ATOM     33  C   UNL     1       7.477   7.321  17.621  0.00  0.00    +0.000 A 
ATOM     34  F   UNL     1       8.246   8.343  17.221  0.00  0.00    +0.000 F 
ATOM     35  C   UNL     1       7.922   6.488  18.641  0.00  0.00    +0.000 A 
ATOM     36  C   UNL     1       7.124   5.416  19.050  0.00  0.00    +0.000 A 
ENDBRANCH  27  30
ENDBRANCH  25  26
ENDBRANCH  24  25
ENDBRANCH  22  24
ENDBRANCH   4  20
TORSDOF 6
ENDMDL
MODEL 7
REMARK VINA RESULT:      -8.7      3.689      9.240
REMARK  Name = 
REMARK  6 active torsions:
REMARK  status: ('A' for Active; 'I' for Inactive)
REMARK    1  A    between atoms: C_9  and  C_10
REMARK    2  A    between atoms: C_13  and  C_14
REMARK    3  A    between atoms: N_16  and  C_17
REMARK    4  A    between atoms: C_17  and  C_18
REMARK    5  A    between atoms: C_18  and  N_19
REMARK    6  A    between atoms: C_20  and  C_22
REMARK                            x       y       z     vdW  Elec       q    Type
REMARK                         _______ _______ _______ _____ _____    ______ ____
ROOT
ATOM      1  C   UNL     1       1.177   9.237  19.666  0.00  0.00    +0.000 A 
ATOM      2  C   UNL     1       0.975   8.341  20.734  0.00  0.00    +0.000 A 
ATOM      3  C   UNL     1       1.415   7.010  20.674  0.00  0.00    +0.000 A 
ATOM      4  C   UNL     1       2.044   6.515  19.526  0.00  0.00    +0.000 A 
ATOM      5  C   UNL     1       2.276   7.397  18.469  0.00  0.00    +0.000 A 
ATOM      6  C   UNL     1       1.882   8.741  18.562  0.00  0.00    +0.000 A 
ENDROOT
BRANCH   1  15
ATOM      7  N   UNL     1      -1.397   9.440  17.459  0.00  0.00    +0.000 N 
ATOM      8  C   UNL     1      -1.258  10.697  17.910  0.00  0.00    +0.000 A 
ATOM      9  N   UNL     1      -2.033  11.663  17.427  0.00  0.00    +0.000 NA
ATOM     10  N   UNL     1      -1.664  12.742  18.120  0.00  0.00    +0.000 N 
ATOM     11  C   UNL     1      -0.677  12.515  19.038  0.00  0.00    +0.000 A 
ATOM     12  C   UNL     1      -0.075  13.396  19.939  0.00  0.00    +0.000 A 
ATOM     13  C   UNL     1       0.927  12.884  20.753  0.00  0.00    +0.000 A 
ATOM     14  C   UNL     1       1.313  11.548  20.649  0.00  0.00    +0.000 A 
ATOM     15  C   UNL     1       0.709  10.641  19.739  0.00  0.00    +0.000 A 
ATOM     16  C   UNL     1      -0.341  11.161  18.915  0.00  0.00    +0.000 A 
ATOM     17  H   UNL     1      -2.204   9.289  16.865  0.00  0.00    +0.000 HD
ATOM     18  H   UNL     1      -1.229   8.672  18.097  0.00  0.00    +0.000 HD
ATOM     19  H   UNL     1      -2.134  13.619  17.925  0.00  0.00    +0.000 HD
ENDBRANCH   1  15
BRANCH   4  20
ATOM     20  C   UNL     1       2.448   5.073  19.505  0.00  0.00    +0.000 C 
ATOM     21  O   UNL     1       3.108   4.604  20.429  0.00  0.00    +0.000 OA
ATOM     22  N   UNL     1       2.037   4.307  18.432  0.00  0.00    +0.000 N 
ATOM     23  H   UNL     1       1.393   4.668  17.746  0.00  0.00    +0.000 HD
BRANCH  22  24
ATOM     24  C   UNL     1       2.354   2.891  18.342  0.00  0.00    +0.000 C 
BRANCH  24  25
ATOM     25  C   UNL     1       3.708   2.641  17.675  0.00  0.00    +0.000 C 
BRANCH  25  26
ATOM     26  N   UNL     1       4.688   3.660  18.004  0.00  0.00    +0.000 N 
ATOM     27  C   UNL     1       5.463   4.259  17.039  0.00  0.00    +0.000 C 
ATOM     28  O   UNL     1       5.399   3.981  15.846  0.00  0.00    +0.000 OA
ATOM     29  H   UNL     1       4.624   4.077  18.923  0.00  0.00    +0.000 HD
BRANCH  27  30
ATOM     30  C   UNL     1       6.393   5.325  17.516  0.00  0.00    +0.000 A 
ATOM     31  C   UNL     1       7.267   5.110  18.593  0.00  0.00    +0.000 A 
ATOM     32  C   UNL     1       8.109   6.139  19.025  0.00  0.00    +0.000 A 
ATOM     33  C   UNL     1       8.078   7.368  18.375  0.00  0.00    +0.000 A 
ATOM     34  F   UNL     1       8.879   8.355  18.800  0.00  0.00    +0.000 F 
ATOM     35  C   UNL     1       7.237   7.587  17.291  0.00  0.00    +0.000 A 
ATOM     36  C   UNL     1       6.394   6.560  16.856  0.00  0.00    +0.000 A 
ENDBRANCH  27  30
ENDBRANCH  25  26
ENDBRANCH  24  25
ENDBRANCH  22  24
ENDBRANCH   4  20
TORSDOF 6
ENDMDL
MODEL 8
REMARK VINA RESULT:      -8.6      3.109      4.213
REMARK  Name = 
REMARK  6 active torsions:
REMARK  status: ('A' for Active; 'I' for Inactive)
REMARK    1  A    between atoms: C_9  and  C_10
REMARK    2  A    between atoms: C_13  and  C_14
REMARK    3  A    between atoms: N_16  and  C_17
REMARK    4  A    between atoms: C_17  and  C_18
REMARK    5  A    between atoms: C_18  and  N_19
REMARK    6  A    between atoms: C_20  and  C_22
REMARK                            x       y       z     vdW  Elec       q    Type
REMARK                         _______ _______ _______ _____ _____    ______ ____
ROOT
ATOM      1  C   UNL     1       2.189   6.702  19.604  0.00  0.00    +0.000 A 
ATOM      2  C   UNL     1       1.717   7.603  20.577  0.00  0.00    +0.000 A 
ATOM      3  C   UNL     1       1.320   8.907  20.246  0.00  0.00    +0.000 A 
ATOM      4  C   UNL     1       1.413   9.371  18.929  0.00  0.00    +0.000 A 
ATOM      5  C   UNL     1       1.853   8.482  17.946  0.00  0.00    +0.000 A 
ATOM      6  C   UNL     1       2.195   7.163  18.281  0.00  0.00    +0.000 A 
ENDROOT
BRANCH   1  15
ATOM      7  N   UNL     1       5.284   6.322  18.258  0.00  0.00    +0.000 N 
ATOM      8  C   UNL     1       5.013   5.119  18.789  0.00  0.00    +0.000 A 
ATOM      9  N   UNL     1       5.886   4.126  18.658  0.00  0.00    +0.000 NA
ATOM     10  N   UNL     1       5.327   3.121  19.334  0.00  0.00    +0.000 N 
ATOM     11  C   UNL     1       4.120   3.422  19.901  0.00  0.00    +0.000 A 
ATOM     12  C   UNL     1       3.279   2.631  20.686  0.00  0.00    +0.000 A 
ATOM     13  C   UNL     1       2.090   3.203  21.118  0.00  0.00    +0.000 A 
ATOM     14  C   UNL     1       1.760   4.509  20.760  0.00  0.00    +0.000 A 
ATOM     15  C   UNL     1       2.606   5.326  19.963  0.00  0.00    +0.000 A 
ATOM     16  C   UNL     1       3.843   4.746  19.537  0.00  0.00    +0.000 A 
ATOM     17  H   UNL     1       6.229   6.428  17.905  0.00  0.00    +0.000 HD
ATOM     18  H   UNL     1       4.946   7.152  18.731  0.00  0.00    +0.000 HD
ATOM     19  H   UNL     1       5.826   2.239  19.380  0.00  0.00    +0.000 HD
ENDBRANCH   1  15
BRANCH   4  20
ATOM     20  C   UNL     1       1.018  10.788  18.647  0.00  0.00    +0.000 C 
ATOM     21  O   UNL     1      -0.134  11.052  18.313  0.00  0.00    +0.000 OA
ATOM     22  N   UNL     1       1.983  11.765  18.795  0.00  0.00    +0.000 N 
ATOM     23  H   UNL     1       2.885  11.554  19.189  0.00  0.00    +0.000 HD
BRANCH  22  24
ATOM     24  C   UNL     1       1.683  13.170  18.574  0.00  0.00    +0.000 C 
BRANCH  24  25
ATOM     25  C   UNL     1       1.444  13.924  19.883  0.00  0.00    +0.000 C 
BRANCH  25  26
ATOM     26  N   UNL     1       0.091  13.761  20.381  0.00  0.00    +0.000 N 
ATOM     27  C   UNL     1      -0.230  12.789  21.300  0.00  0.00    +0.000 C 
ATOM     28  O   UNL     1       0.580  11.990  21.757  0.00  0.00    +0.000 OA
ATOM     29  H   UNL     1      -0.554  14.520  20.211  0.00  0.00    +0.000 HD
BRANCH  27  30
ATOM     30  C   UNL     1      -1.650  12.769  21.761  0.00  0.00    +0.000 A 
ATOM     31  C   UNL     1      -1.985  12.494  23.096  0.00  0.00    +0.000 A 
ATOM     32  C   UNL     1      -3.328  12.464  23.486  0.00  0.00    +0.000 A 
ATOM     33  C   UNL     1      -4.321  12.716  22.546  0.00  0.00    +0.000 A 
ATOM     34  F   UNL     1      -5.607  12.675  22.922  0.00  0.00    +0.000 F 
ATOM     35  C   UNL     1      -4.002  13.016  21.227  0.00  0.00    +0.000 A 
ATOM     36  C   UNL     1      -2.661  13.047  20.833  0.00  0.00    +0.000 A 
ENDBRANCH  27  30
ENDBRANCH  25  26
ENDBRANCH  24  25
ENDBRANCH  22  24
ENDBRANCH   4  20
TORSDOF 6
ENDMDL
MODEL 9
REMARK VINA RESULT:      -8.6      1.203      1.579
REMARK  Name = 
REMARK  6 active torsions:
REMARK  status: ('A' for Active; 'I' for Inactive)
REMARK    1  A    between atoms: C_9  and  C_10
REMARK    2  A    between atoms: C_13  and  C_14
REMARK    3  A    between atoms: N_16  and  C_17
REMARK    4  A    between atoms: C_17  and  C_18
REMARK    5  A    between atoms: C_18  and  N_19
REMARK    6  A    between atoms: C_20  and  C_22
REMARK                            x       y       z     vdW  Elec       q    Type
REMARK                         _______ _______ _______ _____ _____    ______ ____
ROOT
ATOM      1  C   UNL     1       2.384   6.672  18.967  0.00  0.00    +0.000 A 
ATOM      2  C   UNL     1       2.065   6.627  20.338  0.00  0.00    +0.000 A 
ATOM      3  C   UNL     1       1.510   7.730  21.004  0.00  0.00    +0.000 A 
ATOM      4  C   UNL     1       1.286   8.935  20.328  0.00  0.00    +0.000 A 
ATOM      5  C   UNL     1       1.571   8.988  18.962  0.00  0.00    +0.000 A 
ATOM      6  C   UNL     1       2.074   7.861  18.295  0.00  0.00    +0.000 A 
ENDROOT
BRANCH   1  15
ATOM      7  N   UNL     1       0.598   3.995  20.056  0.00  0.00    +0.000 N 
ATOM      8  C   UNL     1       1.539   3.456  19.264  0.00  0.00    +0.000 A 
ATOM      9  N   UNL     1       1.604   2.136  19.119  0.00  0.00    +0.000 NA
ATOM     10  N   UNL     1       2.597   1.962  18.245  0.00  0.00    +0.000 N 
ATOM     11  C   UNL     1       3.183   3.121  17.817  0.00  0.00    +0.000 A 
ATOM     12  C   UNL     1       4.219   3.311  16.899  0.00  0.00    +0.000 A 
ATOM     13  C   UNL     1       4.627   4.618  16.665  0.00  0.00    +0.000 A 
ATOM     14  C   UNL     1       4.025   5.680  17.339  0.00  0.00    +0.000 A 
ATOM     15  C   UNL     1       2.970   5.501  18.273  0.00  0.00    +0.000 A 
ATOM     16  C   UNL     1       2.533   4.156  18.497  0.00  0.00    +0.000 A 
ATOM     17  H   UNL     1      -0.105   3.344  20.385  0.00  0.00    +0.000 HD
ATOM     18  H   UNL     1       0.212   4.899  19.809  0.00  0.00    +0.000 HD
ATOM     19  H   UNL     1       2.831   1.015  17.969  0.00  0.00    +0.000 HD
ENDBRANCH   1  15
BRANCH   4  20
ATOM     20  C   UNL     1       0.736  10.091  21.104  0.00  0.00    +0.000 C 
ATOM     21  O   UNL     1       1.395  11.121  21.226  0.00  0.00    +0.000 OA
ATOM     22  N   UNL     1      -0.526   9.958  21.648  0.00  0.00    +0.000 N 
ATOM     23  H   UNL     1      -1.106   9.161  21.437  0.00  0.00    +0.000 HD
BRANCH  22  24
ATOM     24  C   UNL     1      -1.155  11.039  22.389  0.00  0.00    +0.000 C 
BRANCH  24  25
ATOM     25  C   UNL     1      -1.574  12.196  21.482  0.00  0.00    +0.000 C 
BRANCH  25  26
ATOM     26  N   UNL     1      -2.205  11.743  20.256  0.00  0.00    +0.000 N 
ATOM     27  C   UNL     1      -1.612  11.921  19.027  0.00  0.00    +0.000 C 
ATOM     28  O   UNL     1      -0.530  12.475  18.868  0.00  0.00    +0.000 OA
ATOM     29  H   UNL     1      -2.976  11.096  20.349  0.00  0.00    +0.000 HD
BRANCH  27  30
ATOM     30  C   UNL     1      -2.352  11.361  17.857  0.00  0.00    +0.000 A 
ATOM     31  C   UNL     1      -3.675  11.736  17.577  0.00  0.00    +0.000 A 
ATOM     32  C   UNL     1      -4.343  11.174  16.484  0.00  0.00    +0.000 A 
ATOM     33  C   UNL     1      -3.684  10.252  15.679  0.00  0.00    +0.000 A 
ATOM     34  F   UNL     1      -4.331   9.707  14.639  0.00  0.00    +0.000 F 
ATOM     35  C   UNL     1      -2.365   9.892  15.929  0.00  0.00    +0.000 A 
ATOM     36  C   UNL     1      -1.694  10.452  17.020  0.00  0.00    +0.000 A 
ENDBRANCH  27  30
ENDBRANCH  25  26
ENDBRANCH  24  25
ENDBRANCH  22  24
ENDBRANCH   4  20
TORSDOF 6
ENDMDL
