MODEL 1
REMARK VINA RESULT:      -8.5      0.000      0.000
REMARK  Name = 
REMARK  11 active torsions:
REMARK  status: ('A' for Active; 'I' for Inactive)
REMARK    1  A    between atoms: C_1  and  C_2
REMARK    2  A    between atoms: C_2  and  C_3
REMARK    3  A    between atoms: C_3  and  C_4
REMARK    4  A    between atoms: C_3  and  C_5
REMARK    5  A    between atoms: C_5  and  C_6
REMARK    6  A    between atoms: C_5  and  N_14
REMARK    7  A    between atoms: C_7  and  C_8
REMARK    8  A    between atoms: C_15  and  C_17
REMARK    9  A    between atoms: N_22  and  C_23
REMARK   10  A    between atoms: C_23  and  C_24
REMARK   11  A    between atoms: C_24  and  C_26
REMARK                            x       y       z     vdW  Elec       q    Type
REMARK                         _______ _______ _______ _____ _____    ______ ____
ROOT
ATOM      1  N   UNL     1       4.794   5.176  17.896  0.00  0.00    +0.000 N 
ATOM      2  C   UNL     1       4.593   4.905  19.233  0.00  0.00    +0.000 C 
ATOM      3  O   UNL     1       5.384   5.243  20.119  0.00  0.00    +0.000 OA
ATOM      4  H   UNL     1       3.985   5.022  17.299  0.00  0.00    +0.000 HD
ENDROOT
BRANCH   2   5
ATOM      5  C   UNL     1       3.334   4.053  19.554  0.00  0.00    +0.000 C 
ATOM      6  C   UNL     1       3.316   2.857  18.590  0.00  0.00    +0.000 C 
ATOM      7  C   UNL     1       2.105   1.958  18.807  0.00  0.00    +0.000 C 
ATOM      8  C   UNL     1       0.830   2.781  18.773  0.00  0.00    +0.000 C 
ATOM      9  C   UNL     1       0.917   3.934  19.767  0.00  0.00    +0.000 C 
ATOM     10  N   UNL     1       2.052   4.835  19.448  0.00  0.00    +0.000 NA
BRANCH  10  11
ATOM     11  C   UNL     1       2.054   5.967  20.405  0.00  0.00    +0.000 C 
BRANCH  11  12
ATOM     12  C   UNL     1       2.055   7.353  19.737  0.00  0.00    +0.000 C 
ATOM     13  O   UNL     1       2.612   7.623  18.676  0.00  0.00    +0.000 OA
BRANCH  12  14
ATOM     14  C   UNL     1       1.331   8.444  20.456  0.00  0.00    +0.000 A 
ATOM     15  C   UNL     1       1.094   8.370  21.831  0.00  0.00    +0.000 A 
ATOM     16  C   UNL     1       0.406   9.400  22.477  0.00  0.00    +0.000 A 
ATOM     17  C   UNL     1      -0.039  10.501  21.750  0.00  0.00    +0.000 A 
ATOM     18 CL   UNL     1      -0.893  11.756  22.557  0.00  0.00    +0.000 Cl
ATOM     19  C   UNL     1       0.201  10.586  20.381  0.00  0.00    +0.000 A 
ATOM     20  C   UNL     1       0.883   9.559  19.732  0.00  0.00    +0.000 A 
ENDBRANCH  12  14
ENDBRANCH  11  12
ENDBRANCH  10  11
ENDBRANCH   2   5
BRANCH   1  21
ATOM     21  C   UNL     1       5.882   6.011  17.411  0.00  0.00    +0.000 C 
BRANCH  21  22
ATOM     22  C   UNL     1       7.148   5.917  18.303  0.00  0.00    +0.000 C 
ATOM     23  C   UNL     1       7.966   4.643  18.029  0.00  0.00    +0.000 C 
BRANCH  22  25
ATOM     24  C   UNL     1       7.443   8.405  17.617  0.00  0.00    +0.000 C 
ATOM     25  C   UNL     1       8.066   7.156  18.222  0.00  0.00    +0.000 C 
ENDBRANCH  22  25
ENDBRANCH  21  22
BRANCH  21  26
ATOM     26  C   UNL     1       6.161   5.613  15.977  0.00  0.00    +0.000 C 
ATOM     27  C   UNL     1       5.569   4.615  15.296  0.00  0.00    +0.000 C 
BRANCH  27  28
ATOM     28  C   UNL     1       5.928   4.247  13.919  0.00  0.00    +0.000 A 
ATOM     29  C   UNL     1       5.072   3.419  13.180  0.00  0.00    +0.000 A 
ATOM     30  C   UNL     1       5.408   3.033  11.878  0.00  0.00    +0.000 A 
ATOM     31  C   UNL     1       6.592   3.484  11.298  0.00  0.00    +0.000 A 
ATOM     32  C   UNL     1       7.433   4.333  12.009  0.00  0.00    +0.000 A 
ATOM     33  C   UNL     1       7.096   4.721  13.307  0.00  0.00    +0.000 A 
ENDBRANCH  27  28
ENDBRANCH  21  26
ENDBRANCH   1  21
TORSDOF 9
ENDMDL
MODEL 2
REMARK VINA RESULT:      -8.2      0.773      1.236
REMARK  Name = 
REMARK  11 active torsions:
REMARK  status: ('A' for Active; 'I' for Inactive)
REMARK    1  A    between atoms: C_1  and  C_2
REMARK    2  A    between atoms: C_2  and  C_3
REMARK    3  A    between atoms: C_3  and  C_4
REMARK    4  A    between atoms: C_3  and  C_5
REMARK    5  A    between atoms: C_5  and  C_6
REMARK    6  A    between atoms: C_5  and  N_14
REMARK    7  A    between atoms: C_7  and  C_8
REMARK    8  A    between atoms: C_15  and  C_17
REMARK    9  A    between atoms: N_22  and  C_23
REMARK   10  A    between atoms: C_23  and  C_24
REMARK   11  A    between atoms: C_24  and  C_26
REMARK                            x       y       z     vdW  Elec       q    Type
REMARK                         _______ _______ _______ _____ _____    ______ ____
ROOT
ATOM      1  N   UNL     1       4.333   4.790  17.550  0.00  0.00    +0.000 N 
ATOM      2  C   UNL     1       4.557   4.351  18.838  0.00  0.00    +0.000 C 
ATOM      3  O   UNL     1       5.678   4.312  19.355  0.00  0.00    +0.000 OA
ATOM      4  H   UNL     1       3.357   4.957  17.316  0.00  0.00    +0.000 HD
ENDROOT
BRANCH   2   5
ATOM      5  C   UNL     1       3.304   3.812  19.582  0.00  0.00    +0.000 C 
ATOM      6  C   UNL     1       2.900   2.484  18.926  0.00  0.00    +0.000 C 
ATOM      7  C   UNL     1       1.663   1.872  19.571  0.00  0.00    +0.000 C 
ATOM      8  C   UNL     1       0.538   2.891  19.614  0.00  0.00    +0.000 C 
ATOM      9  C   UNL     1       1.009   4.171  20.295  0.00  0.00    +0.000 C 
ATOM     10  N   UNL     1       2.150   4.780  19.567  0.00  0.00    +0.000 NA
BRANCH  10  11
ATOM     11  C   UNL     1       2.527   6.049  20.234  0.00  0.00    +0.000 C 
BRANCH  11  12
ATOM     12  C   UNL     1       2.233   7.307  19.399  0.00  0.00    +0.000 C 
ATOM     13  O   UNL     1       2.577   7.475  18.233  0.00  0.00    +0.000 OA
BRANCH  12  14
ATOM     14  C   UNL     1       1.483   8.404  20.083  0.00  0.00    +0.000 A 
ATOM     15  C   UNL     1       1.148   9.580  19.409  0.00  0.00    +0.000 A 
ATOM     16  C   UNL     1       0.454  10.593  20.074  0.00  0.00    +0.000 A 
ATOM     17  C   UNL     1       0.095  10.428  21.409  0.00  0.00    +0.000 A 
ATOM     18 CL   UNL     1      -0.749  11.688  22.218  0.00  0.00    +0.000 Cl
ATOM     19  C   UNL     1       0.418   9.255  22.087  0.00  0.00    +0.000 A 
ATOM     20  C   UNL     1       1.113   8.244  21.427  0.00  0.00    +0.000 A 
ENDBRANCH  12  14
ENDBRANCH  11  12
ENDBRANCH  10  11
ENDBRANCH   2   5
BRANCH   1  21
ATOM     21  C   UNL     1       5.370   5.385  16.724  0.00  0.00    +0.000 C 
BRANCH  21  22
ATOM     22  C   UNL     1       6.690   5.622  17.504  0.00  0.00    +0.000 C 
ATOM     23  C   UNL     1       7.757   4.559  17.190  0.00  0.00    +0.000 C 
BRANCH  22  25
ATOM     24  C   UNL     1       8.178   7.534  18.440  0.00  0.00    +0.000 C 
ATOM     25  C   UNL     1       7.287   7.033  17.314  0.00  0.00    +0.000 C 
ENDBRANCH  22  25
ENDBRANCH  21  22
BRANCH  21  26
ATOM     26  C   UNL     1       5.570   4.486  15.521  0.00  0.00    +0.000 C 
ATOM     27  C   UNL     1       5.654   4.878  14.236  0.00  0.00    +0.000 C 
BRANCH  27  28
ATOM     28  C   UNL     1       5.795   3.944  13.110  0.00  0.00    +0.000 A 
ATOM     29  C   UNL     1       4.649   3.480  12.451  0.00  0.00    +0.000 A 
ATOM     30  C   UNL     1       4.759   2.568  11.395  0.00  0.00    +0.000 A 
ATOM     31  C   UNL     1       6.014   2.126  10.980  0.00  0.00    +0.000 A 
ATOM     32  C   UNL     1       7.160   2.606  11.605  0.00  0.00    +0.000 A 
ATOM     33  C   UNL     1       7.051   3.518  12.656  0.00  0.00    +0.000 A 
ENDBRANCH  27  28
ENDBRANCH  21  26
ENDBRANCH   1  21
TORSDOF 9
ENDMDL
MODEL 3
REMARK VINA RESULT:      -8.2      0.499      1.001
REMARK  Name = 
REMARK  11 active torsions:
REMARK  status: ('A' for Active; 'I' for Inactive)
REMARK    1  A    between atoms: C_1  and  C_2
REMARK    2  A    between atoms: C_2  and  C_3
REMARK    3  A    between atoms: C_3  and  C_4
REMARK    4  A    between atoms: C_3  and  C_5
REMARK    5  A    between atoms: C_5  and  C_6
REMARK    6  A    between atoms: C_5  and  N_14
REMARK    7  A    between atoms: C_7  and  C_8
REMARK    8  A    between atoms: C_15  and  C_17
REMARK    9  A    between atoms: N_22  and  C_23
REMARK   10  A    between atoms: C_23  and  C_24
REMARK   11  A    between atoms: C_24  and  C_26
REMARK                            x       y       z     vdW  Elec       q    Type
REMARK                         _______ _______ _______ _____ _____    ______ ____
ROOT
ATOM      1  N   UNL     1       4.414   5.480  17.641  0.00  0.00    +0.000 N 
ATOM      2  C   UNL     1       4.464   5.172  18.985  0.00  0.00    +0.000 C 
ATOM      3  O   UNL     1       5.395   5.510  19.723  0.00  0.00    +0.000 OA
ATOM      4  H   UNL     1       3.514   5.318  17.196  0.00  0.00    +0.000 HD
ENDROOT
BRANCH   2   5
ATOM      5  C   UNL     1       3.302   4.280  19.503  0.00  0.00    +0.000 C 
ATOM      6  C   UNL     1       3.185   3.067  18.568  0.00  0.00    +0.000 C 
ATOM      7  C   UNL     1       2.057   2.128  18.978  0.00  0.00    +0.000 C 
ATOM      8  C   UNL     1       0.760   2.903  19.127  0.00  0.00    +0.000 C 
ATOM      9  C   UNL     1       0.951   4.076  20.082  0.00  0.00    +0.000 C 
ATOM     10  N   UNL     1       1.989   5.013  19.584  0.00  0.00    +0.000 NA
BRANCH  10  11
ATOM     11  C   UNL     1       2.091   6.161  20.515  0.00  0.00    +0.000 C 
BRANCH  11  12
ATOM     12  C   UNL     1       1.941   7.534  19.837  0.00  0.00    +0.000 C 
ATOM     13  O   UNL     1       2.430   7.841  18.753  0.00  0.00    +0.000 OA
BRANCH  12  14
ATOM     14  C   UNL     1       1.149   8.563  20.575  0.00  0.00    +0.000 A 
ATOM     15  C   UNL     1       0.508   8.256  21.778  0.00  0.00    +0.000 A 
ATOM     16  C   UNL     1      -0.234   9.235  22.443  0.00  0.00    +0.000 A 
ATOM     17  C   UNL     1      -0.332  10.517  21.908  0.00  0.00    +0.000 A 
ATOM     18 CL   UNL     1      -1.257  11.708  22.732  0.00  0.00    +0.000 Cl
ATOM     19  C   UNL     1       0.311  10.833  20.713  0.00  0.00    +0.000 A 
ATOM     20  C   UNL     1       1.049   9.858  20.045  0.00  0.00    +0.000 A 
ENDBRANCH  12  14
ENDBRANCH  11  12
ENDBRANCH  10  11
ENDBRANCH   2   5
BRANCH   1  21
ATOM     21  C   UNL     1       5.378   6.354  16.992  0.00  0.00    +0.000 C 
BRANCH  21  22
ATOM     22  C   UNL     1       6.704   6.473  17.788  0.00  0.00    +0.000 C 
ATOM     23  C   UNL     1       7.585   5.219  17.652  0.00  0.00    +0.000 C 
BRANCH  22  25
ATOM     24  C   UNL     1       8.451   8.240  18.545  0.00  0.00    +0.000 C 
ATOM     25  C   UNL     1       7.530   7.732  17.446  0.00  0.00    +0.000 C 
ENDBRANCH  22  25
ENDBRANCH  21  22
BRANCH  21  26
ATOM     26  C   UNL     1       5.598   5.830  15.588  0.00  0.00    +0.000 C 
ATOM     27  C   UNL     1       5.487   4.551  15.187  0.00  0.00    +0.000 C 
BRANCH  27  28
ATOM     28  C   UNL     1       5.768   4.103  13.815  0.00  0.00    +0.000 A 
ATOM     29  C   UNL     1       7.030   4.343  13.256  0.00  0.00    +0.000 A 
ATOM     30  C   UNL     1       7.309   3.951  11.942  0.00  0.00    +0.000 A 
ATOM     31  C   UNL     1       6.337   3.302  11.184  0.00  0.00    +0.000 A 
ATOM     32  C   UNL     1       5.092   3.027  11.740  0.00  0.00    +0.000 A 
ATOM     33  C   UNL     1       4.814   3.416  13.052  0.00  0.00    +0.000 A 
ENDBRANCH  27  28
ENDBRANCH  21  26
ENDBRANCH   1  21
TORSDOF 9
ENDMDL
MODEL 4
REMARK VINA RESULT:      -8.2      1.022      1.722
REMARK  Name = 
REMARK  11 active torsions:
REMARK  status: ('A' for Active; 'I' for Inactive)
REMARK    1  A    between atoms: C_1  and  C_2
REMARK    2  A    between atoms: C_2  and  C_3
REMARK    3  A    between atoms: C_3  and  C_4
REMARK    4  A    between atoms: C_3  and  C_5
REMARK    5  A    between atoms: C_5  and  C_6
REMARK    6  A    between atoms: C_5  and  N_14
REMARK    7  A    between atoms: C_7  and  C_8
REMARK    8  A    between atoms: C_15  and  C_17
REMARK    9  A    between atoms: N_22  and  C_23
REMARK   10  A    between atoms: C_23  and  C_24
REMARK   11  A    between atoms: C_24  and  C_26
REMARK                            x       y       z     vdW  Elec       q    Type
REMARK                         _______ _______ _______ _____ _____    ______ ____
ROOT
ATOM      1  N   UNL     1       4.962   4.845  17.286  0.00  0.00    +0.000 N 
ATOM      2  C   UNL     1       4.238   5.637  18.152  0.00  0.00    +0.000 C 
ATOM      3  O   UNL     1       4.353   6.866  18.203  0.00  0.00    +0.000 OA
ATOM      4  H   UNL     1       4.636   3.885  17.205  0.00  0.00    +0.000 HD
ENDROOT
BRANCH   2   5
ATOM      5  C   UNL     1       3.318   4.869  19.140  0.00  0.00    +0.000 C 
ATOM      6  C   UNL     1       2.982   3.508  18.511  0.00  0.00    +0.000 C 
ATOM      7  C   UNL     1       2.063   2.673  19.395  0.00  0.00    +0.000 C 
ATOM      8  C   UNL     1       0.837   3.479  19.784  0.00  0.00    +0.000 C 
ATOM      9  C   UNL     1       1.252   4.802  20.417  0.00  0.00    +0.000 C 
ATOM     10  N   UNL     1       2.057   5.620  19.477  0.00  0.00    +0.000 NA
BRANCH  10  11
ATOM     11  C   UNL     1       2.381   6.917  20.118  0.00  0.00    +0.000 C 
BRANCH  11  12
ATOM     12  C   UNL     1       1.682   8.127  19.475  0.00  0.00    +0.000 C 
ATOM     13  O   UNL     1       1.750   8.430  18.288  0.00  0.00    +0.000 OA
BRANCH  12  14
ATOM     14  C   UNL     1       0.876   8.995  20.384  0.00  0.00    +0.000 A 
ATOM     15  C   UNL     1       0.383  10.230  19.956  0.00  0.00    +0.000 A 
ATOM     16  C   UNL     1      -0.361  11.026  20.829  0.00  0.00    +0.000 A 
ATOM     17  C   UNL     1      -0.613  10.587  22.126  0.00  0.00    +0.000 A 
ATOM     18 CL   UNL     1      -1.521  11.583  23.193  0.00  0.00    +0.000 Cl
ATOM     19  C   UNL     1      -0.133   9.354  22.559  0.00  0.00    +0.000 A 
ATOM     20  C   UNL     1       0.613   8.558  21.692  0.00  0.00    +0.000 A 
ENDBRANCH  12  14
ENDBRANCH  11  12
ENDBRANCH  10  11
ENDBRANCH   2   5
BRANCH   1  21
ATOM     21  C   UNL     1       5.826   5.388  16.250  0.00  0.00    +0.000 C 
BRANCH  21  22
ATOM     22  C   UNL     1       7.251   5.712  16.771  0.00  0.00    +0.000 C 
ATOM     23  C   UNL     1       7.450   7.212  17.043  0.00  0.00    +0.000 C 
BRANCH  22  25
ATOM     24  C   UNL     1       7.896   5.696  19.287  0.00  0.00    +0.000 C 
ATOM     25  C   UNL     1       7.664   4.895  18.015  0.00  0.00    +0.000 C 
ENDBRANCH  22  25
ENDBRANCH  21  22
BRANCH  21  26
ATOM     26  C   UNL     1       5.848   4.395  15.106  0.00  0.00    +0.000 C 
ATOM     27  C   UNL     1       6.249   4.639  13.845  0.00  0.00    +0.000 C 
BRANCH  27  28
ATOM     28  C   UNL     1       6.194   3.640  12.768  0.00  0.00    +0.000 A 
ATOM     29  C   UNL     1       4.950   3.210  12.288  0.00  0.00    +0.000 A 
ATOM     30  C   UNL     1       4.874   2.238  11.284  0.00  0.00    +0.000 A 
ATOM     31  C   UNL     1       6.039   1.702  10.740  0.00  0.00    +0.000 A 
ATOM     32  C   UNL     1       7.280   2.147  11.184  0.00  0.00    +0.000 A 
ATOM     33  C   UNL     1       7.356   3.118  12.184  0.00  0.00    +0.000 A 
ENDBRANCH  27  28
ENDBRANCH  21  26
ENDBRANCH   1  21
TORSDOF 9
ENDMDL
MODEL 5
REMARK VINA RESULT:      -8.1      1.481      4.427
REMARK  Name = 
REMARK  11 active torsions:
REMARK  status: ('A' for Active; 'I' for Inactive)
REMARK    1  A    between atoms: C_1  and  C_2
REMARK    2  A    between atoms: C_2  and  C_3
REMARK    3  A    between atoms: C_3  and  C_4
REMARK    4  A    between atoms: C_3  and  C_5
REMARK    5  A    between atoms: C_5  and  C_6
REMARK    6  A    between atoms: C_5  and  N_14
REMARK    7  A    between atoms: C_7  and  C_8
REMARK    8  A    between atoms: C_15  and  C_17
REMARK    9  A    between atoms: N_22  and  C_23
REMARK   10  A    between atoms: C_23  and  C_24
REMARK   11  A    between atoms: C_24  and  C_26
REMARK                            x       y       z     vdW  Elec       q    Type
REMARK                         _______ _______ _______ _____ _____    ______ ____
ROOT
ATOM      1  N   UNL     1       4.764   5.233  17.944  0.00  0.00    +0.000 N 
ATOM      2  C   UNL     1       4.910   4.569  19.144  0.00  0.00    +0.000 C 
ATOM      3  O   UNL     1       5.977   4.070  19.516  0.00  0.00    +0.000 OA
ATOM      4  H   UNL     1       3.900   5.761  17.847  0.00  0.00    +0.000 HD
ENDROOT
BRANCH   2   5
ATOM      5  C   UNL     1       3.607   4.405  19.973  0.00  0.00    +0.000 C 
ATOM      6  C   UNL     1       3.123   2.956  19.809  0.00  0.00    +0.000 C 
ATOM      7  C   UNL     1       1.832   2.687  20.573  0.00  0.00    +0.000 C 
ATOM      8  C   UNL     1       0.782   3.720  20.204  0.00  0.00    +0.000 C 
ATOM      9  C   UNL     1       1.328   5.128  20.410  0.00  0.00    +0.000 C 
ATOM     10  N   UNL     1       2.525   5.370  19.566  0.00  0.00    +0.000 NA
BRANCH  10  11
ATOM     11  C   UNL     1       2.978   6.768  19.759  0.00  0.00    +0.000 C 
BRANCH  11  12
ATOM     12  C   UNL     1       2.467   7.746  18.688  0.00  0.00    +0.000 C 
ATOM     13  O   UNL     1       2.828   7.759  17.515  0.00  0.00    +0.000 OA
BRANCH  12  14
ATOM     14  C   UNL     1       1.464   8.762  19.132  0.00  0.00    +0.000 A 
ATOM     15  C   UNL     1       1.084   8.865  20.472  0.00  0.00    +0.000 A 
ATOM     16  C   UNL     1       0.138   9.817  20.858  0.00  0.00    +0.000 A 
ATOM     17  C   UNL     1      -0.424  10.664  19.907  0.00  0.00    +0.000 A 
ATOM     18 CL   UNL     1      -1.595  11.824  20.395  0.00  0.00    +0.000 Cl
ATOM     19  C   UNL     1      -0.045  10.573  18.569  0.00  0.00    +0.000 A 
ATOM     20  C   UNL     1       0.896   9.622  18.180  0.00  0.00    +0.000 A 
ENDBRANCH  12  14
ENDBRANCH  11  12
ENDBRANCH  10  11
ENDBRANCH   2   5
BRANCH   1  21
ATOM     21  C   UNL     1       5.881   5.537  17.065  0.00  0.00    +0.000 C 
BRANCH  21  22
ATOM     22  C   UNL     1       5.500   5.446  15.564  0.00  0.00    +0.000 C 
ATOM     23  C   UNL     1       5.064   6.803  14.985  0.00  0.00    +0.000 C 
BRANCH  22  25
ATOM     24  C   UNL     1       6.116   3.899  13.571  0.00  0.00    +0.000 C 
ATOM     25  C   UNL     1       6.600   4.827  14.674  0.00  0.00    +0.000 C 
ENDBRANCH  22  25
ENDBRANCH  21  22
BRANCH  21  26
ATOM     26  C   UNL     1       6.399   6.910  17.441  0.00  0.00    +0.000 C 
ATOM     27  C   UNL     1       7.689   7.265  17.588  0.00  0.00    +0.000 C 
BRANCH  27  28
ATOM     28  C   UNL     1       8.120   8.605  18.008  0.00  0.00    +0.000 A 
ATOM     29  C   UNL     1       7.679   9.728  17.294  0.00  0.00    +0.000 A 
ATOM     30  C   UNL     1       8.100  11.011  17.659  0.00  0.00    +0.000 A 
ATOM     31  C   UNL     1       8.952  11.184  18.748  0.00  0.00    +0.000 A 
ATOM     32  C   UNL     1       9.369  10.081  19.485  0.00  0.00    +0.000 A 
ATOM     33  C   UNL     1       8.946   8.801  19.123  0.00  0.00    +0.000 A 
ENDBRANCH  27  28
ENDBRANCH  21  26
ENDBRANCH   1  21
TORSDOF 9
ENDMDL
MODEL 6
REMARK VINA RESULT:      -8.1      1.177      1.903
REMARK  Name = 
REMARK  11 active torsions:
REMARK  status: ('A' for Active; 'I' for Inactive)
REMARK    1  A    between atoms: C_1  and  C_2
REMARK    2  A    between atoms: C_2  and  C_3
REMARK    3  A    between atoms: C_3  and  C_4
REMARK    4  A    between atoms: C_3  and  C_5
REMARK    5  A    between atoms: C_5  and  C_6
REMARK    6  A    between atoms: C_5  and  N_14
REMARK    7  A    between atoms: C_7  and  C_8
REMARK    8  A    between atoms: C_15  and  C_17
REMARK    9  A    between atoms: N_22  and  C_23
REMARK   10  A    between atoms: C_23  and  C_24
REMARK   11  A    between atoms: C_24  and  C_26
REMARK                            x       y       z     vdW  Elec       q    Type
REMARK                         _______ _______ _______ _____ _____    ______ ____
ROOT
ATOM      1  N   UNL     1       4.963   5.272  17.658  0.00  0.00    +0.000 N 
ATOM      2  C   UNL     1       3.871   4.458  17.443  0.00  0.00    +0.000 C 
ATOM      3  O   UNL     1       3.444   4.181  16.317  0.00  0.00    +0.000 OA
ATOM      4  H   UNL     1       5.328   5.261  18.607  0.00  0.00    +0.000 HD
ENDROOT
BRANCH   2   5
ATOM      5  C   UNL     1       3.143   3.974  18.727  0.00  0.00    +0.000 C 
ATOM      6  C   UNL     1       2.424   2.658  18.395  0.00  0.00    +0.000 C 
ATOM      7  C   UNL     1       1.658   2.100  19.588  0.00  0.00    +0.000 C 
ATOM      8  C   UNL     1       0.738   3.162  20.162  0.00  0.00    +0.000 C 
ATOM      9  C   UNL     1       1.525   4.428  20.483  0.00  0.00    +0.000 C 
ATOM     10  N   UNL     1       2.167   4.986  19.267  0.00  0.00    +0.000 NA
BRANCH  10  11
ATOM     11  C   UNL     1       2.866   6.244  19.622  0.00  0.00    +0.000 C 
BRANCH  11  12
ATOM     12  C   UNL     1       2.281   7.498  18.952  0.00  0.00    +0.000 C 
ATOM     13  O   UNL     1       2.410   7.788  17.766  0.00  0.00    +0.000 OA
BRANCH  12  14
ATOM     14  C   UNL     1       1.512   8.430  19.830  0.00  0.00    +0.000 A 
ATOM     15  C   UNL     1       0.976   9.619  19.329  0.00  0.00    +0.000 A 
ATOM     16  C   UNL     1       0.269  10.477  20.175  0.00  0.00    +0.000 A 
ATOM     17  C   UNL     1       0.097  10.145  21.516  0.00  0.00    +0.000 A 
ATOM     18 CL   UNL     1      -0.767  11.216  22.547  0.00  0.00    +0.000 Cl
ATOM     19  C   UNL     1       0.621   8.958  22.022  0.00  0.00    +0.000 A 
ATOM     20  C   UNL     1       1.330   8.101  21.182  0.00  0.00    +0.000 A 
ENDBRANCH  12  14
ENDBRANCH  11  12
ENDBRANCH  10  11
ENDBRANCH   2   5
BRANCH   1  21
ATOM     21  C   UNL     1       5.805   5.769  16.582  0.00  0.00    +0.000 C 
BRANCH  21  22
ATOM     22  C   UNL     1       7.263   6.035  17.041  0.00  0.00    +0.000 C 
ATOM     23  C   UNL     1       7.489   7.496  17.465  0.00  0.00    +0.000 C 
BRANCH  22  25
ATOM     24  C   UNL     1       7.957   5.717  19.524  0.00  0.00    +0.000 C 
ATOM     25  C   UNL     1       7.752   5.085  18.156  0.00  0.00    +0.000 C 
ENDBRANCH  22  25
ENDBRANCH  21  22
BRANCH  21  26
ATOM     26  C   UNL     1       5.737   4.767  15.448  0.00  0.00    +0.000 C 
ATOM     27  C   UNL     1       6.113   4.978  14.173  0.00  0.00    +0.000 C 
BRANCH  27  28
ATOM     28  C   UNL     1       5.970   3.975  13.108  0.00  0.00    +0.000 A 
ATOM     29  C   UNL     1       7.110   3.335  12.603  0.00  0.00    +0.000 A 
ATOM     30  C   UNL     1       7.000   2.399  11.569  0.00  0.00    +0.000 A 
ATOM     31  C   UNL     1       5.749   2.083  11.043  0.00  0.00    +0.000 A 
ATOM     32  C   UNL     1       4.607   2.686  11.558  0.00  0.00    +0.000 A 
ATOM     33  C   UNL     1       4.717   3.618  12.592  0.00  0.00    +0.000 A 
ENDBRANCH  27  28
ENDBRANCH  21  26
ENDBRANCH   1  21
TORSDOF 9
ENDMDL
MODEL 7
REMARK VINA RESULT:      -7.9      1.512      2.388
REMARK  Name = 
REMARK  11 active torsions:
REMARK  status: ('A' for Active; 'I' for Inactive)
REMARK    1  A    between atoms: C_1  and  C_2
REMARK    2  A    between atoms: C_2  and  C_3
REMARK    3  A    between atoms: C_3  and  C_4
REMARK    4  A    between atoms: C_3  and  C_5
REMARK    5  A    between atoms: C_5  and  C_6
REMARK    6  A    between atoms: C_5  and  N_14
REMARK    7  A    between atoms: C_7  and  C_8
REMARK    8  A    between atoms: C_15  and  C_17
REMARK    9  A    between atoms: N_22  and  C_23
REMARK   10  A    between atoms: C_23  and  C_24
REMARK   11  A    between atoms: C_24  and  C_26
REMARK                            x       y       z     vdW  Elec       q    Type
REMARK                         _______ _______ _______ _____ _____    ______ ____
ROOT
ATOM      1  N   UNL     1       5.112   6.132  18.092  0.00  0.00    +0.000 N 
ATOM      2  C   UNL     1       3.741   6.246  18.192  0.00  0.00    +0.000 C 
ATOM      3  O   UNL     1       3.078   7.050  17.529  0.00  0.00    +0.000 OA
ATOM      4  H   UNL     1       5.509   5.309  18.539  0.00  0.00    +0.000 HD
ENDROOT
BRANCH   2   5
ATOM      5  C   UNL     1       3.079   5.349  19.274  0.00  0.00    +0.000 C 
ATOM      6  C   UNL     1       2.734   4.001  18.623  0.00  0.00    +0.000 C 
ATOM      7  C   UNL     1       2.060   3.043  19.598  0.00  0.00    +0.000 C 
ATOM      8  C   UNL     1       0.871   3.719  20.257  0.00  0.00    +0.000 C 
ATOM      9  C   UNL     1       1.296   5.036  20.895  0.00  0.00    +0.000 C 
ATOM     10  N   UNL     1       1.850   5.970  19.884  0.00  0.00    +0.000 NA
BRANCH  10  11
ATOM     11  C   UNL     1       2.191   7.253  20.545  0.00  0.00    +0.000 C 
BRANCH  11  12
ATOM     12  C   UNL     1       0.975   8.144  20.847  0.00  0.00    +0.000 C 
ATOM     13  O   UNL     1       0.009   7.811  21.529  0.00  0.00    +0.000 OA
BRANCH  12  14
ATOM     14  C   UNL     1       0.979   9.511  20.244  0.00  0.00    +0.000 A 
ATOM     15  C   UNL     1       1.256   9.702  18.888  0.00  0.00    +0.000 A 
ATOM     16  C   UNL     1       1.263  10.991  18.352  0.00  0.00    +0.000 A 
ATOM     17  C   UNL     1       0.991  12.086  19.169  0.00  0.00    +0.000 A 
ATOM     18 CL   UNL     1       1.013  13.668  18.497  0.00  0.00    +0.000 Cl
ATOM     19  C   UNL     1       0.706  11.904  20.520  0.00  0.00    +0.000 A 
ATOM     20  C   UNL     1       0.702  10.619  21.060  0.00  0.00    +0.000 A 
ENDBRANCH  12  14
ENDBRANCH  11  12
ENDBRANCH  10  11
ENDBRANCH   2   5
BRANCH   1  21
ATOM     21  C   UNL     1       5.895   6.844  17.095  0.00  0.00    +0.000 C 
BRANCH  21  22
ATOM     22  C   UNL     1       7.372   7.041  17.528  0.00  0.00    +0.000 C 
ATOM     23  C   UNL     1       7.744   8.525  17.690  0.00  0.00    +0.000 C 
BRANCH  22  25
ATOM     24  C   UNL     1       8.048   4.780  18.614  0.00  0.00    +0.000 C 
ATOM     25  C   UNL     1       7.761   6.262  18.803  0.00  0.00    +0.000 C 
ENDBRANCH  22  25
ENDBRANCH  21  22
BRANCH  21  26
ATOM     26  C   UNL     1       5.779   6.082  15.792  0.00  0.00    +0.000 C 
ATOM     27  C   UNL     1       6.709   5.269  15.256  0.00  0.00    +0.000 C 
BRANCH  27  28
ATOM     28  C   UNL     1       6.551   4.600  13.957  0.00  0.00    +0.000 A 
ATOM     29  C   UNL     1       7.545   4.748  12.979  0.00  0.00    +0.000 A 
ATOM     30  C   UNL     1       7.401   4.144  11.725  0.00  0.00    +0.000 A 
ATOM     31  C   UNL     1       6.274   3.376  11.444  0.00  0.00    +0.000 A 
ATOM     32  C   UNL     1       5.298   3.194  12.418  0.00  0.00    +0.000 A 
ATOM     33  C   UNL     1       5.442   3.793  13.670  0.00  0.00    +0.000 A 
ENDBRANCH  27  28
ENDBRANCH  21  26
ENDBRANCH   1  21
TORSDOF 9
ENDMDL
MODEL 8
REMARK VINA RESULT:      -7.7      0.820      1.201
REMARK  Name = 
REMARK  11 active torsions:
REMARK  status: ('A' for Active; 'I' for Inactive)
REMARK    1  A    between atoms: C_1  and  C_2
REMARK    2  A    between atoms: C_2  and  C_3
REMARK    3  A    between atoms: C_3  and  C_4
REMARK    4  A    between atoms: C_3  and  C_5
REMARK    5  A    between atoms: C_5  and  C_6
REMARK    6  A    between atoms: C_5  and  N_14
REMARK    7  A    between atoms: C_7  and  C_8
REMARK    8  A    between atoms: C_15  and  C_17
REMARK    9  A    between atoms: N_22  and  C_23
REMARK   10  A    between atoms: C_23  and  C_24
REMARK   11  A    between atoms: C_24  and  C_26
REMARK                            x       y       z     vdW  Elec       q    Type
REMARK                         _______ _______ _______ _____ _____    ______ ____
ROOT
ATOM      1  N   UNL     1       4.754   5.547  18.631  0.00  0.00    +0.000 N 
ATOM      2  C   UNL     1       4.379   4.220  18.653  0.00  0.00    +0.000 C 
ATOM      3  O   UNL     1       4.889   3.360  17.927  0.00  0.00    +0.000 OA
ATOM      4  H   UNL     1       4.403   6.106  19.404  0.00  0.00    +0.000 HD
ENDROOT
BRANCH   2   5
ATOM      5  C   UNL     1       3.193   3.882  19.597  0.00  0.00    +0.000 C 
ATOM      6  C   UNL     1       2.592   2.545  19.140  0.00  0.00    +0.000 C 
ATOM      7  C   UNL     1       1.401   2.124  19.994  0.00  0.00    +0.000 C 
ATOM      8  C   UNL     1       0.386   3.251  20.067  0.00  0.00    +0.000 C 
ATOM      9  C   UNL     1       1.053   4.536  20.545  0.00  0.00    +0.000 C 
ATOM     10  N   UNL     1       2.137   4.955  19.622  0.00  0.00    +0.000 NA
BRANCH  10  11
ATOM     11  C   UNL     1       2.709   6.237  20.099  0.00  0.00    +0.000 C 
BRANCH  11  12
ATOM     12  C   UNL     1       2.190   7.474  19.345  0.00  0.00    +0.000 C 
ATOM     13  O   UNL     1       2.382   7.706  18.155  0.00  0.00    +0.000 OA
BRANCH  12  14
ATOM     14  C   UNL     1       1.407   8.465  20.144  0.00  0.00    +0.000 A 
ATOM     15  C   UNL     1       1.210   8.293  21.516  0.00  0.00    +0.000 A 
ATOM     16  C   UNL     1       0.467   9.230  22.237  0.00  0.00    +0.000 A 
ATOM     17  C   UNL     1      -0.076  10.336  21.588  0.00  0.00    +0.000 A 
ATOM     18 CL   UNL     1      -0.997  11.475  22.486  0.00  0.00    +0.000 Cl
ATOM     19  C   UNL     1       0.123  10.519  20.221  0.00  0.00    +0.000 A 
ATOM     20  C   UNL     1       0.861   9.584  19.498  0.00  0.00    +0.000 A 
ENDBRANCH  12  14
ENDBRANCH  11  12
ENDBRANCH  10  11
ENDBRANCH   2   5
BRANCH   1  21
ATOM     21  C   UNL     1       5.883   6.039  17.857  0.00  0.00    +0.000 C 
BRANCH  21  22
ATOM     22  C   UNL     1       7.235   5.861  18.597  0.00  0.00    +0.000 C 
ATOM     23  C   UNL     1       8.015   4.630  18.107  0.00  0.00    +0.000 C 
BRANCH  22  25
ATOM     24  C   UNL     1       7.723   8.201  17.579  0.00  0.00    +0.000 C 
ATOM     25  C   UNL     1       8.144   7.109  18.551  0.00  0.00    +0.000 C 
ENDBRANCH  22  25
ENDBRANCH  21  22
BRANCH  21  26
ATOM     26  C   UNL     1       5.866   5.329  16.519  0.00  0.00    +0.000 C 
ATOM     27  C   UNL     1       6.742   5.500  15.513  0.00  0.00    +0.000 C 
BRANCH  27  28
ATOM     28  C   UNL     1       6.635   4.815  14.217  0.00  0.00    +0.000 A 
ATOM     29  C   UNL     1       7.629   5.010  13.249  0.00  0.00    +0.000 A 
ATOM     30  C   UNL     1       7.532   4.390  11.998  0.00  0.00    +0.000 A 
ATOM     31  C   UNL     1       6.451   3.560  11.711  0.00  0.00    +0.000 A 
ATOM     32  C   UNL     1       5.476   3.332  12.676  0.00  0.00    +0.000 A 
ATOM     33  C   UNL     1       5.574   3.947  13.925  0.00  0.00    +0.000 A 
ENDBRANCH  27  28
ENDBRANCH  21  26
ENDBRANCH   1  21
TORSDOF 9
ENDMDL
MODEL 9
REMARK VINA RESULT:      -7.7      2.642      5.657
REMARK  Name = 
REMARK  11 active torsions:
REMARK  status: ('A' for Active; 'I' for Inactive)
REMARK    1  A    between atoms: C_1  and  C_2
REMARK    2  A    between atoms: C_2  and  C_3
REMARK    3  A    between atoms: C_3  and  C_4
REMARK    4  A    between atoms: C_3  and  C_5
REMARK    5  A    between atoms: C_5  and  C_6
REMARK    6  A    between atoms: C_5  and  N_14
REMARK    7  A    between atoms: C_7  and  C_8
REMARK    8  A    between atoms: C_15  and  C_17
REMARK    9  A    between atoms: N_22  and  C_23
REMARK   10  A    between atoms: C_23  and  C_24
REMARK   11  A    between atoms: C_24  and  C_26
REMARK                            x       y       z     vdW  Elec       q    Type
REMARK                         _______ _______ _______ _____ _____    ______ ____
ROOT
ATOM      1  N   UNL     1       1.847   6.878  19.363  0.00  0.00    +0.000 N 
ATOM      2  C   UNL     1       1.622   7.966  20.180  0.00  0.00    +0.000 C 
ATOM      3  O   UNL     1       1.735   7.925  21.409  0.00  0.00    +0.000 OA
ATOM      4  H   UNL     1       1.913   7.092  18.371  0.00  0.00    +0.000 HD
ENDROOT
BRANCH   2   5
ATOM      5  C   UNL     1       1.121   9.246  19.456  0.00  0.00    +0.000 C 
ATOM      6  C   UNL     1       2.252   9.746  18.545  0.00  0.00    +0.000 C 
ATOM      7  C   UNL     1       1.871  11.016  17.794  0.00  0.00    +0.000 C 
ATOM      8  C   UNL     1       1.369  12.068  18.766  0.00  0.00    +0.000 C 
ATOM      9  C   UNL     1       0.238  11.504  19.619  0.00  0.00    +0.000 C 
ATOM     10  N   UNL     1       0.691  10.331  20.408  0.00  0.00    +0.000 NA
BRANCH  10  11
ATOM     11  C   UNL     1      -0.425   9.861  21.261  0.00  0.00    +0.000 C 
BRANCH  11  12
ATOM     12  C   UNL     1      -0.407  10.434  22.689  0.00  0.00    +0.000 C 
ATOM     13  O   UNL     1       0.188   9.936  23.640  0.00  0.00    +0.000 OA
BRANCH  12  14
ATOM     14  C   UNL     1      -1.193  11.684  22.919  0.00  0.00    +0.000 A 
ATOM     15  C   UNL     1      -0.638  12.942  22.673  0.00  0.00    +0.000 A 
ATOM     16  C   UNL     1      -1.391  14.094  22.906  0.00  0.00    +0.000 A 
ATOM     17  C   UNL     1      -2.697  13.988  23.379  0.00  0.00    +0.000 A 
ATOM     18 CL   UNL     1      -3.608  15.416  23.670  0.00  0.00    +0.000 Cl
ATOM     19  C   UNL     1      -3.260  12.737  23.619  0.00  0.00    +0.000 A 
ATOM     20  C   UNL     1      -2.510  11.585  23.392  0.00  0.00    +0.000 A 
ENDBRANCH  12  14
ENDBRANCH  11  12
ENDBRANCH  10  11
ENDBRANCH   2   5
BRANCH   1  21
ATOM     21  C   UNL     1       2.378   5.616  19.852  0.00  0.00    +0.000 C 
BRANCH  21  22
ATOM     22  C   UNL     1       1.290   4.515  19.960  0.00  0.00    +0.000 C 
ATOM     23  C   UNL     1       1.259   3.595  18.728  0.00  0.00    +0.000 C 
BRANCH  22  25
ATOM     24  C   UNL     1       2.576   2.722  21.331  0.00  0.00    +0.000 C 
ATOM     25  C   UNL     1       1.385   3.664  21.246  0.00  0.00    +0.000 C 
ENDBRANCH  22  25
ENDBRANCH  21  22
BRANCH  21  26
ATOM     26  C   UNL     1       3.512   5.210  18.934  0.00  0.00    +0.000 C 
ATOM     27  C   UNL     1       3.948   5.887  17.856  0.00  0.00    +0.000 C 
BRANCH  27  28
ATOM     28  C   UNL     1       5.023   5.407  16.976  0.00  0.00    +0.000 A 
ATOM     29  C   UNL     1       6.258   6.069  16.971  0.00  0.00    +0.000 A 
ATOM     30  C   UNL     1       7.286   5.647  16.119  0.00  0.00    +0.000 A 
ATOM     31  C   UNL     1       7.093   4.552  15.280  0.00  0.00    +0.000 A 
ATOM     32  C   UNL     1       5.883   3.866  15.301  0.00  0.00    +0.000 A 
ATOM     33  C   UNL     1       4.859   4.285  16.152  0.00  0.00    +0.000 A 
ENDBRANCH  27  28
ENDBRANCH  21  26
ENDBRANCH   1  21
TORSDOF 9
ENDMDL
