MODEL 1
REMARK VINA RESULT:      -8.0      0.000      0.000
REMARK  Name = 
REMARK  6 active torsions:
REMARK  status: ('A' for Active; 'I' for Inactive)
REMARK    1  A    between atoms: C_1  and  S_2
REMARK    2  A    between atoms: S_2  and  N_5
REMARK    3  A    between atoms: C_6  and  C_8
REMARK    4  A    between atoms: C_8  and  O_9
REMARK    5  A    between atoms: O_9  and  C_10
REMARK    6  A    between atoms: C_16  and  C_17
REMARK                            x       y       z     vdW  Elec       q    Type
REMARK                         _______ _______ _______ _____ _____    ______ ____
ROOT
ATOM      1  C   UNL     1       2.461   7.464  18.624  0.00  0.00    +0.000 A 
ATOM      2  C   UNL     1       1.849   8.728  18.605  0.00  0.00    +0.000 A 
ATOM      3  C   UNL     1       1.125   9.187  19.705  0.00  0.00    +0.000 A 
ATOM      4  C   UNL     1       0.993   8.377  20.819  0.00  0.00    +0.000 A 
ATOM      5 CL   UNL     1       0.099   8.923  22.184  0.00  0.00    +0.000 Cl
ATOM      6  C   UNL     1       1.575   7.111  20.838  0.00  0.00    +0.000 A 
ATOM      7  C   UNL     1       2.319   6.620  19.751  0.00  0.00    +0.000 A 
ENDROOT
BRANCH   7   8
ATOM      8  C   UNL     1       2.940   5.217  19.789  0.00  0.00    +0.000 C 
ATOM      9  C   UNL     1       2.462   4.329  20.952  0.00  0.00    +0.000 C 
ATOM     10  C   UNL     1       1.094   3.680  20.754  0.00  0.00    +0.000 C 
ATOM     11  C   UNL     1       0.899   3.053  19.374  0.00  0.00    +0.000 C 
ATOM     12  C   UNL     1       1.440   3.865  18.198  0.00  0.00    +0.000 C 
ATOM     13  C   UNL     1       2.823   4.458  18.457  0.00  0.00    +0.000 C 
ENDBRANCH   7   8
BRANCH   1  14
ATOM     14  O   UNL     1       3.188   6.969  17.572  0.00  0.00    +0.000 OA
BRANCH  14  15
ATOM     15  C   UNL     1       4.484   7.531  17.360  0.00  0.00    +0.000 C 
BRANCH  15  17
ATOM     16  N   UNL     1       6.130   5.768  16.858  0.00  0.00    +0.000 N 
ATOM     17  C   UNL     1       5.235   6.706  16.323  0.00  0.00    +0.000 C 
ATOM     18  O   UNL     1       5.074   6.862  15.120  0.00  0.00    +0.000 OA
ATOM     19  H   UNL     1       6.165   5.629  17.868  0.00  0.00    +0.000 HD
BRANCH  16  21
ATOM     20  C   UNL     1       6.083   3.573  15.325  0.00  0.00    +0.000 C 
ATOM     21  S   UNL     1       7.167   4.823  15.989  0.00  0.00    +0.000 S 
ATOM     22  O   UNL     1       8.013   4.183  16.977  0.00  0.00    +0.000 OA
ATOM     23  O   UNL     1       7.735   5.601  14.914  0.00  0.00    +0.000 OA
ENDBRANCH  16  21
ENDBRANCH  15  17
ENDBRANCH  14  15
ENDBRANCH   1  14
TORSDOF 5
ENDMDL
MODEL 2
REMARK VINA RESULT:      -7.9      2.471      3.497
REMARK  Name = 
REMARK  6 active torsions:
REMARK  status: ('A' for Active; 'I' for Inactive)
REMARK    1  A    between atoms: C_1  and  S_2
REMARK    2  A    between atoms: S_2  and  N_5
REMARK    3  A    between atoms: C_6  and  C_8
REMARK    4  A    between atoms: C_8  and  O_9
REMARK    5  A    between atoms: O_9  and  C_10
REMARK    6  A    between atoms: C_16  and  C_17
REMARK                            x       y       z     vdW  Elec       q    Type
REMARK                         _______ _______ _______ _____ _____    ______ ____
ROOT
ATOM      1  C   UNL     1       4.379   4.966  16.970  0.00  0.00    +0.000 A 
ATOM      2  C   UNL     1       4.739   6.307  16.769  0.00  0.00    +0.000 A 
ATOM      3  C   UNL     1       4.006   7.338  17.356  0.00  0.00    +0.000 A 
ATOM      4  C   UNL     1       2.900   7.032  18.129  0.00  0.00    +0.000 A 
ATOM      5 CL   UNL     1       1.979   8.290  18.857  0.00  0.00    +0.000 Cl
ATOM      6  C   UNL     1       2.519   5.705  18.313  0.00  0.00    +0.000 A 
ATOM      7  C   UNL     1       3.240   4.640  17.744  0.00  0.00    +0.000 A 
ENDROOT
BRANCH   7   8
ATOM      8  C   UNL     1       2.795   3.187  17.949  0.00  0.00    +0.000 C 
ATOM      9  C   UNL     1       3.650   2.381  18.943  0.00  0.00    +0.000 C 
ATOM     10  C   UNL     1       3.352   2.644  20.418  0.00  0.00    +0.000 C 
ATOM     11  C   UNL     1       1.861   2.664  20.755  0.00  0.00    +0.000 C 
ATOM     12  C   UNL     1       0.966   3.380  19.746  0.00  0.00    +0.000 C 
ATOM     13  C   UNL     1       1.303   3.045  18.295  0.00  0.00    +0.000 C 
ENDBRANCH   7   8
BRANCH   1  14
ATOM     14  O   UNL     1       5.070   3.915  16.420  0.00  0.00    +0.000 OA
BRANCH  14  15
ATOM     15  C   UNL     1       6.448   4.136  16.116  0.00  0.00    +0.000 C 
BRANCH  15  17
ATOM     16  N   UNL     1       6.140   3.357  13.800  0.00  0.00    +0.000 N 
ATOM     17  C   UNL     1       6.608   4.390  14.624  0.00  0.00    +0.000 C 
ATOM     18  O   UNL     1       7.115   5.414  14.184  0.00  0.00    +0.000 OA
ATOM     19  H   UNL     1       5.655   2.563  14.219  0.00  0.00    +0.000 HD
BRANCH  16  21
ATOM     20  C   UNL     1       4.611   3.552  11.610  0.00  0.00    +0.000 C 
ATOM     21  S   UNL     1       6.288   3.292  12.158  0.00  0.00    +0.000 S 
ATOM     22  O   UNL     1       6.632   1.916  11.862  0.00  0.00    +0.000 OA
ATOM     23  O   UNL     1       7.123   4.381  11.711  0.00  0.00    +0.000 OA
ENDBRANCH  16  21
ENDBRANCH  15  17
ENDBRANCH  14  15
ENDBRANCH   1  14
TORSDOF 5
ENDMDL
MODEL 3
REMARK VINA RESULT:      -7.8      2.503      3.609
REMARK  Name = 
REMARK  6 active torsions:
REMARK  status: ('A' for Active; 'I' for Inactive)
REMARK    1  A    between atoms: C_1  and  S_2
REMARK    2  A    between atoms: S_2  and  N_5
REMARK    3  A    between atoms: C_6  and  C_8
REMARK    4  A    between atoms: C_8  and  O_9
REMARK    5  A    between atoms: O_9  and  C_10
REMARK    6  A    between atoms: C_16  and  C_17
REMARK                            x       y       z     vdW  Elec       q    Type
REMARK                         _______ _______ _______ _____ _____    ______ ____
ROOT
ATOM      1  C   UNL     1       4.754   4.786  17.039  0.00  0.00    +0.000 A 
ATOM      2  C   UNL     1       4.892   6.143  16.708  0.00  0.00    +0.000 A 
ATOM      3  C   UNL     1       4.089   7.109  17.312  0.00  0.00    +0.000 A 
ATOM      4  C   UNL     1       3.132   6.721  18.233  0.00  0.00    +0.000 A 
ATOM      5 CL   UNL     1       2.127   7.897  18.985  0.00  0.00    +0.000 Cl
ATOM      6  C   UNL     1       2.970   5.373  18.549  0.00  0.00    +0.000 A 
ATOM      7  C   UNL     1       3.769   4.373  17.966  0.00  0.00    +0.000 A 
ENDROOT
BRANCH   7   8
ATOM      8  C   UNL     1       3.564   2.895  18.319  0.00  0.00    +0.000 C 
ATOM      9  C   UNL     1       3.889   2.525  19.778  0.00  0.00    +0.000 C 
ATOM     10  C   UNL     1       2.807   2.883  20.795  0.00  0.00    +0.000 C 
ATOM     11  C   UNL     1       1.393   2.497  20.357  0.00  0.00    +0.000 C 
ATOM     12  C   UNL     1       1.060   2.767  18.891  0.00  0.00    +0.000 C 
ATOM     13  C   UNL     1       2.176   2.358  17.932  0.00  0.00    +0.000 C 
ENDBRANCH   7   8
BRANCH   1  14
ATOM     14  O   UNL     1       5.523   3.797  16.478  0.00  0.00    +0.000 OA
BRANCH  14  15
ATOM     15  C   UNL     1       6.809   4.178  15.988  0.00  0.00    +0.000 C 
BRANCH  15  17
ATOM     16  N   UNL     1       6.118   3.409  13.752  0.00  0.00    +0.000 N 
ATOM     17  C   UNL     1       6.730   4.433  14.489  0.00  0.00    +0.000 C 
ATOM     18  O   UNL     1       7.177   5.449  13.972  0.00  0.00    +0.000 OA
ATOM     19  H   UNL     1       5.694   2.622  14.245  0.00  0.00    +0.000 HD
BRANCH  16  21
ATOM     20  C   UNL     1       6.247   1.614  11.770  0.00  0.00    +0.000 C 
ATOM     21  S   UNL     1       5.997   3.346  12.107  0.00  0.00    +0.000 S 
ATOM     22  O   UNL     1       7.160   4.056  11.614  0.00  0.00    +0.000 OA
ATOM     23  O   UNL     1       4.664   3.734  11.712  0.00  0.00    +0.000 OA
ENDBRANCH  16  21
ENDBRANCH  15  17
ENDBRANCH  14  15
ENDBRANCH   1  14
TORSDOF 5
ENDMDL
MODEL 4
REMARK VINA RESULT:      -7.7      4.070      6.730
REMARK  Name = 
REMARK  6 active torsions:
REMARK  status: ('A' for Active; 'I' for Inactive)
REMARK    1  A    between atoms: C_1  and  S_2
REMARK    2  A    between atoms: S_2  and  N_5
REMARK    3  A    between atoms: C_6  and  C_8
REMARK    4  A    between atoms: C_8  and  O_9
REMARK    5  A    between atoms: O_9  and  C_10
REMARK    6  A    between atoms: C_16  and  C_17
REMARK                            x       y       z     vdW  Elec       q    Type
REMARK                         _______ _______ _______ _____ _____    ______ ____
ROOT
ATOM      1  C   UNL     1       2.798   5.607  18.001  0.00  0.00    +0.000 A 
ATOM      2  C   UNL     1       1.775   4.720  18.371  0.00  0.00    +0.000 A 
ATOM      3  C   UNL     1       2.036   3.360  18.538  0.00  0.00    +0.000 A 
ATOM      4  C   UNL     1       3.315   2.880  18.317  0.00  0.00    +0.000 A 
ATOM      5 CL   UNL     1       3.656   1.205  18.512  0.00  0.00    +0.000 Cl
ATOM      6  C   UNL     1       4.331   3.748  17.925  0.00  0.00    +0.000 A 
ATOM      7  C   UNL     1       4.106   5.127  17.756  0.00  0.00    +0.000 A 
ENDROOT
BRANCH   7   8
ATOM      8  C   UNL     1       5.238   6.061  17.311  0.00  0.00    +0.000 C 
ATOM      9  C   UNL     1       6.649   5.624  17.744  0.00  0.00    +0.000 C 
ATOM     10  C   UNL     1       7.275   4.519  16.896  0.00  0.00    +0.000 C 
ATOM     11  C   UNL     1       7.128   4.735  15.390  0.00  0.00    +0.000 C 
ATOM     12  C   UNL     1       5.767   5.254  14.928  0.00  0.00    +0.000 C 
ATOM     13  C   UNL     1       5.218   6.376  15.806  0.00  0.00    +0.000 C 
ENDBRANCH   7   8
BRANCH   1  14
ATOM     14  O   UNL     1       2.595   6.953  17.830  0.00  0.00    +0.000 OA
BRANCH  14  15
ATOM     15  C   UNL     1       2.206   7.700  18.982  0.00  0.00    +0.000 C 
BRANCH  15  17
ATOM     16  N   UNL     1       0.837   9.687  19.483  0.00  0.00    +0.000 N 
ATOM     17  C   UNL     1       1.685   9.065  18.555  0.00  0.00    +0.000 C 
ATOM     18  O   UNL     1       1.978   9.571  17.479  0.00  0.00    +0.000 OA
ATOM     19  H   UNL     1       0.691   9.254  20.396  0.00  0.00    +0.000 HD
BRANCH  16  21
ATOM     20  C   UNL     1      -0.843  11.310  20.792  0.00  0.00    +0.000 C 
ATOM     21  S   UNL     1       0.027  11.105  19.250  0.00  0.00    +0.000 S 
ATOM     22  O   UNL     1      -0.961  10.814  18.230  0.00  0.00    +0.000 OA
ATOM     23  O   UNL     1       0.980  12.176  19.079  0.00  0.00    +0.000 OA
ENDBRANCH  16  21
ENDBRANCH  15  17
ENDBRANCH  14  15
ENDBRANCH   1  14
TORSDOF 5
ENDMDL
MODEL 5
REMARK VINA RESULT:      -7.6      4.187      6.281
REMARK  Name = 
REMARK  6 active torsions:
REMARK  status: ('A' for Active; 'I' for Inactive)
REMARK    1  A    between atoms: C_1  and  S_2
REMARK    2  A    between atoms: S_2  and  N_5
REMARK    3  A    between atoms: C_6  and  C_8
REMARK    4  A    between atoms: C_8  and  O_9
REMARK    5  A    between atoms: O_9  and  C_10
REMARK    6  A    between atoms: C_16  and  C_17
REMARK                            x       y       z     vdW  Elec       q    Type
REMARK                         _______ _______ _______ _____ _____    ______ ____
ROOT
ATOM      1  C   UNL     1       3.649   6.737  17.779  0.00  0.00    +0.000 A 
ATOM      2  C   UNL     1       4.821   7.088  17.091  0.00  0.00    +0.000 A 
ATOM      3  C   UNL     1       5.553   6.128  16.392  0.00  0.00    +0.000 A 
ATOM      4  C   UNL     1       5.126   4.812  16.395  0.00  0.00    +0.000 A 
ATOM      5 CL   UNL     1       6.018   3.612  15.543  0.00  0.00    +0.000 Cl
ATOM      6  C   UNL     1       3.978   4.449  17.096  0.00  0.00    +0.000 A 
ATOM      7  C   UNL     1       3.212   5.392  17.804  0.00  0.00    +0.000 A 
ENDROOT
BRANCH   7   8
ATOM      8  C   UNL     1       1.959   4.967  18.580  0.00  0.00    +0.000 C 
ATOM      9  C   UNL     1       1.225   3.742  18.006  0.00  0.00    +0.000 C 
ATOM     10  C   UNL     1       1.852   2.391  18.346  0.00  0.00    +0.000 C 
ATOM     11  C   UNL     1       2.248   2.245  19.816  0.00  0.00    +0.000 C 
ATOM     12  C   UNL     1       2.900   3.473  20.448  0.00  0.00    +0.000 C 
ATOM     13  C   UNL     1       2.203   4.782  20.087  0.00  0.00    +0.000 C 
ENDBRANCH   7   8
BRANCH   1  14
ATOM     14  O   UNL     1       2.891   7.644  18.476  0.00  0.00    +0.000 OA
BRANCH  14  15
ATOM     15  C   UNL     1       2.128   8.575  17.708  0.00  0.00    +0.000 C 
BRANCH  15  17
ATOM     16  N   UNL     1       0.993   9.263  19.784  0.00  0.00    +0.000 N 
ATOM     17  C   UNL     1       1.630   9.695  18.611  0.00  0.00    +0.000 C 
ATOM     18  O   UNL     1       1.767  10.877  18.326  0.00  0.00    +0.000 OA
ATOM     19  H   UNL     1       0.977   8.267  20.007  0.00  0.00    +0.000 HD
BRANCH  16  21
ATOM     20  C   UNL     1      -0.306   9.067  22.117  0.00  0.00    +0.000 C 
ATOM     21  S   UNL     1       0.246  10.234  20.888  0.00  0.00    +0.000 S 
ATOM     22  O   UNL     1      -0.931  10.742  20.212  0.00  0.00    +0.000 OA
ATOM     23  O   UNL     1       1.217  11.132  21.468  0.00  0.00    +0.000 OA
ENDBRANCH  16  21
ENDBRANCH  15  17
ENDBRANCH  14  15
ENDBRANCH   1  14
TORSDOF 5
ENDMDL
MODEL 6
REMARK VINA RESULT:      -7.6      4.051      6.639
REMARK  Name = 
REMARK  6 active torsions:
REMARK  status: ('A' for Active; 'I' for Inactive)
REMARK    1  A    between atoms: C_1  and  S_2
REMARK    2  A    between atoms: S_2  and  N_5
REMARK    3  A    between atoms: C_6  and  C_8
REMARK    4  A    between atoms: C_8  and  O_9
REMARK    5  A    between atoms: O_9  and  C_10
REMARK    6  A    between atoms: C_16  and  C_17
REMARK                            x       y       z     vdW  Elec       q    Type
REMARK                         _______ _______ _______ _____ _____    ______ ____
ROOT
ATOM      1  C   UNL     1       2.919   6.243  18.443  0.00  0.00    +0.000 A 
ATOM      2  C   UNL     1       1.842   5.477  18.917  0.00  0.00    +0.000 A 
ATOM      3  C   UNL     1       1.833   4.090  18.767  0.00  0.00    +0.000 A 
ATOM      4  C   UNL     1       2.890   3.468  18.125  0.00  0.00    +0.000 A 
ATOM      5 CL   UNL     1       2.895   1.759  17.925  0.00  0.00    +0.000 Cl
ATOM      6  C   UNL     1       3.951   4.223  17.629  0.00  0.00    +0.000 A 
ATOM      7  C   UNL     1       3.997   5.622  17.771  0.00  0.00    +0.000 A 
ENDROOT
BRANCH   7   8
ATOM      8  C   UNL     1       5.169   6.433  17.205  0.00  0.00    +0.000 C 
ATOM      9  C   UNL     1       6.556   6.026  17.735  0.00  0.00    +0.000 C 
ATOM     10  C   UNL     1       7.155   4.777  17.092  0.00  0.00    +0.000 C 
ATOM     11  C   UNL     1       7.040   4.748  15.568  0.00  0.00    +0.000 C 
ATOM     12  C   UNL     1       5.707   5.230  14.998  0.00  0.00    +0.000 C 
ATOM     13  C   UNL     1       5.185   6.498  15.668  0.00  0.00    +0.000 C 
ENDBRANCH   7   8
BRANCH   1  14
ATOM     14  O   UNL     1       2.978   7.608  18.571  0.00  0.00    +0.000 OA
BRANCH  14  15
ATOM     15  C   UNL     1       2.043   8.371  17.807  0.00  0.00    +0.000 C 
BRANCH  15  17
ATOM     16  N   UNL     1       0.993   9.205  19.873  0.00  0.00    +0.000 N 
ATOM     17  C   UNL     1       1.550   9.551  18.634  0.00  0.00    +0.000 C 
ATOM     18  O   UNL     1       1.627  10.706  18.237  0.00  0.00    +0.000 OA
ATOM     19  H   UNL     1       1.027   8.234  20.184  0.00  0.00    +0.000 HD
BRANCH  16  21
ATOM     20  C   UNL     1      -0.283   9.159  22.227  0.00  0.00    +0.000 C 
ATOM     21  S   UNL     1       0.268  10.248  20.927  0.00  0.00    +0.000 S 
ATOM     22  O   UNL     1      -0.911  10.728  20.235  0.00  0.00    +0.000 OA
ATOM     23  O   UNL     1       1.255  11.166  21.444  0.00  0.00    +0.000 OA
ENDBRANCH  16  21
ENDBRANCH  15  17
ENDBRANCH  14  15
ENDBRANCH   1  14
TORSDOF 5
ENDMDL
MODEL 7
REMARK VINA RESULT:      -7.4      4.303      6.441
REMARK  Name = 
REMARK  6 active torsions:
REMARK  status: ('A' for Active; 'I' for Inactive)
REMARK    1  A    between atoms: C_1  and  S_2
REMARK    2  A    between atoms: S_2  and  N_5
REMARK    3  A    between atoms: C_6  and  C_8
REMARK    4  A    between atoms: C_8  and  O_9
REMARK    5  A    between atoms: O_9  and  C_10
REMARK    6  A    between atoms: C_16  and  C_17
REMARK                            x       y       z     vdW  Elec       q    Type
REMARK                         _______ _______ _______ _____ _____    ______ ____
ROOT
ATOM      1  C   UNL     1       3.191   6.543  17.892  0.00  0.00    +0.000 A 
ATOM      2  C   UNL     1       4.364   6.971  17.250  0.00  0.00    +0.000 A 
ATOM      3  C   UNL     1       5.192   6.059  16.595  0.00  0.00    +0.000 A 
ATOM      4  C   UNL     1       4.860   4.715  16.598  0.00  0.00    +0.000 A 
ATOM      5 CL   UNL     1       5.871   3.573  15.801  0.00  0.00    +0.000 Cl
ATOM      6  C   UNL     1       3.712   4.278  17.255  0.00  0.00    +0.000 A 
ATOM      7  C   UNL     1       2.850   5.171  17.917  0.00  0.00    +0.000 A 
ENDROOT
BRANCH   7   8
ATOM      8  C   UNL     1       1.598   4.665  18.644  0.00  0.00    +0.000 C 
ATOM      9  C   UNL     1       1.290   3.170  18.442  0.00  0.00    +0.000 C 
ATOM     10  C   UNL     1       2.127   2.215  19.291  0.00  0.00    +0.000 C 
ATOM     11  C   UNL     1       2.247   2.631  20.757  0.00  0.00    +0.000 C 
ATOM     12  C   UNL     1       2.465   4.123  21.003  0.00  0.00    +0.000 C 
ATOM     13  C   UNL     1       1.574   5.015  20.142  0.00  0.00    +0.000 C 
ENDBRANCH   7   8
BRANCH   1  14
ATOM     14  O   UNL     1       2.341   7.400  18.545  0.00  0.00    +0.000 OA
BRANCH  14  15
ATOM     15  C   UNL     1       2.040   8.634  17.891  0.00  0.00    +0.000 C 
BRANCH  15  17
ATOM     16  N   UNL     1       0.967  10.809  18.326  0.00  0.00    +0.000 N 
ATOM     17  C   UNL     1       1.260   9.536  18.838  0.00  0.00    +0.000 C 
ATOM     18  O   UNL     1       0.928   9.178  19.960  0.00  0.00    +0.000 OA
ATOM     19  H   UNL     1       1.200  11.024  17.356  0.00  0.00    +0.000 HD
BRANCH  16  21
ATOM     20  C   UNL     1      -1.432  11.463  19.319  0.00  0.00    +0.000 C 
ATOM     21  S   UNL     1       0.247  12.039  19.157  0.00  0.00    +0.000 S 
ATOM     22  O   UNL     1       0.235  13.160  18.239  0.00  0.00    +0.000 OA
ATOM     23  O   UNL     1       0.853  12.152  20.462  0.00  0.00    +0.000 OA
ENDBRANCH  16  21
ENDBRANCH  15  17
ENDBRANCH  14  15
ENDBRANCH   1  14
TORSDOF 5
ENDMDL
MODEL 8
REMARK VINA RESULT:      -7.4      4.170      6.828
REMARK  Name = 
REMARK  6 active torsions:
REMARK  status: ('A' for Active; 'I' for Inactive)
REMARK    1  A    between atoms: C_1  and  S_2
REMARK    2  A    between atoms: S_2  and  N_5
REMARK    3  A    between atoms: C_6  and  C_8
REMARK    4  A    between atoms: C_8  and  O_9
REMARK    5  A    between atoms: O_9  and  C_10
REMARK    6  A    between atoms: C_16  and  C_17
REMARK                            x       y       z     vdW  Elec       q    Type
REMARK                         _______ _______ _______ _____ _____    ______ ____
ROOT
ATOM      1  C   UNL     1       2.952   6.453  18.195  0.00  0.00    +0.000 A 
ATOM      2  C   UNL     1       1.856   5.740  18.706  0.00  0.00    +0.000 A 
ATOM      3  C   UNL     1       1.776   4.355  18.562  0.00  0.00    +0.000 A 
ATOM      4  C   UNL     1       2.781   3.681  17.890  0.00  0.00    +0.000 A 
ATOM      5 CL   UNL     1       2.698   1.974  17.697  0.00  0.00    +0.000 Cl
ATOM      6  C   UNL     1       3.860   4.383  17.356  0.00  0.00    +0.000 A 
ATOM      7  C   UNL     1       3.977   5.778  17.491  0.00  0.00    +0.000 A 
ENDROOT
BRANCH   7   8
ATOM      8  C   UNL     1       5.168   6.531  16.883  0.00  0.00    +0.000 C 
ATOM      9  C   UNL     1       6.527   6.236  17.543  0.00  0.00    +0.000 C 
ATOM     10  C   UNL     1       7.184   4.925  17.118  0.00  0.00    +0.000 C 
ATOM     11  C   UNL     1       7.161   4.681  15.609  0.00  0.00    +0.000 C 
ATOM     12  C   UNL     1       5.856   5.045  14.902  0.00  0.00    +0.000 C 
ATOM     13  C   UNL     1       5.275   6.381  15.357  0.00  0.00    +0.000 C 
ENDBRANCH   7   8
BRANCH   1  14
ATOM     14  O   UNL     1       3.081   7.813  18.315  0.00  0.00    +0.000 OA
BRANCH  14  15
ATOM     15  C   UNL     1       2.052   8.614  17.733  0.00  0.00    +0.000 C 
BRANCH  15  17
ATOM     16  N   UNL     1       0.780  10.614  18.406  0.00  0.00    +0.000 N 
ATOM     17  C   UNL     1       1.333   9.396  18.825  0.00  0.00    +0.000 C 
ATOM     18  O   UNL     1       1.258   8.991  19.978  0.00  0.00    +0.000 OA
ATOM     19  H   UNL     1       0.806  10.862  17.416  0.00  0.00    +0.000 HD
BRANCH  16  21
ATOM     20  C   UNL     1      -0.410  13.006  18.229  0.00  0.00    +0.000 C 
ATOM     21  S   UNL     1       0.053  11.728  19.382  0.00  0.00    +0.000 S 
ATOM     22  O   UNL     1       1.118  12.258  20.211  0.00  0.00    +0.000 OA
ATOM     23  O   UNL     1      -1.129  11.147  19.971  0.00  0.00    +0.000 OA
ENDBRANCH  16  21
ENDBRANCH  15  17
ENDBRANCH  14  15
ENDBRANCH   1  14
TORSDOF 5
ENDMDL
MODEL 9
REMARK VINA RESULT:      -7.4      4.325      6.481
REMARK  Name = 
REMARK  6 active torsions:
REMARK  status: ('A' for Active; 'I' for Inactive)
REMARK    1  A    between atoms: C_1  and  S_2
REMARK    2  A    between atoms: S_2  and  N_5
REMARK    3  A    between atoms: C_6  and  C_8
REMARK    4  A    between atoms: C_8  and  O_9
REMARK    5  A    between atoms: O_9  and  C_10
REMARK    6  A    between atoms: C_16  and  C_17
REMARK                            x       y       z     vdW  Elec       q    Type
REMARK                         _______ _______ _______ _____ _____    ______ ____
ROOT
ATOM      1  C   UNL     1       3.312   6.608  17.926  0.00  0.00    +0.000 A 
ATOM      2  C   UNL     1       4.496   7.007  17.286  0.00  0.00    +0.000 A 
ATOM      3  C   UNL     1       5.287   6.082  16.606  0.00  0.00    +0.000 A 
ATOM      4  C   UNL     1       4.907   4.751  16.580  0.00  0.00    +0.000 A 
ATOM      5 CL   UNL     1       5.873   3.593  15.751  0.00  0.00    +0.000 Cl
ATOM      6  C   UNL     1       3.748   4.340  17.234  0.00  0.00    +0.000 A 
ATOM      7  C   UNL     1       2.922   5.248  17.921  0.00  0.00    +0.000 A 
ENDROOT
BRANCH   7   8
ATOM      8  C   UNL     1       1.656   4.770  18.644  0.00  0.00    +0.000 C 
ATOM      9  C   UNL     1       1.273   3.303  18.380  0.00  0.00    +0.000 C 
ATOM     10  C   UNL     1       2.073   2.270  19.171  0.00  0.00    +0.000 C 
ATOM     11  C   UNL     1       2.233   2.612  20.652  0.00  0.00    +0.000 C 
ATOM     12  C   UNL     1       2.528   4.079  20.962  0.00  0.00    +0.000 C 
ATOM     13  C   UNL     1       1.670   5.051  20.156  0.00  0.00    +0.000 C 
ENDBRANCH   7   8
BRANCH   1  14
ATOM     14  O   UNL     1       2.496   7.479  18.602  0.00  0.00    +0.000 OA
BRANCH  14  15
ATOM     15  C   UNL     1       1.982   8.589  17.865  0.00  0.00    +0.000 C 
BRANCH  15  17
ATOM     16  N   UNL     1       0.398  10.457  18.128  0.00  0.00    +0.000 N 
ATOM     17  C   UNL     1       1.149   9.471  18.784  0.00  0.00    +0.000 C 
ATOM     18  O   UNL     1       1.146   9.333  20.000  0.00  0.00    +0.000 OA
ATOM     19  H   UNL     1       0.378  10.474  17.107  0.00  0.00    +0.000 HD
BRANCH  16  21
ATOM     20  C   UNL     1       0.750  12.676  19.583  0.00  0.00    +0.000 C 
ATOM     21  S   UNL     1      -0.500  11.631  18.860  0.00  0.00    +0.000 S 
ATOM     22  O   UNL     1      -1.187  10.961  19.947  0.00  0.00    +0.000 OA
ATOM     23  O   UNL     1      -1.233  12.367  17.858  0.00  0.00    +0.000 OA
ENDBRANCH  16  21
ENDBRANCH  15  17
ENDBRANCH  14  15
ENDBRANCH   1  14
TORSDOF 5
ENDMDL
