MODEL 1
REMARK VINA RESULT:      -8.1      0.000      0.000
REMARK  Name = 
REMARK  4 active torsions:
REMARK  status: ('A' for Active; 'I' for Inactive)
REMARK    1  A    between atoms: C_3  and  C_4
REMARK    2  A    between atoms: C_9  and  O_10
REMARK    3  A    between atoms: O_10  and  C_11
REMARK    4  A    between atoms: C_14  and  N_15
REMARK                            x       y       z     vdW  Elec       q    Type
REMARK                         _______ _______ _______ _____ _____    ______ ____
ROOT
ATOM      1  C   UNL     1       2.294   7.512  19.286  0.00  0.00    +0.000 A 
ATOM      2  C   UNL     1       1.621   8.065  20.378  0.00  0.00    +0.000 A 
ATOM      3  C   UNL     1       0.875   9.248  20.231  0.00  0.00    +0.000 A 
ATOM      4  C   UNL     1       0.822   9.923  19.000  0.00  0.00    +0.000 A 
ATOM      5  C   UNL     1       1.396   9.283  17.895  0.00  0.00    +0.000 A 
ATOM      6  C   UNL     1       2.160   8.121  18.039  0.00  0.00    +0.000 A 
ENDROOT
BRANCH   4   7
ATOM      7  N   UNL     1       0.165  11.171  18.896  0.00  0.00    +0.000 N 
ATOM      8  C   UNL     1       0.780  12.451  18.987  0.00  0.00    +0.000 A 
ATOM      9  C   UNL     1      -0.007  13.592  18.831  0.00  0.00    +0.000 A 
ATOM     10  C   UNL     1       0.590  14.855  18.866  0.00  0.00    +0.000 A 
ATOM     11  C   UNL     1       1.963  14.959  19.043  0.00  0.00    +0.000 A 
ATOM     12  C   UNL     1       2.675  13.789  19.195  0.00  0.00    +0.000 A 
ATOM     13  N   UNL     1       2.112  12.563  19.177  0.00  0.00    +0.000 NA
ATOM     14  H   UNL     1      -0.703  11.177  19.425  0.00  0.00    +0.000 HD
ENDBRANCH   4   7
BRANCH   1  15
ATOM     15  O   UNL     1       3.133   6.437  19.522  0.00  0.00    +0.000 OA
BRANCH  15  21
ATOM     16  C   UNL     1       3.808   4.820  17.863  0.00  0.00    +0.000 A 
ATOM     17  C   UNL     1       3.485   3.619  17.201  0.00  0.00    +0.000 A 
ATOM     18  C   UNL     1       2.325   2.917  17.512  0.00  0.00    +0.000 A 
ATOM     19  C   UNL     1       1.512   3.422  18.502  0.00  0.00    +0.000 A 
ATOM     20  N   UNL     1       1.783   4.556  19.173  0.00  0.00    +0.000 NA
ATOM     21  C   UNL     1       2.895   5.258  18.829  0.00  0.00    +0.000 A 
BRANCH  16  24
ATOM     22  C   UNL     1       7.091   5.002  16.484  0.00  0.00    +0.000 C 
ATOM     23  C   UNL     1       6.341   4.684  17.535  0.00  0.00    +0.000 C 
ATOM     24  C   UNL     1       5.100   5.496  17.474  0.00  0.00    +0.000 C 
ATOM     25  C   UNL     1       5.181   6.050  16.048  0.00  0.00    +0.000 C 
ATOM     26  O   UNL     1       6.552   5.912  15.599  0.00  0.00    +0.000 OA
ENDBRANCH  16  24
ENDBRANCH  15  21
ENDBRANCH   1  15
TORSDOF 4
ENDMDL
MODEL 2
REMARK VINA RESULT:      -8.1      3.738      7.926
REMARK  Name = 
REMARK  4 active torsions:
REMARK  status: ('A' for Active; 'I' for Inactive)
REMARK    1  A    between atoms: C_3  and  C_4
REMARK    2  A    between atoms: C_9  and  O_10
REMARK    3  A    between atoms: O_10  and  C_11
REMARK    4  A    between atoms: C_14  and  N_15
REMARK                            x       y       z     vdW  Elec       q    Type
REMARK                         _______ _______ _______ _____ _____    ______ ____
ROOT
ATOM      1  C   UNL     1       5.481   5.543  18.748  0.00  0.00    +0.000 A 
ATOM      2  C   UNL     1       6.625   4.764  18.554  0.00  0.00    +0.000 A 
ATOM      3  C   UNL     1       7.294   4.776  17.318  0.00  0.00    +0.000 A 
ATOM      4  C   UNL     1       6.808   5.534  16.238  0.00  0.00    +0.000 A 
ATOM      5  C   UNL     1       5.740   6.401  16.496  0.00  0.00    +0.000 A 
ATOM      6  C   UNL     1       5.056   6.376  17.715  0.00  0.00    +0.000 A 
ENDROOT
BRANCH   4   7
ATOM      7  N   UNL     1       7.424   5.446  14.968  0.00  0.00    +0.000 N 
ATOM      8  C   UNL     1       6.952   4.688  13.860  0.00  0.00    +0.000 A 
ATOM      9  C   UNL     1       7.661   4.731  12.660  0.00  0.00    +0.000 A 
ATOM     10  C   UNL     1       7.182   4.034  11.547  0.00  0.00    +0.000 A 
ATOM     11  C   UNL     1       5.998   3.317  11.646  0.00  0.00    +0.000 A 
ATOM     12  C   UNL     1       5.354   3.315  12.865  0.00  0.00    +0.000 A 
ATOM     13  N   UNL     1       5.810   3.971  13.952  0.00  0.00    +0.000 NA
ATOM     14  H   UNL     1       8.430   5.326  15.052  0.00  0.00    +0.000 HD
ENDBRANCH   4   7
BRANCH   1  15
ATOM     15  O   UNL     1       4.780   5.376  19.930  0.00  0.00    +0.000 OA
BRANCH  15  21
ATOM     16  C   UNL     1       2.379   5.613  19.947  0.00  0.00    +0.000 A 
ATOM     17  C   UNL     1       1.137   4.950  19.880  0.00  0.00    +0.000 A 
ATOM     18  C   UNL     1       1.068   3.569  19.727  0.00  0.00    +0.000 A 
ATOM     19  C   UNL     1       2.250   2.872  19.624  0.00  0.00    +0.000 A 
ATOM     20  N   UNL     1       3.460   3.460  19.667  0.00  0.00    +0.000 NA
ATOM     21  C   UNL     1       3.517   4.804  19.864  0.00  0.00    +0.000 A 
BRANCH  16  24
ATOM     22  C   UNL     1       1.341   8.932  19.157  0.00  0.00    +0.000 C 
ATOM     23  C   UNL     1       2.143   7.914  18.855  0.00  0.00    +0.000 C 
ATOM     24  C   UNL     1       2.352   7.115  20.089  0.00  0.00    +0.000 C 
ATOM     25  C   UNL     1       1.270   7.699  21.004  0.00  0.00    +0.000 C 
ATOM     26  O   UNL     1       0.868   8.977  20.451  0.00  0.00    +0.000 OA
ENDBRANCH  16  24
ENDBRANCH  15  21
ENDBRANCH   1  15
TORSDOF 4
ENDMDL
MODEL 3
REMARK VINA RESULT:      -8.0      3.687      7.984
REMARK  Name = 
REMARK  4 active torsions:
REMARK  status: ('A' for Active; 'I' for Inactive)
REMARK    1  A    between atoms: C_3  and  C_4
REMARK    2  A    between atoms: C_9  and  O_10
REMARK    3  A    between atoms: O_10  and  C_11
REMARK    4  A    between atoms: C_14  and  N_15
REMARK                            x       y       z     vdW  Elec       q    Type
REMARK                         _______ _______ _______ _____ _____    ______ ____
ROOT
ATOM      1  C   UNL     1       5.258   5.317  18.734  0.00  0.00    +0.000 A 
ATOM      2  C   UNL     1       4.588   5.736  17.582  0.00  0.00    +0.000 A 
ATOM      3  C   UNL     1       5.252   5.772  16.344  0.00  0.00    +0.000 A 
ATOM      4  C   UNL     1       6.612   5.431  16.241  0.00  0.00    +0.000 A 
ATOM      5  C   UNL     1       7.224   4.895  17.380  0.00  0.00    +0.000 A 
ATOM      6  C   UNL     1       6.576   4.879  18.620  0.00  0.00    +0.000 A 
ENDROOT
BRANCH   4   7
ATOM      7  N   UNL     1       7.297   5.583  15.013  0.00  0.00    +0.000 N 
ATOM      8  C   UNL     1       7.066   4.832  13.828  0.00  0.00    +0.000 A 
ATOM      9  C   UNL     1       7.809   5.127  12.685  0.00  0.00    +0.000 A 
ATOM     10  C   UNL     1       7.556   4.434  11.497  0.00  0.00    +0.000 A 
ATOM     11  C   UNL     1       6.561   3.468  11.466  0.00  0.00    +0.000 A 
ATOM     12  C   UNL     1       5.871   3.227  12.635  0.00  0.00    +0.000 A 
ATOM     13  N   UNL     1       6.111   3.877  13.792  0.00  0.00    +0.000 NA
ATOM     14  H   UNL     1       8.299   5.682  15.159  0.00  0.00    +0.000 HD
ENDBRANCH   4   7
BRANCH   1  15
ATOM     15  O   UNL     1       4.601   5.447  19.946  0.00  0.00    +0.000 OA
BRANCH  15  21
ATOM     16  C   UNL     1       2.219   5.730  20.210  0.00  0.00    +0.000 A 
ATOM     17  C   UNL     1       0.971   5.087  20.330  0.00  0.00    +0.000 A 
ATOM     18  C   UNL     1       0.871   3.700  20.291  0.00  0.00    +0.000 A 
ATOM     19  C   UNL     1       2.027   2.976  20.111  0.00  0.00    +0.000 A 
ATOM     20  N   UNL     1       3.240   3.542  19.976  0.00  0.00    +0.000 NA
ATOM     21  C   UNL     1       3.333   4.896  20.063  0.00  0.00    +0.000 A 
BRANCH  16  24
ATOM     22  C   UNL     1       1.322   9.003  19.115  0.00  0.00    +0.000 C 
ATOM     23  C   UNL     1       2.113   7.948  18.941  0.00  0.00    +0.000 C 
ATOM     24  C   UNL     1       2.224   7.239  20.240  0.00  0.00    +0.000 C 
ATOM     25  C   UNL     1       1.103   7.912  21.039  0.00  0.00    +0.000 C 
ATOM     26  O   UNL     1       0.771   9.154  20.370  0.00  0.00    +0.000 OA
ENDBRANCH  16  24
ENDBRANCH  15  21
ENDBRANCH   1  15
TORSDOF 4
ENDMDL
MODEL 4
REMARK VINA RESULT:      -8.0      1.981      2.717
REMARK  Name = 
REMARK  4 active torsions:
REMARK  status: ('A' for Active; 'I' for Inactive)
REMARK    1  A    between atoms: C_3  and  C_4
REMARK    2  A    between atoms: C_9  and  O_10
REMARK    3  A    between atoms: O_10  and  C_11
REMARK    4  A    between atoms: C_14  and  N_15
REMARK                            x       y       z     vdW  Elec       q    Type
REMARK                         _______ _______ _______ _____ _____    ______ ____
ROOT
ATOM      1  C   UNL     1       2.507   7.464  19.010  0.00  0.00    +0.000 A 
ATOM      2  C   UNL     1       1.833   7.708  20.209  0.00  0.00    +0.000 A 
ATOM      3  C   UNL     1       0.913   8.766  20.307  0.00  0.00    +0.000 A 
ATOM      4  C   UNL     1       0.680   9.627  19.220  0.00  0.00    +0.000 A 
ATOM      5  C   UNL     1       1.268   9.284  17.997  0.00  0.00    +0.000 A 
ATOM      6  C   UNL     1       2.202   8.249  17.899  0.00  0.00    +0.000 A 
ENDROOT
BRANCH   4   7
ATOM      7  N   UNL     1      -0.159  10.756  19.368  0.00  0.00    +0.000 N 
ATOM      8  C   UNL     1      -1.478  10.891  18.853  0.00  0.00    +0.000 A 
ATOM      9  C   UNL     1      -2.189  12.062  19.114  0.00  0.00    +0.000 A 
ATOM     10  C   UNL     1      -3.506  12.188  18.659  0.00  0.00    +0.000 A 
ATOM     11  C   UNL     1      -4.093  11.142  17.964  0.00  0.00    +0.000 A 
ATOM     12  C   UNL     1      -3.328  10.017  17.739  0.00  0.00    +0.000 A 
ATOM     13  N   UNL     1      -2.053   9.885  18.159  0.00  0.00    +0.000 NA
ATOM     14  H   UNL     1       0.353  11.620  19.212  0.00  0.00    +0.000 HD
ENDBRANCH   4   7
BRANCH   1  15
ATOM     15  O   UNL     1       3.509   6.508  19.016  0.00  0.00    +0.000 OA
BRANCH  15  21
ATOM     16  C   UNL     1       4.205   4.632  17.668  0.00  0.00    +0.000 A 
ATOM     17  C   UNL     1       3.842   3.385  17.123  0.00  0.00    +0.000 A 
ATOM     18  C   UNL     1       2.589   2.832  17.367  0.00  0.00    +0.000 A 
ATOM     19  C   UNL     1       1.722   3.532  18.174  0.00  0.00    +0.000 A 
ATOM     20  N   UNL     1       2.026   4.719  18.730  0.00  0.00    +0.000 NA
ATOM     21  C   UNL     1       3.236   5.272  18.448  0.00  0.00    +0.000 A 
BRANCH  16  24
ATOM     22  C   UNL     1       7.761   4.707  17.928  0.00  0.00    +0.000 C 
ATOM     23  C   UNL     1       6.598   5.070  18.460  0.00  0.00    +0.000 C 
ATOM     24  C   UNL     1       5.595   5.138  17.368  0.00  0.00    +0.000 C 
ATOM     25  C   UNL     1       6.349   4.437  16.233  0.00  0.00    +0.000 C 
ATOM     26  O   UNL     1       7.758   4.434  16.576  0.00  0.00    +0.000 OA
ENDBRANCH  16  24
ENDBRANCH  15  21
ENDBRANCH   1  15
TORSDOF 4
ENDMDL
MODEL 5
REMARK VINA RESULT:      -7.9      2.207      2.990
REMARK  Name = 
REMARK  4 active torsions:
REMARK  status: ('A' for Active; 'I' for Inactive)
REMARK    1  A    between atoms: C_3  and  C_4
REMARK    2  A    between atoms: C_9  and  O_10
REMARK    3  A    between atoms: O_10  and  C_11
REMARK    4  A    between atoms: C_14  and  N_15
REMARK                            x       y       z     vdW  Elec       q    Type
REMARK                         _______ _______ _______ _____ _____    ______ ____
ROOT
ATOM      1  C   UNL     1       2.262   7.601  19.721  0.00  0.00    +0.000 A 
ATOM      2  C   UNL     1       2.084   8.308  18.529  0.00  0.00    +0.000 A 
ATOM      3  C   UNL     1       1.108   9.316  18.438  0.00  0.00    +0.000 A 
ATOM      4  C   UNL     1       0.264   9.608  19.523  0.00  0.00    +0.000 A 
ATOM      5  C   UNL     1       0.547   8.978  20.740  0.00  0.00    +0.000 A 
ATOM      6  C   UNL     1       1.499   7.957  20.831  0.00  0.00    +0.000 A 
ENDROOT
BRANCH   4   7
ATOM      7  N   UNL     1      -0.788  10.543  19.380  0.00  0.00    +0.000 N 
ATOM      8  C   UNL     1      -1.717  10.598  18.304  0.00  0.00    +0.000 A 
ATOM      9  C   UNL     1      -2.721  11.567  18.327  0.00  0.00    +0.000 A 
ATOM     10  C   UNL     1      -3.674  11.601  17.304  0.00  0.00    +0.000 A 
ATOM     11  C   UNL     1      -3.616  10.662  16.284  0.00  0.00    +0.000 A 
ATOM     12  C   UNL     1      -2.594   9.738  16.325  0.00  0.00    +0.000 A 
ATOM     13  N   UNL     1      -1.660   9.700  17.297  0.00  0.00    +0.000 NA
ATOM     14  H   UNL     1      -0.478  11.485  19.606  0.00  0.00    +0.000 HD
ENDBRANCH   4   7
BRANCH   1  15
ATOM     15  O   UNL     1       3.128   6.521  19.707  0.00  0.00    +0.000 OA
BRANCH  15  21
ATOM     16  C   UNL     1       3.452   4.845  18.001  0.00  0.00    +0.000 A 
ATOM     17  C   UNL     1       2.954   3.668  17.408  0.00  0.00    +0.000 A 
ATOM     18  C   UNL     1       1.797   3.059  17.883  0.00  0.00    +0.000 A 
ATOM     19  C   UNL     1       1.164   3.632  18.963  0.00  0.00    +0.000 A 
ATOM     20  N   UNL     1       1.607   4.746  19.573  0.00  0.00    +0.000 NA
ATOM     21  C   UNL     1       2.712   5.359  19.071  0.00  0.00    +0.000 A 
BRANCH  16  24
ATOM     22  C   UNL     1       5.978   5.322  15.530  0.00  0.00    +0.000 C 
ATOM     23  C   UNL     1       5.512   4.557  16.513  0.00  0.00    +0.000 C 
ATOM     24  C   UNL     1       4.726   5.419  17.431  0.00  0.00    +0.000 C 
ATOM     25  C   UNL     1       4.590   6.694  16.592  0.00  0.00    +0.000 C 
ATOM     26  O   UNL     1       5.600   6.648  15.553  0.00  0.00    +0.000 OA
ENDBRANCH  16  24
ENDBRANCH  15  21
ENDBRANCH   1  15
TORSDOF 4
ENDMDL
MODEL 6
REMARK VINA RESULT:      -7.8      0.815      1.291
REMARK  Name = 
REMARK  4 active torsions:
REMARK  status: ('A' for Active; 'I' for Inactive)
REMARK    1  A    between atoms: C_3  and  C_4
REMARK    2  A    between atoms: C_9  and  O_10
REMARK    3  A    between atoms: O_10  and  C_11
REMARK    4  A    between atoms: C_14  and  N_15
REMARK                            x       y       z     vdW  Elec       q    Type
REMARK                         _______ _______ _______ _____ _____    ______ ____
ROOT
ATOM      1  C   UNL     1       2.685   7.294  19.385  0.00  0.00    +0.000 A 
ATOM      2  C   UNL     1       2.789   7.912  18.136  0.00  0.00    +0.000 A 
ATOM      3  C   UNL     1       2.003   9.036  17.830  0.00  0.00    +0.000 A 
ATOM      4  C   UNL     1       1.065   9.538  18.750  0.00  0.00    +0.000 A 
ATOM      5  C   UNL     1       1.072   8.982  20.034  0.00  0.00    +0.000 A 
ATOM      6  C   UNL     1       1.834   7.850  20.338  0.00  0.00    +0.000 A 
ENDROOT
BRANCH   4   7
ATOM      7  N   UNL     1       0.200  10.595  18.386  0.00  0.00    +0.000 N 
ATOM      8  C   UNL     1       0.350  11.962  18.749  0.00  0.00    +0.000 A 
ATOM      9  C   UNL     1      -0.578  12.892  18.281  0.00  0.00    +0.000 A 
ATOM     10  C   UNL     1      -0.415  14.247  18.585  0.00  0.00    +0.000 A 
ATOM     11  C   UNL     1       0.676  14.652  19.341  0.00  0.00    +0.000 A 
ATOM     12  C   UNL     1       1.549  13.677  19.774  0.00  0.00    +0.000 A 
ATOM     13  N   UNL     1       1.398  12.364  19.500  0.00  0.00    +0.000 NA
ATOM     14  H   UNL     1      -0.775  10.325  18.487  0.00  0.00    +0.000 HD
ENDBRANCH   4   7
BRANCH   1  15
ATOM     15  O   UNL     1       3.370   6.105  19.575  0.00  0.00    +0.000 OA
BRANCH  15  21
ATOM     16  C   UNL     1       3.940   4.590  17.785  0.00  0.00    +0.000 A 
ATOM     17  C   UNL     1       3.524   3.495  17.002  0.00  0.00    +0.000 A 
ATOM     18  C   UNL     1       2.291   2.888  17.214  0.00  0.00    +0.000 A 
ATOM     19  C   UNL     1       1.497   3.379  18.227  0.00  0.00    +0.000 A 
ATOM     20  N   UNL     1       1.855   4.411  19.011  0.00  0.00    +0.000 NA
ATOM     21  C   UNL     1       3.042   5.027  18.765  0.00  0.00    +0.000 A 
BRANCH  16  24
ATOM     22  C   UNL     1       7.504   4.694  17.862  0.00  0.00    +0.000 C 
ATOM     23  C   UNL     1       6.368   4.944  18.508  0.00  0.00    +0.000 C 
ATOM     24  C   UNL     1       5.305   5.166  17.496  0.00  0.00    +0.000 C 
ATOM     25  C   UNL     1       6.003   4.672  16.224  0.00  0.00    +0.000 C 
ATOM     26  O   UNL     1       7.428   4.643  16.487  0.00  0.00    +0.000 OA
ENDBRANCH  16  24
ENDBRANCH  15  21
ENDBRANCH   1  15
TORSDOF 4
ENDMDL
MODEL 7
REMARK VINA RESULT:      -7.8      0.788      1.031
REMARK  Name = 
REMARK  4 active torsions:
REMARK  status: ('A' for Active; 'I' for Inactive)
REMARK    1  A    between atoms: C_3  and  C_4
REMARK    2  A    between atoms: C_9  and  O_10
REMARK    3  A    between atoms: O_10  and  C_11
REMARK    4  A    between atoms: C_14  and  N_15
REMARK                            x       y       z     vdW  Elec       q    Type
REMARK                         _______ _______ _______ _____ _____    ______ ____
ROOT
ATOM      1  C   UNL     1       2.405   7.364  19.231  0.00  0.00    +0.000 A 
ATOM      2  C   UNL     1       1.747   7.872  20.354  0.00  0.00    +0.000 A 
ATOM      3  C   UNL     1       0.983   9.049  20.261  0.00  0.00    +0.000 A 
ATOM      4  C   UNL     1       0.898   9.764  19.054  0.00  0.00    +0.000 A 
ATOM      5  C   UNL     1       1.458   9.168  17.918  0.00  0.00    +0.000 A 
ATOM      6  C   UNL     1       2.238   8.012  18.008  0.00  0.00    +0.000 A 
ENDROOT
BRANCH   4   7
ATOM      7  N   UNL     1       0.224  11.006  19.004  0.00  0.00    +0.000 N 
ATOM      8  C   UNL     1       0.836  12.288  18.933  0.00  0.00    +0.000 A 
ATOM      9  C   UNL     1       0.026  13.421  18.859  0.00  0.00    +0.000 A 
ATOM     10  C   UNL     1       0.612  14.685  18.734  0.00  0.00    +0.000 A 
ATOM     11  C   UNL     1       1.993  14.795  18.673  0.00  0.00    +0.000 A 
ATOM     12  C   UNL     1       2.730  13.633  18.757  0.00  0.00    +0.000 A 
ATOM     13  N   UNL     1       2.181  12.408  18.891  0.00  0.00    +0.000 NA
ATOM     14  H   UNL     1      -0.543  11.037  19.672  0.00  0.00    +0.000 HD
ENDBRANCH   4   7
BRANCH   1  15
ATOM     15  O   UNL     1       3.261   6.292  19.415  0.00  0.00    +0.000 OA
BRANCH  15  21
ATOM     16  C   UNL     1       3.805   4.486  17.910  0.00  0.00    +0.000 A 
ATOM     17  C   UNL     1       3.385   3.263  17.351  0.00  0.00    +0.000 A 
ATOM     18  C   UNL     1       2.169   2.689  17.709  0.00  0.00    +0.000 A 
ATOM     19  C   UNL     1       1.398   3.344  18.642  0.00  0.00    +0.000 A 
ATOM     20  N   UNL     1       1.760   4.506  19.215  0.00  0.00    +0.000 NA
ATOM     21  C   UNL     1       2.929   5.082  18.824  0.00  0.00    +0.000 A 
BRANCH  16  24
ATOM     22  C   UNL     1       6.215   7.006  17.166  0.00  0.00    +0.000 C 
ATOM     23  C   UNL     1       5.171   6.303  16.737  0.00  0.00    +0.000 C 
ATOM     24  C   UNL     1       5.150   5.017  17.478  0.00  0.00    +0.000 C 
ATOM     25  C   UNL     1       6.165   5.301  18.591  0.00  0.00    +0.000 C 
ATOM     26  O   UNL     1       6.960   6.441  18.180  0.00  0.00    +0.000 OA
ENDBRANCH  16  24
ENDBRANCH  15  21
ENDBRANCH   1  15
TORSDOF 4
ENDMDL
MODEL 8
REMARK VINA RESULT:      -7.7      2.416      4.038
REMARK  Name = 
REMARK  4 active torsions:
REMARK  status: ('A' for Active; 'I' for Inactive)
REMARK    1  A    between atoms: C_3  and  C_4
REMARK    2  A    between atoms: C_9  and  O_10
REMARK    3  A    between atoms: O_10  and  C_11
REMARK    4  A    between atoms: C_14  and  N_15
REMARK                            x       y       z     vdW  Elec       q    Type
REMARK                         _______ _______ _______ _____ _____    ______ ____
ROOT
ATOM      1  C   UNL     1       2.626   7.473  19.116  0.00  0.00    +0.000 A 
ATOM      2  C   UNL     1       1.858   7.783  20.241  0.00  0.00    +0.000 A 
ATOM      3  C   UNL     1       0.910   8.821  20.193  0.00  0.00    +0.000 A 
ATOM      4  C   UNL     1       0.743   9.597  19.032  0.00  0.00    +0.000 A 
ATOM      5  C   UNL     1       1.430   9.184  17.885  0.00  0.00    +0.000 A 
ATOM      6  C   UNL     1       2.391   8.170  17.932  0.00  0.00    +0.000 A 
ENDROOT
BRANCH   4   7
ATOM      7  N   UNL     1      -0.129  10.710  19.035  0.00  0.00    +0.000 N 
ATOM      8  C   UNL     1      -1.460  10.732  18.532  0.00  0.00    +0.000 A 
ATOM      9  C   UNL     1      -2.203  11.907  18.638  0.00  0.00    +0.000 A 
ATOM     10  C   UNL     1      -3.530  11.929  18.196  0.00  0.00    +0.000 A 
ATOM     11  C   UNL     1      -4.095  10.777  17.667  0.00  0.00    +0.000 A 
ATOM     12  C   UNL     1      -3.298   9.655  17.589  0.00  0.00    +0.000 A 
ATOM     13  N   UNL     1      -2.013   9.621  17.999  0.00  0.00    +0.000 NA
ATOM     14  H   UNL     1       0.353  11.558  18.748  0.00  0.00    +0.000 HD
ENDBRANCH   4   7
BRANCH   1  15
ATOM     15  O   UNL     1       3.645   6.548  19.266  0.00  0.00    +0.000 OA
BRANCH  15  21
ATOM     16  C   UNL     1       3.730   4.546  17.923  0.00  0.00    +0.000 A 
ATOM     17  C   UNL     1       4.235   3.942  16.754  0.00  0.00    +0.000 A 
ATOM     18  C   UNL     1       5.036   4.653  15.867  0.00  0.00    +0.000 A 
ATOM     19  C   UNL     1       5.305   5.972  16.156  0.00  0.00    +0.000 A 
ATOM     20  N   UNL     1       4.836   6.598  17.251  0.00  0.00    +0.000 NA
ATOM     21  C   UNL     1       4.092   5.880  18.135  0.00  0.00    +0.000 A 
BRANCH  16  24
ATOM     22  C   UNL     1       0.863   2.590  18.739  0.00  0.00    +0.000 C 
ATOM     23  C   UNL     1       1.382   3.808  18.619  0.00  0.00    +0.000 C 
ATOM     24  C   UNL     1       2.850   3.701  18.811  0.00  0.00    +0.000 C 
ATOM     25  C   UNL     1       3.047   2.183  18.728  0.00  0.00    +0.000 C 
ATOM     26  O   UNL     1       1.756   1.560  18.941  0.00  0.00    +0.000 OA
ENDBRANCH  16  24
ENDBRANCH  15  21
ENDBRANCH   1  15
TORSDOF 4
ENDMDL
MODEL 9
REMARK VINA RESULT:      -7.7      2.205      3.751
REMARK  Name = 
REMARK  4 active torsions:
REMARK  status: ('A' for Active; 'I' for Inactive)
REMARK    1  A    between atoms: C_3  and  C_4
REMARK    2  A    between atoms: C_9  and  O_10
REMARK    3  A    between atoms: O_10  and  C_11
REMARK    4  A    between atoms: C_14  and  N_15
REMARK                            x       y       z     vdW  Elec       q    Type
REMARK                         _______ _______ _______ _____ _____    ______ ____
ROOT
ATOM      1  C   UNL     1       3.061   6.464  19.127  0.00  0.00    +0.000 A 
ATOM      2  C   UNL     1       2.292   6.801  20.244  0.00  0.00    +0.000 A 
ATOM      3  C   UNL     1       1.543   7.991  20.261  0.00  0.00    +0.000 A 
ATOM      4  C   UNL     1       1.584   8.888  19.179  0.00  0.00    +0.000 A 
ATOM      5  C   UNL     1       2.257   8.468  18.026  0.00  0.00    +0.000 A 
ATOM      6  C   UNL     1       3.023   7.298  18.011  0.00  0.00    +0.000 A 
ENDROOT
BRANCH   4   7
ATOM      7  N   UNL     1       0.919  10.134  19.258  0.00  0.00    +0.000 N 
ATOM      8  C   UNL     1      -0.245  10.509  18.531  0.00  0.00    +0.000 A 
ATOM      9  C   UNL     1      -0.799  11.771  18.746  0.00  0.00    +0.000 A 
ATOM     10  C   UNL     1      -1.973  12.134  18.078  0.00  0.00    +0.000 A 
ATOM     11  C   UNL     1      -2.579  11.230  17.219  0.00  0.00    +0.000 A 
ATOM     12  C   UNL     1      -1.973  10.003  17.052  0.00  0.00    +0.000 A 
ATOM     13  N   UNL     1      -0.833   9.642  17.678  0.00  0.00    +0.000 NA
ATOM     14  H   UNL     1       1.581  10.906  19.254  0.00  0.00    +0.000 HD
ENDBRANCH   4   7
BRANCH   1  15
ATOM     15  O   UNL     1       3.893   5.362  19.227  0.00  0.00    +0.000 OA
BRANCH  15  21
ATOM     16  C   UNL     1       4.470   4.048  17.287  0.00  0.00    +0.000 A 
ATOM     17  C   UNL     1       5.399   3.841  16.248  0.00  0.00    +0.000 A 
ATOM     18  C   UNL     1       6.522   4.653  16.116  0.00  0.00    +0.000 A 
ATOM     19  C   UNL     1       6.687   5.676  17.022  0.00  0.00    +0.000 A 
ATOM     20  N   UNL     1       5.821   5.923  18.023  0.00  0.00    +0.000 NA
ATOM     21  C   UNL     1       4.752   5.096  18.170  0.00  0.00    +0.000 A 
BRANCH  16  24
ATOM     22  C   UNL     1       1.908   2.127  18.856  0.00  0.00    +0.000 C 
ATOM     23  C   UNL     1       3.179   2.183  18.470  0.00  0.00    +0.000 C 
ATOM     24  C   UNL     1       3.271   3.132  17.332  0.00  0.00    +0.000 C 
ATOM     25  C   UNL     1       1.896   3.806  17.400  0.00  0.00    +0.000 C 
ATOM     26  O   UNL     1       1.029   2.958  18.193  0.00  0.00    +0.000 OA
ENDBRANCH  16  24
ENDBRANCH  15  21
ENDBRANCH   1  15
TORSDOF 4
ENDMDL
