MODEL 1
REMARK VINA RESULT:      -6.5      0.000      0.000
REMARK  Name = 
REMARK  4 active torsions:
REMARK  status: ('A' for Active; 'I' for Inactive)
REMARK    1  A    between atoms: C_1  and  C_2
REMARK    2  A    between atoms: C_7  and  C_8
REMARK    3  A    between atoms: C_8  and  N_9
REMARK    4  A    between atoms: C_12  and  C_13
REMARK                            x       y       z     vdW  Elec       q    Type
REMARK                         _______ _______ _______ _____ _____    ______ ____
ROOT
ATOM      1  C   UNL     1       0.478   2.958  19.451  0.00  0.00    +0.000 C 
ATOM      2  C   UNL     1       1.928   3.176  19.104  0.00  0.00    +0.000 A 
ATOM      3  C   UNL     1       2.560   2.274  18.229  0.00  0.00    +0.000 A 
ATOM      4  C   UNL     1       3.904   2.409  17.868  0.00  0.00    +0.000 A 
ATOM      5  C   UNL     1       4.588   3.492  18.416  0.00  0.00    +0.000 A 
ATOM      6  N   UNL     1       5.887   3.913  18.291  0.00  0.00    +0.000 N 
ATOM      7  C   UNL     1       6.050   5.045  19.050  0.00  0.00    +0.000 A 
ATOM      8  N   UNL     1       4.927   5.363  19.663  0.00  0.00    +0.000 NA
ATOM      9  C   UNL     1       4.005   4.409  19.285  0.00  0.00    +0.000 A 
ATOM     10  C   UNL     1       2.650   4.269  19.655  0.00  0.00    +0.000 A 
ATOM     11  C   UNL     1       1.995   5.234  20.602  0.00  0.00    +0.000 C 
ATOM     12  H   UNL     1       6.621   3.460  17.766  0.00  0.00    +0.000 HD
ENDROOT
BRANCH   7  13
ATOM     13  C   UNL     1       7.357   5.752  19.144  0.00  0.00    +0.000 C 
BRANCH  13  14
ATOM     14  N   UNL     1       8.037   5.414  20.394  0.00  0.00    +0.000 NA
ATOM     15  H   UNL     1       7.664   4.523  20.720  0.00  0.00    +0.000 HD
ATOM     16  H   UNL     1       7.753   6.093  21.100  0.00  0.00    +0.000 HD
ENDBRANCH  13  14
ENDBRANCH   7  13
TORSDOF 2
ENDMDL
MODEL 2
REMARK VINA RESULT:      -6.3      1.229      2.033
REMARK  Name = 
REMARK  4 active torsions:
REMARK  status: ('A' for Active; 'I' for Inactive)
REMARK    1  A    between atoms: C_1  and  C_2
REMARK    2  A    between atoms: C_7  and  C_8
REMARK    3  A    between atoms: C_8  and  N_9
REMARK    4  A    between atoms: C_12  and  C_13
REMARK                            x       y       z     vdW  Elec       q    Type
REMARK                         _______ _______ _______ _____ _____    ______ ____
ROOT
ATOM      1  C   UNL     1       0.991   2.519  18.560  0.00  0.00    +0.000 C 
ATOM      2  C   UNL     1       2.124   3.511  18.514  0.00  0.00    +0.000 A 
ATOM      3  C   UNL     1       1.856   4.829  18.104  0.00  0.00    +0.000 A 
ATOM      4  C   UNL     1       2.859   5.801  18.029  0.00  0.00    +0.000 A 
ATOM      5  C   UNL     1       4.143   5.398  18.390  0.00  0.00    +0.000 A 
ATOM      6  N   UNL     1       5.338   6.069  18.425  0.00  0.00    +0.000 N 
ATOM      7  C   UNL     1       6.310   5.200  18.855  0.00  0.00    +0.000 A 
ATOM      8  N   UNL     1       5.801   4.006  19.086  0.00  0.00    +0.000 NA
ATOM      9  C   UNL     1       4.455   4.106  18.801  0.00  0.00    +0.000 A 
ATOM     10  C   UNL     1       3.445   3.123  18.870  0.00  0.00    +0.000 A 
ATOM     11  C   UNL     1       3.751   1.715  19.296  0.00  0.00    +0.000 C 
ATOM     12  H   UNL     1       5.502   7.026  18.148  0.00  0.00    +0.000 HD
ENDROOT
BRANCH   7  13
ATOM     13  C   UNL     1       7.734   5.613  18.993  0.00  0.00    +0.000 C 
BRANCH  13  14
ATOM     14  N   UNL     1       8.169   5.506  20.385  0.00  0.00    +0.000 NA
ATOM     15  H   UNL     1       8.414   6.443  20.706  0.00  0.00    +0.000 HD
ATOM     16  H   UNL     1       9.046   4.986  20.402  0.00  0.00    +0.000 HD
ENDBRANCH  13  14
ENDBRANCH   7  13
TORSDOF 2
ENDMDL
MODEL 3
REMARK VINA RESULT:      -6.1      2.070      4.942
REMARK  Name = 
REMARK  4 active torsions:
REMARK  status: ('A' for Active; 'I' for Inactive)
REMARK    1  A    between atoms: C_1  and  C_2
REMARK    2  A    between atoms: C_7  and  C_8
REMARK    3  A    between atoms: C_8  and  N_9
REMARK    4  A    between atoms: C_12  and  C_13
REMARK                            x       y       z     vdW  Elec       q    Type
REMARK                         _______ _______ _______ _____ _____    ______ ____
ROOT
ATOM      1  C   UNL     1       7.852   7.860  17.710  0.00  0.00    +0.000 C 
ATOM      2  C   UNL     1       6.756   6.831  17.624  0.00  0.00    +0.000 A 
ATOM      3  C   UNL     1       5.772   6.969  16.628  0.00  0.00    +0.000 A 
ATOM      4  C   UNL     1       4.721   6.057  16.493  0.00  0.00    +0.000 A 
ATOM      5  C   UNL     1       4.700   4.994  17.394  0.00  0.00    +0.000 A 
ATOM      6  N   UNL     1       3.830   3.946  17.555  0.00  0.00    +0.000 N 
ATOM      7  C   UNL     1       4.269   3.178  18.604  0.00  0.00    +0.000 A 
ATOM      8  N   UNL     1       5.365   3.686  19.130  0.00  0.00    +0.000 NA
ATOM      9  C   UNL     1       5.650   4.817  18.395  0.00  0.00    +0.000 A 
ATOM     10  C   UNL     1       6.707   5.741  18.537  0.00  0.00    +0.000 A 
ATOM     11  C   UNL     1       7.742   5.587  19.615  0.00  0.00    +0.000 C 
ATOM     12  H   UNL     1       2.987   3.774  17.026  0.00  0.00    +0.000 HD
ENDROOT
BRANCH   7  13
ATOM     13  C   UNL     1       3.537   1.961  19.051  0.00  0.00    +0.000 C 
BRANCH  13  14
ATOM     14  N   UNL     1       4.051   0.771  18.371  0.00  0.00    +0.000 NA
ATOM     15  H   UNL     1       4.618   1.085  17.584  0.00  0.00    +0.000 HD
ATOM     16  H   UNL     1       3.260   0.284  17.949  0.00  0.00    +0.000 HD
ENDBRANCH  13  14
ENDBRANCH   7  13
TORSDOF 2
ENDMDL
MODEL 4
REMARK VINA RESULT:      -6.0      1.409      1.603
REMARK  Name = 
REMARK  4 active torsions:
REMARK  status: ('A' for Active; 'I' for Inactive)
REMARK    1  A    between atoms: C_1  and  C_2
REMARK    2  A    between atoms: C_7  and  C_8
REMARK    3  A    between atoms: C_8  and  N_9
REMARK    4  A    between atoms: C_12  and  C_13
REMARK                            x       y       z     vdW  Elec       q    Type
REMARK                         _______ _______ _______ _____ _____    ______ ____
ROOT
ATOM      1  C   UNL     1       0.920   3.841  20.592  0.00  0.00    +0.000 C 
ATOM      2  C   UNL     1       2.337   3.818  20.080  0.00  0.00    +0.000 A 
ATOM      3  C   UNL     1       3.012   2.587  20.005  0.00  0.00    +0.000 A 
ATOM      4  C   UNL     1       4.330   2.490  19.547  0.00  0.00    +0.000 A 
ATOM      5  C   UNL     1       4.943   3.681  19.162  0.00  0.00    +0.000 A 
ATOM      6  N   UNL     1       6.200   3.952  18.686  0.00  0.00    +0.000 N 
ATOM      7  C   UNL     1       6.295   5.302  18.462  0.00  0.00    +0.000 A 
ATOM      8  N   UNL     1       5.169   5.910  18.779  0.00  0.00    +0.000 NA
ATOM      9  C   UNL     1       4.315   4.921  19.219  0.00  0.00    +0.000 A 
ATOM     10  C   UNL     1       2.987   5.020  19.687  0.00  0.00    +0.000 A 
ATOM     11  C   UNL     1       2.286   6.346  19.775  0.00  0.00    +0.000 C 
ATOM     12  H   UNL     1       6.951   3.290  18.554  0.00  0.00    +0.000 HD
ENDROOT
BRANCH   7  13
ATOM     13  C   UNL     1       7.544   5.932  17.952  0.00  0.00    +0.000 C 
BRANCH  13  14
ATOM     14  N   UNL     1       7.368   6.383  16.572  0.00  0.00    +0.000 NA
ATOM     15  H   UNL     1       6.622   5.827  16.156  0.00  0.00    +0.000 HD
ATOM     16  H   UNL     1       8.207   6.132  16.049  0.00  0.00    +0.000 HD
ENDBRANCH  13  14
ENDBRANCH   7  13
TORSDOF 2
ENDMDL
MODEL 5
REMARK VINA RESULT:      -6.0      1.401      1.401
REMARK  Name = 
REMARK  4 active torsions:
REMARK  status: ('A' for Active; 'I' for Inactive)
REMARK    1  A    between atoms: C_1  and  C_2
REMARK    2  A    between atoms: C_7  and  C_8
REMARK    3  A    between atoms: C_8  and  N_9
REMARK    4  A    between atoms: C_12  and  C_13
REMARK                            x       y       z     vdW  Elec       q    Type
REMARK                         _______ _______ _______ _____ _____    ______ ____
ROOT
ATOM      1  C   UNL     1       0.524   3.281  20.291  0.00  0.00    +0.000 C 
ATOM      2  C   UNL     1       1.770   3.291  19.444  0.00  0.00    +0.000 A 
ATOM      3  C   UNL     1       2.024   2.197  18.598  0.00  0.00    +0.000 A 
ATOM      4  C   UNL     1       3.164   2.134  17.789  0.00  0.00    +0.000 A 
ATOM      5  C   UNL     1       4.036   3.219  17.859  0.00  0.00    +0.000 A 
ATOM      6  N   UNL     1       5.225   3.480  17.228  0.00  0.00    +0.000 N 
ATOM      7  C   UNL     1       5.683   4.700  17.658  0.00  0.00    +0.000 A 
ATOM      8  N   UNL     1       4.856   5.227  18.539  0.00  0.00    +0.000 NA
ATOM      9  C   UNL     1       3.825   4.322  18.680  0.00  0.00    +0.000 A 
ATOM     10  C   UNL     1       2.679   4.382  19.502  0.00  0.00    +0.000 A 
ATOM     11  C   UNL     1       2.430   5.552  20.411  0.00  0.00    +0.000 C 
ATOM     12  H   UNL     1       5.713   2.875  16.585  0.00  0.00    +0.000 HD
ENDROOT
BRANCH   7  13
ATOM     13  C   UNL     1       6.966   5.278  17.172  0.00  0.00    +0.000 C 
BRANCH  13  14
ATOM     14  N   UNL     1       7.989   4.238  17.056  0.00  0.00    +0.000 NA
ATOM     15  H   UNL     1       8.686   4.406  17.781  0.00  0.00    +0.000 HD
ATOM     16  H   UNL     1       8.484   4.380  16.176  0.00  0.00    +0.000 HD
ENDBRANCH  13  14
ENDBRANCH   7  13
TORSDOF 2
ENDMDL
MODEL 6
REMARK VINA RESULT:      -6.0      1.145      1.235
REMARK  Name = 
REMARK  4 active torsions:
REMARK  status: ('A' for Active; 'I' for Inactive)
REMARK    1  A    between atoms: C_1  and  C_2
REMARK    2  A    between atoms: C_7  and  C_8
REMARK    3  A    between atoms: C_8  and  N_9
REMARK    4  A    between atoms: C_12  and  C_13
REMARK                            x       y       z     vdW  Elec       q    Type
REMARK                         _______ _______ _______ _____ _____    ______ ____
ROOT
ATOM      1  C   UNL     1       1.129   2.294  18.852  0.00  0.00    +0.000 C 
ATOM      2  C   UNL     1       2.395   3.024  18.482  0.00  0.00    +0.000 A 
ATOM      3  C   UNL     1       2.636   3.321  17.129  0.00  0.00    +0.000 A 
ATOM      4  C   UNL     1       3.792   3.989  16.712  0.00  0.00    +0.000 A 
ATOM      5  C   UNL     1       4.694   4.352  17.709  0.00  0.00    +0.000 A 
ATOM      6  N   UNL     1       5.905   4.993  17.660  0.00  0.00    +0.000 N 
ATOM      7  C   UNL     1       6.390   5.102  18.939  0.00  0.00    +0.000 A 
ATOM      8  N   UNL     1       5.558   4.554  19.803  0.00  0.00    +0.000 NA
ATOM      9  C   UNL     1       4.498   4.079  19.059  0.00  0.00    +0.000 A 
ATOM     10  C   UNL     1       3.335   3.399  19.481  0.00  0.00    +0.000 A 
ATOM     11  C   UNL     1       3.100   3.077  20.929  0.00  0.00    +0.000 C 
ATOM     12  H   UNL     1       6.390   5.305  16.831  0.00  0.00    +0.000 HD
ENDROOT
BRANCH   7  13
ATOM     13  C   UNL     1       7.701   5.742  19.235  0.00  0.00    +0.000 C 
BRANCH  13  14
ATOM     14  N   UNL     1       8.144   5.408  20.589  0.00  0.00    +0.000 NA
ATOM     15  H   UNL     1       8.787   4.619  20.520  0.00  0.00    +0.000 HD
ATOM     16  H   UNL     1       7.340   5.047  21.103  0.00  0.00    +0.000 HD
ENDBRANCH  13  14
ENDBRANCH   7  13
TORSDOF 2
ENDMDL
MODEL 7
REMARK VINA RESULT:      -5.9      1.659      2.125
REMARK  Name = 
REMARK  4 active torsions:
REMARK  status: ('A' for Active; 'I' for Inactive)
REMARK    1  A    between atoms: C_1  and  C_2
REMARK    2  A    between atoms: C_7  and  C_8
REMARK    3  A    between atoms: C_8  and  N_9
REMARK    4  A    between atoms: C_12  and  C_13
REMARK                            x       y       z     vdW  Elec       q    Type
REMARK                         _______ _______ _______ _____ _____    ______ ____
ROOT
ATOM      1  C   UNL     1       0.635   2.847  19.698  0.00  0.00    +0.000 C 
ATOM      2  C   UNL     1       2.099   3.107  19.455  0.00  0.00    +0.000 A 
ATOM      3  C   UNL     1       3.048   2.462  20.269  0.00  0.00    +0.000 A 
ATOM      4  C   UNL     1       4.422   2.662  20.107  0.00  0.00    +0.000 A 
ATOM      5  C   UNL     1       4.808   3.531  19.088  0.00  0.00    +0.000 A 
ATOM      6  N   UNL     1       6.041   3.956  18.664  0.00  0.00    +0.000 N 
ATOM      7  C   UNL     1       5.862   4.822  17.615  0.00  0.00    +0.000 A 
ATOM      8  N   UNL     1       4.580   4.982  17.353  0.00  0.00    +0.000 NA
ATOM      9  C   UNL     1       3.906   4.190  18.258  0.00  0.00    +0.000 A 
ATOM     10  C   UNL     1       2.518   3.995  18.427  0.00  0.00    +0.000 A 
ATOM     11  C   UNL     1       1.518   4.703  17.557  0.00  0.00    +0.000 C 
ATOM     12  H   UNL     1       6.934   3.714  19.067  0.00  0.00    +0.000 HD
ENDROOT
BRANCH   7  13
ATOM     13  C   UNL     1       7.009   5.478  16.929  0.00  0.00    +0.000 C 
BRANCH  13  14
ATOM     14  N   UNL     1       7.387   4.733  15.728  0.00  0.00    +0.000 NA
ATOM     15  H   UNL     1       6.837   5.099  14.950  0.00  0.00    +0.000 HD
ATOM     16  H   UNL     1       7.071   3.770  15.842  0.00  0.00    +0.000 HD
ENDBRANCH  13  14
ENDBRANCH   7  13
TORSDOF 2
ENDMDL
MODEL 8
REMARK VINA RESULT:      -5.9      2.400      3.252
REMARK  Name = 
REMARK  4 active torsions:
REMARK  status: ('A' for Active; 'I' for Inactive)
REMARK    1  A    between atoms: C_1  and  C_2
REMARK    2  A    between atoms: C_7  and  C_8
REMARK    3  A    between atoms: C_8  and  N_9
REMARK    4  A    between atoms: C_12  and  C_13
REMARK                            x       y       z     vdW  Elec       q    Type
REMARK                         _______ _______ _______ _____ _____    ______ ____
ROOT
ATOM      1  C   UNL     1       1.091   3.902  20.139  0.00  0.00    +0.000 C 
ATOM      2  C   UNL     1       2.111   4.450  19.174  0.00  0.00    +0.000 A 
ATOM      3  C   UNL     1       2.270   5.844  19.074  0.00  0.00    +0.000 A 
ATOM      4  C   UNL     1       3.191   6.424  18.196  0.00  0.00    +0.000 A 
ATOM      5  C   UNL     1       3.952   5.547  17.426  0.00  0.00    +0.000 A 
ATOM      6  N   UNL     1       4.918   5.764  16.477  0.00  0.00    +0.000 N 
ATOM      7  C   UNL     1       5.352   4.546  16.016  0.00  0.00    +0.000 A 
ATOM      8  N   UNL     1       4.707   3.563  16.612  0.00  0.00    +0.000 NA
ATOM      9  C   UNL     1       3.830   4.163  17.491  0.00  0.00    +0.000 A 
ATOM     10  C   UNL     1       2.895   3.577  18.372  0.00  0.00    +0.000 A 
ATOM     11  C   UNL     1       2.728   2.087  18.456  0.00  0.00    +0.000 C 
ATOM     12  H   UNL     1       5.239   6.658  16.135  0.00  0.00    +0.000 HD
ENDROOT
BRANCH   7  13
ATOM     13  C   UNL     1       6.397   4.428  14.962  0.00  0.00    +0.000 C 
BRANCH  13  14
ATOM     14  N   UNL     1       7.481   5.381  15.201  0.00  0.00    +0.000 NA
ATOM     15  H   UNL     1       8.333   4.846  15.368  0.00  0.00    +0.000 HD
ATOM     16  H   UNL     1       7.292   5.858  16.082  0.00  0.00    +0.000 HD
ENDBRANCH  13  14
ENDBRANCH   7  13
TORSDOF 2
ENDMDL
MODEL 9
REMARK VINA RESULT:      -5.9      2.393      2.931
REMARK  Name = 
REMARK  4 active torsions:
REMARK  status: ('A' for Active; 'I' for Inactive)
REMARK    1  A    between atoms: C_1  and  C_2
REMARK    2  A    between atoms: C_7  and  C_8
REMARK    3  A    between atoms: C_8  and  N_9
REMARK    4  A    between atoms: C_12  and  C_13
REMARK                            x       y       z     vdW  Elec       q    Type
REMARK                         _______ _______ _______ _____ _____    ______ ____
ROOT
ATOM      1  C   UNL     1       1.791   5.530  20.546  0.00  0.00    +0.000 C 
ATOM      2  C   UNL     1       2.737   4.913  19.548  0.00  0.00    +0.000 A 
ATOM      3  C   UNL     1       3.145   3.580  19.735  0.00  0.00    +0.000 A 
ATOM      4  C   UNL     1       4.026   2.944  18.854  0.00  0.00    +0.000 A 
ATOM      5  C   UNL     1       4.476   3.699  17.772  0.00  0.00    +0.000 A 
ATOM      6  N   UNL     1       5.334   3.406  16.744  0.00  0.00    +0.000 N 
ATOM      7  C   UNL     1       5.442   4.513  15.941  0.00  0.00    +0.000 A 
ATOM      8  N   UNL     1       4.707   5.504  16.408  0.00  0.00    +0.000 NA
ATOM      9  C   UNL     1       4.100   5.020  17.548  0.00  0.00    +0.000 A 
ATOM     10  C   UNL     1       3.216   5.664  18.441  0.00  0.00    +0.000 A 
ATOM     11  C   UNL     1       2.802   7.093  18.235  0.00  0.00    +0.000 C 
ATOM     12  H   UNL     1       5.839   2.542  16.606  0.00  0.00    +0.000 HD
ENDROOT
BRANCH   7  13
ATOM     13  C   UNL     1       6.313   4.532  14.734  0.00  0.00    +0.000 C 
BRANCH  13  14
ATOM     14  N   UNL     1       7.540   5.285  14.994  0.00  0.00    +0.000 NA
ATOM     15  H   UNL     1       7.622   5.405  16.004  0.00  0.00    +0.000 HD
ATOM     16  H   UNL     1       7.414   6.228  14.627  0.00  0.00    +0.000 HD
ENDBRANCH  13  14
ENDBRANCH   7  13
TORSDOF 2
ENDMDL
