MODEL 1
REMARK VINA RESULT:      -9.0      0.000      0.000
REMARK  Name = 
REMARK  7 active torsions:
REMARK  status: ('A' for Active; 'I' for Inactive)
REMARK    1  A    between atoms: C_1  and  O_2
REMARK    2  A    between atoms: O_2  and  C_3
REMARK    3  A    between atoms: C_8  and  N_9
REMARK    4  A    between atoms: N_12  and  C_13
REMARK    5  A    between atoms: C_13  and  C_14
REMARK    6  A    between atoms: C_13  and  C_20
REMARK    7  A    between atoms: C_20  and  O_21
REMARK                            x       y       z     vdW  Elec       q    Type
REMARK                         _______ _______ _______ _____ _____    ______ ____
ROOT
ATOM      1  N   UNL     1       7.178   4.904  17.928  0.00  0.00    +0.000 N 
ATOM      2  C   UNL     1       6.322   5.136  18.968  0.00  0.00    +0.000 C 
ATOM      3  O   UNL     1       6.764   5.455  20.069  0.00  0.00    +0.000 OA
ATOM      4  N   UNL     1       5.003   5.009  18.698  0.00  0.00    +0.000 N 
ATOM      5  H   UNL     1       8.146   5.026  18.178  0.00  0.00    +0.000 HD
ATOM      6  H   UNL     1       4.783   4.620  17.784  0.00  0.00    +0.000 HD
ENDROOT
BRANCH   1  12
ATOM      7  C   UNL     1       6.121   3.825  12.637  0.00  0.00    +0.000 A 
ATOM      8  N   UNL     1       7.028   4.592  12.026  0.00  0.00    +0.000 NA
ATOM      9  N   UNL     1       7.681   5.169  13.052  0.00  0.00    +0.000 N 
ATOM     10  C   UNL     1       7.217   4.805  14.290  0.00  0.00    +0.000 A 
ATOM     11  C   UNL     1       7.596   5.167  15.585  0.00  0.00    +0.000 A 
ATOM     12  C   UNL     1       6.859   4.570  16.604  0.00  0.00    +0.000 A 
ATOM     13  N   UNL     1       5.854   3.688  16.375  0.00  0.00    +0.000 NA
ATOM     14  C   UNL     1       5.509   3.346  15.108  0.00  0.00    +0.000 A 
ATOM     15  C   UNL     1       6.185   3.909  14.038  0.00  0.00    +0.000 A 
ATOM     16  H   UNL     1       8.437   5.808  12.835  0.00  0.00    +0.000 HD
BRANCH   7  18
ATOM     17  C   UNL     1       5.801   1.858  11.429  0.00  0.00    +0.000 C 
ATOM     18  O   UNL     1       5.248   3.066  11.937  0.00  0.00    +0.000 OA
ENDBRANCH   7  18
ENDBRANCH   1  12
BRANCH   4  19
ATOM     19  C   UNL     1       3.900   5.265  19.602  0.00  0.00    +0.000 C 
BRANCH  19  20
ATOM     20  C   UNL     1       3.142   6.526  19.165  0.00  0.00    +0.000 A 
ATOM     21  C   UNL     1       3.286   7.101  17.888  0.00  0.00    +0.000 A 
ATOM     22  C   UNL     1       2.578   8.253  17.530  0.00  0.00    +0.000 A 
ATOM     23  C   UNL     1       1.710   8.849  18.438  0.00  0.00    +0.000 A 
ATOM     24  C   UNL     1       1.548   8.295  19.704  0.00  0.00    +0.000 A 
ATOM     25  C   UNL     1       2.261   7.149  20.066  0.00  0.00    +0.000 A 
ENDBRANCH  19  20
BRANCH  19  26
ATOM     26  C   UNL     1       2.987   4.001  19.705  0.00  0.00    +0.000 C 
ATOM     27  C   UNL     1       1.777   4.037  18.764  0.00  0.00    +0.000 C 
ATOM     28  C   UNL     1       0.803   3.007  19.332  0.00  0.00    +0.000 C 
ATOM     29  C   UNL     1       1.158   2.862  20.810  0.00  0.00    +0.000 C 
ATOM     30  C   UNL     1       2.293   3.855  21.068  0.00  0.00    +0.000 C 
BRANCH  26  31
ATOM     31  O   UNL     1       3.735   2.791  19.485  0.00  0.00    +0.000 OA
ATOM     32  H   UNL     1       4.056   2.483  20.350  0.00  0.00    +0.000 HD
ENDBRANCH  26  31
ENDBRANCH  19  26
ENDBRANCH   4  19
TORSDOF 6
ENDMDL
MODEL 2
REMARK VINA RESULT:      -8.7      0.805      1.380
REMARK  Name = 
REMARK  7 active torsions:
REMARK  status: ('A' for Active; 'I' for Inactive)
REMARK    1  A    between atoms: C_1  and  O_2
REMARK    2  A    between atoms: O_2  and  C_3
REMARK    3  A    between atoms: C_8  and  N_9
REMARK    4  A    between atoms: N_12  and  C_13
REMARK    5  A    between atoms: C_13  and  C_14
REMARK    6  A    between atoms: C_13  and  C_20
REMARK    7  A    between atoms: C_20  and  O_21
REMARK                            x       y       z     vdW  Elec       q    Type
REMARK                         _______ _______ _______ _____ _____    ______ ____
ROOT
ATOM      1  N   UNL     1       7.179   4.961  17.906  0.00  0.00    +0.000 N 
ATOM      2  C   UNL     1       6.307   5.177  18.936  0.00  0.00    +0.000 C 
ATOM      3  O   UNL     1       6.727   5.548  20.030  0.00  0.00    +0.000 OA
ATOM      4  N   UNL     1       4.997   4.975  18.665  0.00  0.00    +0.000 N 
ATOM      5  H   UNL     1       8.139   5.138  18.156  0.00  0.00    +0.000 HD
ATOM      6  H   UNL     1       4.802   4.551  17.761  0.00  0.00    +0.000 HD
ENDROOT
BRANCH   1  12
ATOM      7  C   UNL     1       6.192   3.690  12.643  0.00  0.00    +0.000 A 
ATOM      8  N   UNL     1       7.022   4.524  12.012  0.00  0.00    +0.000 NA
ATOM      9  N   UNL     1       7.627   5.178  13.022  0.00  0.00    +0.000 N 
ATOM     10  C   UNL     1       7.205   4.797  14.270  0.00  0.00    +0.000 A 
ATOM     11  C   UNL     1       7.557   5.216  15.555  0.00  0.00    +0.000 A 
ATOM     12  C   UNL     1       6.884   4.574  16.590  0.00  0.00    +0.000 A 
ATOM     13  N   UNL     1       5.961   3.600  16.385  0.00  0.00    +0.000 NA
ATOM     14  C   UNL     1       5.642   3.205  15.128  0.00  0.00    +0.000 A 
ATOM     15  C   UNL     1       6.258   3.806  14.042  0.00  0.00    +0.000 A 
ATOM     16  H   UNL     1       8.320   5.879  12.788  0.00  0.00    +0.000 HD
BRANCH   7  18
ATOM     17  C   UNL     1       4.233   3.455  11.404  0.00  0.00    +0.000 C 
ATOM     18  O   UNL     1       5.388   2.842  11.965  0.00  0.00    +0.000 OA
ENDBRANCH   7  18
ENDBRANCH   1  12
BRANCH   4  19
ATOM     19  C   UNL     1       3.879   5.200  19.559  0.00  0.00    +0.000 C 
BRANCH  19  20
ATOM     20  C   UNL     1       3.139   6.486  19.163  0.00  0.00    +0.000 A 
ATOM     21  C   UNL     1       2.250   7.153  20.027  0.00  0.00    +0.000 A 
ATOM     22  C   UNL     1       1.591   8.320  19.627  0.00  0.00    +0.000 A 
ATOM     23  C   UNL     1       1.814   8.846  18.360  0.00  0.00    +0.000 A 
ATOM     24  C   UNL     1       2.693   8.207  17.491  0.00  0.00    +0.000 A 
ATOM     25  C   UNL     1       3.344   7.035  17.886  0.00  0.00    +0.000 A 
ENDBRANCH  19  20
BRANCH  19  26
ATOM     26  C   UNL     1       2.955   3.940  19.586  0.00  0.00    +0.000 C 
ATOM     27  C   UNL     1       3.584   2.700  18.940  0.00  0.00    +0.000 C 
ATOM     28  C   UNL     1       2.410   1.769  18.645  0.00  0.00    +0.000 C 
ATOM     29  C   UNL     1       1.176   2.664  18.551  0.00  0.00    +0.000 C 
ATOM     30  C   UNL     1       1.681   4.096  18.741  0.00  0.00    +0.000 C 
BRANCH  26  31
ATOM     31  O   UNL     1       2.532   3.626  20.927  0.00  0.00    +0.000 OA
ATOM     32  H   UNL     1       2.862   2.736  21.136  0.00  0.00    +0.000 HD
ENDBRANCH  26  31
ENDBRANCH  19  26
ENDBRANCH   4  19
TORSDOF 6
ENDMDL
MODEL 3
REMARK VINA RESULT:      -8.5      0.953      1.430
REMARK  Name = 
REMARK  7 active torsions:
REMARK  status: ('A' for Active; 'I' for Inactive)
REMARK    1  A    between atoms: C_1  and  O_2
REMARK    2  A    between atoms: O_2  and  C_3
REMARK    3  A    between atoms: C_8  and  N_9
REMARK    4  A    between atoms: N_12  and  C_13
REMARK    5  A    between atoms: C_13  and  C_14
REMARK    6  A    between atoms: C_13  and  C_20
REMARK    7  A    between atoms: C_20  and  O_21
REMARK                            x       y       z     vdW  Elec       q    Type
REMARK                         _______ _______ _______ _____ _____    ______ ____
ROOT
ATOM      1  N   UNL     1       6.755   5.129  17.877  0.00  0.00    +0.000 N 
ATOM      2  C   UNL     1       5.782   5.321  18.818  0.00  0.00    +0.000 C 
ATOM      3  O   UNL     1       6.080   5.728  19.938  0.00  0.00    +0.000 OA
ATOM      4  N   UNL     1       4.514   5.052  18.430  0.00  0.00    +0.000 N 
ATOM      5  H   UNL     1       7.678   5.356  18.212  0.00  0.00    +0.000 HD
ATOM      6  H   UNL     1       4.424   4.605  17.521  0.00  0.00    +0.000 HD
ENDROOT
BRANCH   1  12
ATOM      7  C   UNL     1       6.330   3.729  12.573  0.00  0.00    +0.000 A 
ATOM      8  N   UNL     1       7.194   4.576  12.008  0.00  0.00    +0.000 NA
ATOM      9  N   UNL     1       7.676   5.267  13.057  0.00  0.00    +0.000 N 
ATOM     10  C   UNL     1       7.145   4.897  14.266  0.00  0.00    +0.000 A 
ATOM     11  C   UNL     1       7.356   5.351  15.570  0.00  0.00    +0.000 A 
ATOM     12  C   UNL     1       6.603   4.709  16.548  0.00  0.00    +0.000 A 
ATOM     13  N   UNL     1       5.734   3.703  16.275  0.00  0.00    +0.000 NA
ATOM     14  C   UNL     1       5.552   3.274  15.001  0.00  0.00    +0.000 A 
ATOM     15  C   UNL     1       6.254   3.873  13.968  0.00  0.00    +0.000 A 
ATOM     16  H   UNL     1       8.369   5.985  12.877  0.00  0.00    +0.000 HD
BRANCH   7  18
ATOM     17  C   UNL     1       4.328   3.299  11.462  0.00  0.00    +0.000 C 
ATOM     18  O   UNL     1       5.622   2.844  11.837  0.00  0.00    +0.000 OA
ENDBRANCH   7  18
ENDBRANCH   1  12
BRANCH   4  19
ATOM     19  C   UNL     1       3.308   5.237  19.211  0.00  0.00    +0.000 C 
BRANCH  19  20
ATOM     20  C   UNL     1       2.762   6.658  19.010  0.00  0.00    +0.000 A 
ATOM     21  C   UNL     1       2.045   7.350  20.004  0.00  0.00    +0.000 A 
ATOM     22  C   UNL     1       1.560   8.643  19.779  0.00  0.00    +0.000 A 
ATOM     23  C   UNL     1       1.790   9.271  18.560  0.00  0.00    +0.000 A 
ATOM     24  C   UNL     1       2.501   8.608  17.564  0.00  0.00    +0.000 A 
ATOM     25  C   UNL     1       2.978   7.312  17.785  0.00  0.00    +0.000 A 
ENDBRANCH  19  20
BRANCH  19  26
ATOM     26  C   UNL     1       2.269   4.123  18.864  0.00  0.00    +0.000 C 
ATOM     27  C   UNL     1       1.232   3.881  19.968  0.00  0.00    +0.000 C 
ATOM     28  C   UNL     1       0.645   2.505  19.665  0.00  0.00    +0.000 C 
ATOM     29  C   UNL     1       1.698   1.770  18.839  0.00  0.00    +0.000 C 
ATOM     30  C   UNL     1       2.890   2.723  18.735  0.00  0.00    +0.000 C 
BRANCH  26  31
ATOM     31  O   UNL     1       1.597   4.399  17.620  0.00  0.00    +0.000 OA
ATOM     32  H   UNL     1       2.045   3.886  16.926  0.00  0.00    +0.000 HD
ENDBRANCH  26  31
ENDBRANCH  19  26
ENDBRANCH   4  19
TORSDOF 6
ENDMDL
MODEL 4
REMARK VINA RESULT:      -7.8      4.823      7.305
REMARK  Name = 
REMARK  7 active torsions:
REMARK  status: ('A' for Active; 'I' for Inactive)
REMARK    1  A    between atoms: C_1  and  O_2
REMARK    2  A    between atoms: O_2  and  C_3
REMARK    3  A    between atoms: C_8  and  N_9
REMARK    4  A    between atoms: N_12  and  C_13
REMARK    5  A    between atoms: C_13  and  C_14
REMARK    6  A    between atoms: C_13  and  C_20
REMARK    7  A    between atoms: C_20  and  O_21
REMARK                            x       y       z     vdW  Elec       q    Type
REMARK                         _______ _______ _______ _____ _____    ______ ____
ROOT
ATOM      1  N   UNL     1       2.676   8.349  17.869  0.00  0.00    +0.000 N 
ATOM      2  C   UNL     1       2.138   9.581  18.112  0.00  0.00    +0.000 C 
ATOM      3  O   UNL     1       2.514  10.556  17.466  0.00  0.00    +0.000 OA
ATOM      4  N   UNL     1       1.186   9.640  19.072  0.00  0.00    +0.000 N 
ATOM      5  H   UNL     1       3.369   8.358  17.138  0.00  0.00    +0.000 HD
ATOM      6  H   UNL     1       1.061   8.787  19.612  0.00  0.00    +0.000 HD
ENDROOT
BRANCH   1  12
ATOM      7  C   UNL     1       1.329   3.441  19.961  0.00  0.00    +0.000 A 
ATOM      8  N   UNL     1       1.207   2.707  18.852  0.00  0.00    +0.000 NA
ATOM      9  N   UNL     1       1.497   3.583  17.872  0.00  0.00    +0.000 N 
ATOM     10  C   UNL     1       1.790   4.847  18.316  0.00  0.00    +0.000 A 
ATOM     11  C   UNL     1       2.127   6.028  17.651  0.00  0.00    +0.000 A 
ATOM     12  C   UNL     1       2.349   7.127  18.475  0.00  0.00    +0.000 A 
ATOM     13  N   UNL     1       2.263   7.070  19.828  0.00  0.00    +0.000 NA
ATOM     14  C   UNL     1       1.941   5.910  20.452  0.00  0.00    +0.000 A 
ATOM     15  C   UNL     1       1.690   4.773  19.700  0.00  0.00    +0.000 A 
ATOM     16  H   UNL     1       1.474   3.251  16.914  0.00  0.00    +0.000 HD
BRANCH   7  18
ATOM     17  C   UNL     1       2.298   2.508  21.864  0.00  0.00    +0.000 C 
ATOM     18  O   UNL     1       1.114   2.913  21.187  0.00  0.00    +0.000 OA
ENDBRANCH   7  18
ENDBRANCH   1  12
BRANCH   4  19
ATOM     19  C   UNL     1       0.419  10.804  19.467  0.00  0.00    +0.000 C 
BRANCH  19  20
ATOM     20  C   UNL     1      -0.944  10.803  18.761  0.00  0.00    +0.000 A 
ATOM     21  C   UNL     1      -1.846  11.881  18.837  0.00  0.00    +0.000 A 
ATOM     22  C   UNL     1      -3.081  11.838  18.182  0.00  0.00    +0.000 A 
ATOM     23  C   UNL     1      -3.435  10.721  17.433  0.00  0.00    +0.000 A 
ATOM     24  C   UNL     1      -2.557   9.646  17.339  0.00  0.00    +0.000 A 
ATOM     25  C   UNL     1      -1.326   9.684  18.002  0.00  0.00    +0.000 A 
ENDBRANCH  19  20
BRANCH  19  26
ATOM     26  C   UNL     1       0.307  10.868  21.024  0.00  0.00    +0.000 C 
ATOM     27  C   UNL     1       0.524   9.515  21.713  0.00  0.00    +0.000 C 
ATOM     28  C   UNL     1      -0.077   9.680  23.107  0.00  0.00    +0.000 C 
ATOM     29  C   UNL     1      -1.100  10.807  22.994  0.00  0.00    +0.000 C 
ATOM     30  C   UNL     1      -1.102  11.226  21.523  0.00  0.00    +0.000 C 
BRANCH  26  31
ATOM     31  O   UNL     1       1.208  11.844  21.579  0.00  0.00    +0.000 OA
ATOM     32  H   UNL     1       1.799  12.136  20.863  0.00  0.00    +0.000 HD
ENDBRANCH  26  31
ENDBRANCH  19  26
ENDBRANCH   4  19
TORSDOF 6
ENDMDL
MODEL 5
REMARK VINA RESULT:      -7.6      4.826      7.571
REMARK  Name = 
REMARK  7 active torsions:
REMARK  status: ('A' for Active; 'I' for Inactive)
REMARK    1  A    between atoms: C_1  and  O_2
REMARK    2  A    between atoms: O_2  and  C_3
REMARK    3  A    between atoms: C_8  and  N_9
REMARK    4  A    between atoms: N_12  and  C_13
REMARK    5  A    between atoms: C_13  and  C_14
REMARK    6  A    between atoms: C_13  and  C_20
REMARK    7  A    between atoms: C_20  and  O_21
REMARK                            x       y       z     vdW  Elec       q    Type
REMARK                         _______ _______ _______ _____ _____    ______ ____
ROOT
ATOM      1  N   UNL     1       0.640   8.789  21.140  0.00  0.00    +0.000 N 
ATOM      2  C   UNL     1      -0.078   9.938  20.959  0.00  0.00    +0.000 C 
ATOM      3  O   UNL     1      -0.722  10.415  21.891  0.00  0.00    +0.000 OA
ATOM      4  N   UNL     1      -0.017  10.495  19.728  0.00  0.00    +0.000 N 
ATOM      5  H   UNL     1       0.571   8.423  22.076  0.00  0.00    +0.000 HD
ATOM      6  H   UNL     1       0.448   9.932  19.019  0.00  0.00    +0.000 HD
ENDROOT
BRANCH   1  12
ATOM      7  C   UNL     1       3.892   5.957  17.721  0.00  0.00    +0.000 A 
ATOM      8  N   UNL     1       4.082   4.831  18.413  0.00  0.00    +0.000 NA
ATOM      9  N   UNL     1       3.361   5.033  19.532  0.00  0.00    +0.000 N 
ATOM     10  C   UNL     1       2.727   6.248  19.580  0.00  0.00    +0.000 A 
ATOM     11  C   UNL     1       1.907   6.849  20.538  0.00  0.00    +0.000 A 
ATOM     12  C   UNL     1       1.455   8.124  20.213  0.00  0.00    +0.000 A 
ATOM     13  N   UNL     1       1.766   8.747  19.048  0.00  0.00    +0.000 NA
ATOM     14  C   UNL     1       2.558   8.141  18.130  0.00  0.00    +0.000 A 
ATOM     15  C   UNL     1       3.061   6.875  18.386  0.00  0.00    +0.000 A 
ATOM     16  H   UNL     1       3.345   4.296  20.228  0.00  0.00    +0.000 HD
BRANCH   7  18
ATOM     17  C   UNL     1       5.269   5.067  16.066  0.00  0.00    +0.000 C 
ATOM     18  O   UNL     1       4.463   6.151  16.512  0.00  0.00    +0.000 OA
ENDBRANCH   7  18
ENDBRANCH   1  12
BRANCH   4  19
ATOM     19  C   UNL     1      -0.627  11.739  19.304  0.00  0.00    +0.000 C 
BRANCH  19  20
ATOM     20  C   UNL     1       0.457  12.783  19.003  0.00  0.00    +0.000 A 
ATOM     21  C   UNL     1       0.259  14.165  19.180  0.00  0.00    +0.000 A 
ATOM     22  C   UNL     1       1.272  15.085  18.890  0.00  0.00    +0.000 A 
ATOM     23  C   UNL     1       2.504  14.640  18.424  0.00  0.00    +0.000 A 
ATOM     24  C   UNL     1       2.725  13.278  18.245  0.00  0.00    +0.000 A 
ATOM     25  C   UNL     1       1.710  12.359  18.526  0.00  0.00    +0.000 A 
ENDBRANCH  19  20
BRANCH  19  26
ATOM     26  C   UNL     1      -1.586  11.481  18.097  0.00  0.00    +0.000 C 
ATOM     27  C   UNL     1      -3.069  11.435  18.487  0.00  0.00    +0.000 C 
ATOM     28  C   UNL     1      -3.762  10.727  17.325  0.00  0.00    +0.000 C 
ATOM     29  C   UNL     1      -2.685   9.889  16.639  0.00  0.00    +0.000 C 
ATOM     30  C   UNL     1      -1.409  10.094  17.459  0.00  0.00    +0.000 C 
BRANCH  26  31
ATOM     31  O   UNL     1      -1.390  12.451  17.051  0.00  0.00    +0.000 OA
ATOM     32  H   UNL     1      -2.109  13.103  17.119  0.00  0.00    +0.000 HD
ENDBRANCH  26  31
ENDBRANCH  19  26
ENDBRANCH   4  19
TORSDOF 6
ENDMDL
MODEL 6
REMARK VINA RESULT:      -7.4      3.956      8.064
REMARK  Name = 
REMARK  7 active torsions:
REMARK  status: ('A' for Active; 'I' for Inactive)
REMARK    1  A    between atoms: C_1  and  O_2
REMARK    2  A    between atoms: O_2  and  C_3
REMARK    3  A    between atoms: C_8  and  N_9
REMARK    4  A    between atoms: N_12  and  C_13
REMARK    5  A    between atoms: C_13  and  C_14
REMARK    6  A    between atoms: C_13  and  C_20
REMARK    7  A    between atoms: C_20  and  O_21
REMARK                            x       y       z     vdW  Elec       q    Type
REMARK                         _______ _______ _______ _____ _____    ______ ____
ROOT
ATOM      1  N   UNL     1       2.616   8.695  17.721  0.00  0.00    +0.000 N 
ATOM      2  C   UNL     1       3.100   7.427  17.561  0.00  0.00    +0.000 C 
ATOM      3  O   UNL     1       3.879   7.177  16.645  0.00  0.00    +0.000 OA
ATOM      4  N   UNL     1       2.682   6.509  18.462  0.00  0.00    +0.000 N 
ATOM      5  H   UNL     1       2.968   9.343  17.033  0.00  0.00    +0.000 HD
ATOM      6  H   UNL     1       1.943   6.821  19.088  0.00  0.00    +0.000 HD
ENDROOT
BRANCH   1  12
ATOM      7  C   UNL     1      -0.829  10.815  21.452  0.00  0.00    +0.000 A 
ATOM      8  N   UNL     1      -1.397  11.802  20.754  0.00  0.00    +0.000 NA
ATOM      9  N   UNL     1      -0.813  11.698  19.545  0.00  0.00    +0.000 N 
ATOM     10  C   UNL     1       0.111  10.688  19.452  0.00  0.00    +0.000 A 
ATOM     11  C   UNL     1       0.931  10.251  18.410  0.00  0.00    +0.000 A 
ATOM     12  C   UNL     1       1.755   9.173  18.719  0.00  0.00    +0.000 A 
ATOM     13  N   UNL     1       1.763   8.570  19.935  0.00  0.00    +0.000 NA
ATOM     14  C   UNL     1       0.951   9.007  20.929  0.00  0.00    +0.000 A 
ATOM     15  C   UNL     1       0.111  10.086  20.705  0.00  0.00    +0.000 A 
ATOM     16  H   UNL     1      -1.091  12.353  18.824  0.00  0.00    +0.000 HD
BRANCH   7  18
ATOM     17  C   UNL     1      -1.966  11.591  23.331  0.00  0.00    +0.000 C 
ATOM     18  O   UNL     1      -1.154  10.582  22.742  0.00  0.00    +0.000 OA
ENDBRANCH   7  18
ENDBRANCH   1  12
BRANCH   4  19
ATOM     19  C   UNL     1       3.099   5.124  18.550  0.00  0.00    +0.000 C 
BRANCH  19  20
ATOM     20  C   UNL     1       4.617   5.017  18.349  0.00  0.00    +0.000 A 
ATOM     21  C   UNL     1       5.548   5.579  19.243  0.00  0.00    +0.000 A 
ATOM     22  C   UNL     1       6.925   5.462  19.022  0.00  0.00    +0.000 A 
ATOM     23  C   UNL     1       7.396   4.776  17.909  0.00  0.00    +0.000 A 
ATOM     24  C   UNL     1       6.494   4.208  17.014  0.00  0.00    +0.000 A 
ATOM     25  C   UNL     1       5.118   4.332  17.229  0.00  0.00    +0.000 A 
ENDBRANCH  19  20
BRANCH  19  26
ATOM     26  C   UNL     1       2.610   4.503  19.898  0.00  0.00    +0.000 C 
ATOM     27  C   UNL     1       3.437   3.295  20.356  0.00  0.00    +0.000 C 
ATOM     28  C   UNL     1       2.555   2.573  21.372  0.00  0.00    +0.000 C 
ATOM     29  C   UNL     1       1.119   2.978  21.046  0.00  0.00    +0.000 C 
ATOM     30  C   UNL     1       1.207   3.880  19.813  0.00  0.00    +0.000 C 
BRANCH  26  31
ATOM     31  O   UNL     1       2.568   5.487  20.948  0.00  0.00    +0.000 OA
ATOM     32  H   UNL     1       1.635   5.720  21.094  0.00  0.00    +0.000 HD
ENDBRANCH  26  31
ENDBRANCH  19  26
ENDBRANCH   4  19
TORSDOF 6
ENDMDL
MODEL 7
REMARK VINA RESULT:      -7.3      4.271      7.132
REMARK  Name = 
REMARK  7 active torsions:
REMARK  status: ('A' for Active; 'I' for Inactive)
REMARK    1  A    between atoms: C_1  and  O_2
REMARK    2  A    between atoms: O_2  and  C_3
REMARK    3  A    between atoms: C_8  and  N_9
REMARK    4  A    between atoms: N_12  and  C_13
REMARK    5  A    between atoms: C_13  and  C_14
REMARK    6  A    between atoms: C_13  and  C_20
REMARK    7  A    between atoms: C_20  and  O_21
REMARK                            x       y       z     vdW  Elec       q    Type
REMARK                         _______ _______ _______ _____ _____    ______ ____
ROOT
ATOM      1  N   UNL     1       1.552   8.315  21.425  0.00  0.00    +0.000 N 
ATOM      2  C   UNL     1       0.866   9.479  21.218  0.00  0.00    +0.000 C 
ATOM      3  O   UNL     1       0.725  10.282  22.138  0.00  0.00    +0.000 OA
ATOM      4  N   UNL     1       0.387   9.678  19.969  0.00  0.00    +0.000 N 
ATOM      5  H   UNL     1       1.899   8.222  22.367  0.00  0.00    +0.000 HD
ATOM      6  H   UNL     1       0.467   8.881  19.342  0.00  0.00    +0.000 HD
ENDROOT
BRANCH   1  12
ATOM      7  C   UNL     1       2.639   4.143  18.005  0.00  0.00    +0.000 A 
ATOM      8  N   UNL     1       2.259   3.095  18.741  0.00  0.00    +0.000 NA
ATOM      9  N   UNL     1       1.819   3.663  19.880  0.00  0.00    +0.000 N 
ATOM     10  C   UNL     1       1.914   5.031  19.898  0.00  0.00    +0.000 A 
ATOM     11  C   UNL     1       1.586   5.988  20.861  0.00  0.00    +0.000 A 
ATOM     12  C   UNL     1       1.843   7.306  20.495  0.00  0.00    +0.000 A 
ATOM     13  N   UNL     1       2.359   7.655  19.290  0.00  0.00    +0.000 NA
ATOM     14  C   UNL     1       2.662   6.708  18.367  0.00  0.00    +0.000 A 
ATOM     15  C   UNL     1       2.450   5.371  18.661  0.00  0.00    +0.000 A 
ATOM     16  H   UNL     1       1.467   3.055  20.610  0.00  0.00    +0.000 HD
BRANCH   7  18
ATOM     17  C   UNL     1       4.571   3.928  16.721  0.00  0.00    +0.000 C 
ATOM     18  O   UNL     1       3.150   3.989  16.764  0.00  0.00    +0.000 OA
ENDBRANCH   7  18
ENDBRANCH   1  12
BRANCH   4  19
ATOM     19  C   UNL     1      -0.308  10.851  19.480  0.00  0.00    +0.000 C 
BRANCH  19  20
ATOM     20  C   UNL     1       0.684  12.005  19.275  0.00  0.00    +0.000 A 
ATOM     21  C   UNL     1       1.836  11.890  18.473  0.00  0.00    +0.000 A 
ATOM     22  C   UNL     1       2.717  12.964  18.315  0.00  0.00    +0.000 A 
ATOM     23  C   UNL     1       2.461  14.174  18.949  0.00  0.00    +0.000 A 
ATOM     24  C   UNL     1       1.327  14.314  19.742  0.00  0.00    +0.000 A 
ATOM     25  C   UNL     1       0.450  13.237  19.908  0.00  0.00    +0.000 A 
ENDBRANCH  19  20
BRANCH  19  26
ATOM     26  C   UNL     1      -1.116  10.496  18.191  0.00  0.00    +0.000 C 
ATOM     27  C   UNL     1      -1.685  11.721  17.463  0.00  0.00    +0.000 C 
ATOM     28  C   UNL     1      -2.786  11.170  16.561  0.00  0.00    +0.000 C 
ATOM     29  C   UNL     1      -3.224   9.849  17.190  0.00  0.00    +0.000 C 
ATOM     30  C   UNL     1      -2.401   9.701  18.471  0.00  0.00    +0.000 C 
BRANCH  26  31
ATOM     31  O   UNL     1      -0.329   9.712  17.275  0.00  0.00    +0.000 OA
ATOM     32  H   UNL     1       0.459   9.405  17.755  0.00  0.00    +0.000 HD
ENDBRANCH  26  31
ENDBRANCH  19  26
ENDBRANCH   4  19
TORSDOF 6
ENDMDL
MODEL 8
REMARK VINA RESULT:      -7.2      3.560      7.705
REMARK  Name = 
REMARK  7 active torsions:
REMARK  status: ('A' for Active; 'I' for Inactive)
REMARK    1  A    between atoms: C_1  and  O_2
REMARK    2  A    between atoms: O_2  and  C_3
REMARK    3  A    between atoms: C_8  and  N_9
REMARK    4  A    between atoms: N_12  and  C_13
REMARK    5  A    between atoms: C_13  and  C_14
REMARK    6  A    between atoms: C_13  and  C_20
REMARK    7  A    between atoms: C_20  and  O_21
REMARK                            x       y       z     vdW  Elec       q    Type
REMARK                         _______ _______ _______ _____ _____    ______ ____
ROOT
ATOM      1  N   UNL     1       2.980   8.454  17.320  0.00  0.00    +0.000 N 
ATOM      2  C   UNL     1       3.562   7.238  17.096  0.00  0.00    +0.000 C 
ATOM      3  O   UNL     1       4.340   7.092  16.156  0.00  0.00    +0.000 OA
ATOM      4  N   UNL     1       3.241   6.251  17.964  0.00  0.00    +0.000 N 
ATOM      5  H   UNL     1       3.262   9.156  16.654  0.00  0.00    +0.000 HD
ATOM      6  H   UNL     1       2.493   6.474  18.617  0.00  0.00    +0.000 HD
ENDROOT
BRANCH   1  12
ATOM      7  C   UNL     1      -0.538  10.129  21.206  0.00  0.00    +0.000 A 
ATOM      8  N   UNL     1      -1.164  11.128  20.579  0.00  0.00    +0.000 NA
ATOM      9  N   UNL     1      -0.587  11.138  19.363  0.00  0.00    +0.000 N 
ATOM     10  C   UNL     1       0.388  10.188  19.197  0.00  0.00    +0.000 A 
ATOM     11  C   UNL     1       1.220   9.866  18.122  0.00  0.00    +0.000 A 
ATOM     12  C   UNL     1       2.104   8.816  18.353  0.00  0.00    +0.000 A 
ATOM     13  N   UNL     1       2.155   8.133  19.525  0.00  0.00    +0.000 NA
ATOM     14  C   UNL     1       1.331   8.459  20.551  0.00  0.00    +0.000 A 
ATOM     15  C   UNL     1       0.433   9.504  20.406  0.00  0.00    +0.000 A 
ATOM     16  H   UNL     1      -0.907  11.824  18.689  0.00  0.00    +0.000 HD
BRANCH   7  18
ATOM     17  C   UNL     1      -1.293  10.878  23.279  0.00  0.00    +0.000 C 
ATOM     18  O   UNL     1      -0.838   9.793  22.479  0.00  0.00    +0.000 OA
ENDBRANCH   7  18
ENDBRANCH   1  12
BRANCH   4  19
ATOM     19  C   UNL     1       3.773   4.904  17.985  0.00  0.00    +0.000 C 
BRANCH  19  20
ATOM     20  C   UNL     1       5.293   4.940  18.192  0.00  0.00    +0.000 A 
ATOM     21  C   UNL     1       5.896   5.469  19.350  0.00  0.00    +0.000 A 
ATOM     22  C   UNL     1       7.286   5.486  19.498  0.00  0.00    +0.000 A 
ATOM     23  C   UNL     1       8.100   4.971  18.496  0.00  0.00    +0.000 A 
ATOM     24  C   UNL     1       7.528   4.438  17.345  0.00  0.00    +0.000 A 
ATOM     25  C   UNL     1       6.138   4.428  17.192  0.00  0.00    +0.000 A 
ENDBRANCH  19  20
BRANCH  19  26
ATOM     26  C   UNL     1       3.025   4.050  19.059  0.00  0.00    +0.000 C 
ATOM     27  C   UNL     1       1.650   3.548  18.600  0.00  0.00    +0.000 C 
ATOM     28  C   UNL     1       0.916   3.174  19.885  0.00  0.00    +0.000 C 
ATOM     29  C   UNL     1       1.576   3.983  20.998  0.00  0.00    +0.000 C 
ATOM     30  C   UNL     1       2.639   4.846  20.316  0.00  0.00    +0.000 C 
BRANCH  26  31
ATOM     31  O   UNL     1       3.825   2.936  19.498  0.00  0.00    +0.000 OA
ATOM     32  H   UNL     1       3.773   2.250  18.811  0.00  0.00    +0.000 HD
ENDBRANCH  26  31
ENDBRANCH  19  26
ENDBRANCH   4  19
TORSDOF 6
ENDMDL
MODEL 9
REMARK VINA RESULT:      -7.2      3.955      8.250
REMARK  Name = 
REMARK  7 active torsions:
REMARK  status: ('A' for Active; 'I' for Inactive)
REMARK    1  A    between atoms: C_1  and  O_2
REMARK    2  A    between atoms: O_2  and  C_3
REMARK    3  A    between atoms: C_8  and  N_9
REMARK    4  A    between atoms: N_12  and  C_13
REMARK    5  A    between atoms: C_13  and  C_14
REMARK    6  A    between atoms: C_13  and  C_20
REMARK    7  A    between atoms: C_20  and  O_21
REMARK                            x       y       z     vdW  Elec       q    Type
REMARK                         _______ _______ _______ _____ _____    ______ ____
ROOT
ATOM      1  N   UNL     1       2.197   8.785  18.126  0.00  0.00    +0.000 N 
ATOM      2  C   UNL     1       2.665   7.530  17.861  0.00  0.00    +0.000 C 
ATOM      3  O   UNL     1       3.334   7.322  16.851  0.00  0.00    +0.000 OA
ATOM      4  N   UNL     1       2.361   6.573  18.768  0.00  0.00    +0.000 N 
ATOM      5  H   UNL     1       2.462   9.462  17.428  0.00  0.00    +0.000 HD
ATOM      6  H   UNL     1       1.700   6.853  19.488  0.00  0.00    +0.000 HD
ENDROOT
BRANCH   1  12
ATOM      7  C   UNL     1      -0.541  10.277  22.661  0.00  0.00    +0.000 A 
ATOM      8  N   UNL     1       0.188   9.687  23.612  0.00  0.00    +0.000 NA
ATOM      9  N   UNL     1       1.172   9.086  22.918  0.00  0.00    +0.000 N 
ATOM     10  C   UNL     1       1.091   9.265  21.560  0.00  0.00    +0.000 A 
ATOM     11  C   UNL     1       1.882   8.817  20.499  0.00  0.00    +0.000 A 
ATOM     12  C   UNL     1       1.455   9.215  19.236  0.00  0.00    +0.000 A 
ATOM     13  N   UNL     1       0.363   9.994  19.032  0.00  0.00    +0.000 NA
ATOM     14  C   UNL     1      -0.385  10.423  20.079  0.00  0.00    +0.000 A 
ATOM     15  C   UNL     1      -0.035  10.056  21.369  0.00  0.00    +0.000 A 
ATOM     16  H   UNL     1       1.870   8.565  23.435  0.00  0.00    +0.000 HD
BRANCH   7  18
ATOM     17  C   UNL     1      -1.417  12.398  23.063  0.00  0.00    +0.000 C 
ATOM     18  O   UNL     1      -1.644  10.998  22.958  0.00  0.00    +0.000 OA
ENDBRANCH   7  18
ENDBRANCH   1  12
BRANCH   4  19
ATOM     19  C   UNL     1       2.794   5.190  18.752  0.00  0.00    +0.000 C 
BRANCH  19  20
ATOM     20  C   UNL     1       4.290   5.109  18.418  0.00  0.00    +0.000 A 
ATOM     21  C   UNL     1       5.290   5.643  19.253  0.00  0.00    +0.000 A 
ATOM     22  C   UNL     1       6.643   5.552  18.910  0.00  0.00    +0.000 A 
ATOM     23  C   UNL     1       7.022   4.921  17.731  0.00  0.00    +0.000 A 
ATOM     24  C   UNL     1       6.052   4.381  16.893  0.00  0.00    +0.000 A 
ATOM     25  C   UNL     1       4.699   4.480  17.230  0.00  0.00    +0.000 A 
ENDBRANCH  19  20
BRANCH  19  26
ATOM     26  C   UNL     1       2.426   4.499  20.105  0.00  0.00    +0.000 C 
ATOM     27  C   UNL     1       3.303   3.284  20.434  0.00  0.00    +0.000 C 
ATOM     28  C   UNL     1       2.517   2.503  21.484  0.00  0.00    +0.000 C 
ATOM     29  C   UNL     1       1.055   2.900  21.298  0.00  0.00    +0.000 C 
ATOM     30  C   UNL     1       1.029   3.860  20.107  0.00  0.00    +0.000 C 
BRANCH  26  31
ATOM     31  O   UNL     1       2.462   5.433  21.200  0.00  0.00    +0.000 OA
ATOM     32  H   UNL     1       1.622   5.347  21.685  0.00  0.00    +0.000 HD
ENDBRANCH  26  31
ENDBRANCH  19  26
ENDBRANCH   4  19
TORSDOF 6
ENDMDL
