MODEL 1
REMARK VINA RESULT:      -6.4      0.000      0.000
REMARK  Name = 
REMARK  14 active torsions:
REMARK  status: ('A' for Active; 'I' for Inactive)
REMARK    1  A    between atoms: C_1  and  C_2
REMARK    2  A    between atoms: C_2  and  C_3
REMARK    3  A    between atoms: C_3  and  N_4
REMARK    4  A    between atoms: N_4  and  C_5
REMARK    5  A    between atoms: C_5  and  C_6
REMARK    6  A    between atoms: C_6  and  C_7
REMARK    7  A    between atoms: C_8  and  C_10
REMARK    8  A    between atoms: C_13  and  C_14
REMARK    9  A    between atoms: C_14  and  N_15
REMARK   10  A    between atoms: N_18  and  C_19
REMARK   11  A    between atoms: C_19  and  C_20
REMARK   12  A    between atoms: C_20  and  O_21
REMARK   13  A    between atoms: C_20  and  C_22
REMARK   14  A    between atoms: C_22  and  N_23
REMARK                            x       y       z     vdW  Elec       q    Type
REMARK                         _______ _______ _______ _____ _____    ______ ____
ROOT
ATOM      1  N   UNL     1       2.579   8.171  18.631  0.00  0.00    +0.000 NA
ATOM      2  C   UNL     1       2.482   7.648  20.012  0.00  0.00    +0.000 C 
ATOM      3  C   UNL     1       1.753   6.288  20.147  0.00  0.00    +0.000 C 
ATOM      4  N   UNL     1       2.287   5.217  19.278  0.00  0.00    +0.000 NA
ATOM      5  C   UNL     1       2.390   5.723  17.893  0.00  0.00    +0.000 C 
ATOM      6  C   UNL     1       3.099   7.096  17.754  0.00  0.00    +0.000 C 
ENDROOT
BRANCH   1   7
ATOM      7  C   UNL     1       1.281   8.664  18.113  0.00  0.00    +0.000 C 
BRANCH   7  11
ATOM      8  C   UNL     1      -0.702  11.270  19.637  0.00  0.00    +0.000 A 
ATOM      9  C   UNL     1       0.291  11.972  18.979  0.00  0.00    +0.000 A 
ATOM     10  O   UNL     1       1.181  11.090  18.445  0.00  0.00    +0.000 OA
ATOM     11  C   UNL     1       0.689   9.862  18.803  0.00  0.00    +0.000 A 
ATOM     12  N   UNL     1      -0.405   9.921  19.540  0.00  0.00    +0.000 NA
BRANCH   8  14
ATOM     13  N   UNL     1      -1.949  12.235  21.613  0.00  0.00    +0.000 N 
ATOM     14  C   UNL     1      -1.891  11.906  20.229  0.00  0.00    +0.000 C 
ATOM     15  O   UNL     1      -2.860  12.126  19.502  0.00  0.00    +0.000 OA
BRANCH  13  16
ATOM     16  C   UNL     1      -3.254  12.701  22.117  0.00  0.00    +0.000 C 
BRANCH  16  18
ATOM     17  C   UNL     1      -4.196  12.513  24.513  0.00  0.00    +0.000 C 
ATOM     18  C   UNL     1      -3.320  13.286  23.532  0.00  0.00    +0.000 C 
ENDBRANCH  16  18
ENDBRANCH  13  16
BRANCH  13  19
ATOM     19  C   UNL     1      -0.921  11.851  22.593  0.00  0.00    +0.000 C 
BRANCH  19  20
ATOM     20  C   UNL     1      -1.054  10.444  23.195  0.00  0.00    +0.000 C 
ATOM     21  C   UNL     1       0.117   9.498  22.980  0.00  0.00    +0.000 C 
ENDBRANCH  19  20
ENDBRANCH  13  19
ENDBRANCH   8  14
ENDBRANCH   7  11
ENDBRANCH   1   7
BRANCH   4  22
ATOM     22  C   UNL     1       3.584   4.694  19.748  0.00  0.00    +0.000 C 
BRANCH  22  23
ATOM     23  C   UNL     1       4.253   3.596  18.863  0.00  0.00    +0.000 C 
BRANCH  23  24
ATOM     24  O   UNL     1       5.002   2.718  19.718  0.00  0.00    +0.000 OA
ATOM     25  H   UNL     1       4.505   1.891  19.830  0.00  0.00    +0.000 HD
ENDBRANCH  23  24
BRANCH  23  26
ATOM     26  C   UNL     1       5.164   4.275  17.810  0.00  0.00    +0.000 C 
BRANCH  26  27
ATOM     27  N   UNL     1       6.596   4.480  18.102  0.00  0.00    +0.000 NA
ATOM     28  C   UNL     1       6.947   5.833  18.600  0.00  0.00    +0.000 C 
ATOM     29  C   UNL     1       6.822   6.949  17.548  0.00  0.00    +0.000 C 
ATOM     30  O   UNL     1       7.569   6.656  16.357  0.00  0.00    +0.000 OA
ATOM     31  C   UNL     1       7.205   5.379  15.818  0.00  0.00    +0.000 C 
ATOM     32  C   UNL     1       7.384   4.262  16.864  0.00  0.00    +0.000 C 
ENDBRANCH  26  27
ENDBRANCH  23  26
ENDBRANCH  22  23
ENDBRANCH   4  22
TORSDOF 12
ENDMDL
MODEL 2
REMARK VINA RESULT:      -6.4      6.443     10.530
REMARK  Name = 
REMARK  14 active torsions:
REMARK  status: ('A' for Active; 'I' for Inactive)
REMARK    1  A    between atoms: C_1  and  C_2
REMARK    2  A    between atoms: C_2  and  C_3
REMARK    3  A    between atoms: C_3  and  N_4
REMARK    4  A    between atoms: N_4  and  C_5
REMARK    5  A    between atoms: C_5  and  C_6
REMARK    6  A    between atoms: C_6  and  C_7
REMARK    7  A    between atoms: C_8  and  C_10
REMARK    8  A    between atoms: C_13  and  C_14
REMARK    9  A    between atoms: C_14  and  N_15
REMARK   10  A    between atoms: N_18  and  C_19
REMARK   11  A    between atoms: C_19  and  C_20
REMARK   12  A    between atoms: C_20  and  O_21
REMARK   13  A    between atoms: C_20  and  C_22
REMARK   14  A    between atoms: C_22  and  N_23
REMARK                            x       y       z     vdW  Elec       q    Type
REMARK                         _______ _______ _______ _____ _____    ______ ____
ROOT
ATOM      1  N   UNL     1       9.446  10.050  18.440  0.00  0.00    +0.000 NA
ATOM      2  C   UNL     1       9.891  11.258  17.712  0.00  0.00    +0.000 C 
ATOM      3  C   UNL     1       9.162  12.566  18.107  0.00  0.00    +0.000 C 
ATOM      4  N   UNL     1       9.177  12.863  19.555  0.00  0.00    +0.000 NA
ATOM      5  C   UNL     1       8.734  11.665  20.300  0.00  0.00    +0.000 C 
ATOM      6  C   UNL     1       9.445  10.348  19.892  0.00  0.00    +0.000 C 
ENDROOT
BRANCH   1   7
ATOM      7  C   UNL     1       8.103   9.587  18.018  0.00  0.00    +0.000 C 
BRANCH   7  11
ATOM      8  C   UNL     1       7.006   6.160  17.694  0.00  0.00    +0.000 A 
ATOM      9  C   UNL     1       7.923   6.103  18.727  0.00  0.00    +0.000 A 
ATOM     10  O   UNL     1       8.499   7.327  18.880  0.00  0.00    +0.000 OA
ATOM     11  C   UNL     1       7.902   8.099  17.918  0.00  0.00    +0.000 A 
ATOM     12  N   UNL     1       7.037   7.442  17.168  0.00  0.00    +0.000 NA
BRANCH   8  14
ATOM     13  N   UNL     1       4.914   4.788  18.054  0.00  0.00    +0.000 N 
ATOM     14  C   UNL     1       6.115   5.044  17.334  0.00  0.00    +0.000 C 
ATOM     15  O   UNL     1       6.445   4.309  16.404  0.00  0.00    +0.000 OA
BRANCH  13  16
ATOM     16  C   UNL     1       4.204   3.542  17.712  0.00  0.00    +0.000 C 
BRANCH  16  18
ATOM     17  C   UNL     1       1.650   3.323  18.017  0.00  0.00    +0.000 C 
ATOM     18  C   UNL     1       2.811   3.649  17.083  0.00  0.00    +0.000 C 
ENDBRANCH  16  18
ENDBRANCH  13  16
BRANCH  13  19
ATOM     19  C   UNL     1       4.526   5.495  19.284  0.00  0.00    +0.000 C 
BRANCH  19  20
ATOM     20  C   UNL     1       3.269   6.373  19.190  0.00  0.00    +0.000 C 
ATOM     21  C   UNL     1       3.166   7.289  17.981  0.00  0.00    +0.000 C 
ENDBRANCH  19  20
ENDBRANCH  13  19
ENDBRANCH   8  14
ENDBRANCH   7  11
ENDBRANCH   1   7
BRANCH   4  22
ATOM     22  C   UNL     1      10.496  13.323  20.030  0.00  0.00    +0.000 C 
BRANCH  22  23
ATOM     23  C   UNL     1      10.510  14.624  20.893  0.00  0.00    +0.000 C 
BRANCH  23  24
ATOM     24  O   UNL     1       9.987  14.312  22.193  0.00  0.00    +0.000 OA
ATOM     25  H   UNL     1      10.574  13.666  22.619  0.00  0.00    +0.000 HD
ENDBRANCH  23  24
BRANCH  23  26
ATOM     26  C   UNL     1       9.662  15.712  20.187  0.00  0.00    +0.000 C 
BRANCH  26  27
ATOM     27  N   UNL     1       9.981  16.106  18.800  0.00  0.00    +0.000 NA
ATOM     28  C   UNL     1      10.660  17.418  18.662  0.00  0.00    +0.000 C 
ATOM     29  C   UNL     1       9.771  18.631  18.989  0.00  0.00    +0.000 C 
ATOM     30  O   UNL     1       8.553  18.627  18.229  0.00  0.00    +0.000 OA
ATOM     31  C   UNL     1       7.843  17.393  18.393  0.00  0.00    +0.000 C 
ATOM     32  C   UNL     1       8.727  16.189  18.013  0.00  0.00    +0.000 C 
ENDBRANCH  26  27
ENDBRANCH  23  26
ENDBRANCH  22  23
ENDBRANCH   4  22
TORSDOF 12
ENDMDL
MODEL 3
REMARK VINA RESULT:      -6.3      2.076     11.112
REMARK  Name = 
REMARK  14 active torsions:
REMARK  status: ('A' for Active; 'I' for Inactive)
REMARK    1  A    between atoms: C_1  and  C_2
REMARK    2  A    between atoms: C_2  and  C_3
REMARK    3  A    between atoms: C_3  and  N_4
REMARK    4  A    between atoms: N_4  and  C_5
REMARK    5  A    between atoms: C_5  and  C_6
REMARK    6  A    between atoms: C_6  and  C_7
REMARK    7  A    between atoms: C_8  and  C_10
REMARK    8  A    between atoms: C_13  and  C_14
REMARK    9  A    between atoms: C_14  and  N_15
REMARK   10  A    between atoms: N_18  and  C_19
REMARK   11  A    between atoms: C_19  and  C_20
REMARK   12  A    between atoms: C_20  and  O_21
REMARK   13  A    between atoms: C_20  and  C_22
REMARK   14  A    between atoms: C_22  and  N_23
REMARK                            x       y       z     vdW  Elec       q    Type
REMARK                         _______ _______ _______ _____ _____    ______ ____
ROOT
ATOM      1  N   UNL     1       1.082  10.251  19.646  0.00  0.00    +0.000 NA
ATOM      2  C   UNL     1       1.320  11.702  19.492  0.00  0.00    +0.000 C 
ATOM      3  C   UNL     1       0.264  12.453  18.644  0.00  0.00    +0.000 C 
ATOM      4  N   UNL     1      -1.133  12.254  19.088  0.00  0.00    +0.000 NA
ATOM      5  C   UNL     1      -1.390  10.806  19.246  0.00  0.00    +0.000 C 
ATOM      6  C   UNL     1      -0.322  10.046  20.076  0.00  0.00    +0.000 C 
ENDROOT
BRANCH   1   7
ATOM      7  C   UNL     1       1.346   9.491  18.402  0.00  0.00    +0.000 C 
BRANCH   7  11
ATOM      8  C   UNL     1       3.363   6.510  18.088  0.00  0.00    +0.000 A 
ATOM      9  C   UNL     1       2.901   6.445  19.390  0.00  0.00    +0.000 A 
ATOM     10  O   UNL     1       2.206   7.580  19.674  0.00  0.00    +0.000 OA
ATOM     11  C   UNL     1       2.271   8.310  18.515  0.00  0.00    +0.000 A 
ATOM     12  N   UNL     1       2.976   7.731  17.561  0.00  0.00    +0.000 NA
BRANCH   8  14
ATOM     13  N   UNL     1       5.411   5.506  16.999  0.00  0.00    +0.000 N 
ATOM     14  C   UNL     1       4.053   5.398  17.413  0.00  0.00    +0.000 C 
ATOM     15  O   UNL     1       3.418   4.369  17.184  0.00  0.00    +0.000 OA
BRANCH  13  16
ATOM     16  C   UNL     1       5.931   4.396  16.179  0.00  0.00    +0.000 C 
BRANCH  16  18
ATOM     17  C   UNL     1       6.174   3.869  13.663  0.00  0.00    +0.000 C 
ATOM     18  C   UNL     1       6.606   4.732  14.845  0.00  0.00    +0.000 C 
ENDBRANCH  16  18
ENDBRANCH  13  16
BRANCH  13  19
ATOM     19  C   UNL     1       6.196   6.748  17.066  0.00  0.00    +0.000 C 
BRANCH  19  20
ATOM     20  C   UNL     1       7.479   6.692  17.909  0.00  0.00    +0.000 C 
ATOM     21  C   UNL     1       7.461   5.766  19.116  0.00  0.00    +0.000 C 
ENDBRANCH  19  20
ENDBRANCH  13  19
ENDBRANCH   8  14
ENDBRANCH   7  11
ENDBRANCH   1   7
BRANCH   4  22
ATOM     22  C   UNL     1      -1.448  12.986  20.330  0.00  0.00    +0.000 C 
BRANCH  22  23
ATOM     23  C   UNL     1      -2.956  13.069  20.724  0.00  0.00    +0.000 C 
BRANCH  23  24
ATOM     24  O   UNL     1      -3.728  13.256  19.528  0.00  0.00    +0.000 OA
ATOM     25  H   UNL     1      -4.224  12.440  19.346  0.00  0.00    +0.000 HD
ENDBRANCH  23  24
BRANCH  23  26
ATOM     26  C   UNL     1      -3.158  14.240  21.718  0.00  0.00    +0.000 C 
BRANCH  26  27
ATOM     27  N   UNL     1      -3.285  13.963  23.163  0.00  0.00    +0.000 NA
ATOM     28  C   UNL     1      -4.169  12.821  23.506  0.00  0.00    +0.000 C 
ATOM     29  C   UNL     1      -5.664  13.074  23.244  0.00  0.00    +0.000 C 
ATOM     30  O   UNL     1      -6.130  14.269  23.892  0.00  0.00    +0.000 OA
ATOM     31  C   UNL     1      -5.332  15.402  23.529  0.00  0.00    +0.000 C 
ATOM     32  C   UNL     1      -3.844  15.156  23.844  0.00  0.00    +0.000 C 
ENDBRANCH  26  27
ENDBRANCH  23  26
ENDBRANCH  22  23
ENDBRANCH   4  22
TORSDOF 12
ENDMDL
MODEL 4
REMARK VINA RESULT:      -6.2      2.487     10.920
REMARK  Name = 
REMARK  14 active torsions:
REMARK  status: ('A' for Active; 'I' for Inactive)
REMARK    1  A    between atoms: C_1  and  C_2
REMARK    2  A    between atoms: C_2  and  C_3
REMARK    3  A    between atoms: C_3  and  N_4
REMARK    4  A    between atoms: N_4  and  C_5
REMARK    5  A    between atoms: C_5  and  C_6
REMARK    6  A    between atoms: C_6  and  C_7
REMARK    7  A    between atoms: C_8  and  C_10
REMARK    8  A    between atoms: C_13  and  C_14
REMARK    9  A    between atoms: C_14  and  N_15
REMARK   10  A    between atoms: N_18  and  C_19
REMARK   11  A    between atoms: C_19  and  C_20
REMARK   12  A    between atoms: C_20  and  O_21
REMARK   13  A    between atoms: C_20  and  C_22
REMARK   14  A    between atoms: C_22  and  N_23
REMARK                            x       y       z     vdW  Elec       q    Type
REMARK                         _______ _______ _______ _____ _____    ______ ____
ROOT
ATOM      1  N   UNL     1      -0.207   9.587  20.746  0.00  0.00    +0.000 NA
ATOM      2  C   UNL     1      -0.642   9.093  22.071  0.00  0.00    +0.000 C 
ATOM      3  C   UNL     1      -0.266  10.005  23.265  0.00  0.00    +0.000 C 
ATOM      4  N   UNL     1      -0.702  11.411  23.124  0.00  0.00    +0.000 NA
ATOM      5  C   UNL     1      -0.275  11.922  21.804  0.00  0.00    +0.000 C 
ATOM      6  C   UNL     1      -0.629  11.001  20.607  0.00  0.00    +0.000 C 
ENDROOT
BRANCH   1   7
ATOM      7  C   UNL     1       1.256   9.473  20.544  0.00  0.00    +0.000 C 
BRANCH   7  11
ATOM      8  C   UNL     1       2.798   6.928  18.495  0.00  0.00    +0.000 A 
ATOM      9  C   UNL     1       2.595   7.969  17.607  0.00  0.00    +0.000 A 
ATOM     10  O   UNL     1       1.912   8.965  18.237  0.00  0.00    +0.000 OA
ATOM     11  C   UNL     1       1.720   8.486  19.507  0.00  0.00    +0.000 A 
ATOM     12  N   UNL     1       2.197   7.269  19.695  0.00  0.00    +0.000 NA
BRANCH   8  14
ATOM     13  N   UNL     1       3.006   4.525  17.741  0.00  0.00    +0.000 N 
ATOM     14  C   UNL     1       3.606   5.738  18.181  0.00  0.00    +0.000 C 
ATOM     15  O   UNL     1       4.826   5.803  18.334  0.00  0.00    +0.000 OA
BRANCH  13  16
ATOM     16  C   UNL     1       3.902   3.358  17.632  0.00  0.00    +0.000 C 
BRANCH  16  18
ATOM     17  C   UNL     1       3.988   1.027  18.739  0.00  0.00    +0.000 C 
ATOM     18  C   UNL     1       4.178   2.533  18.893  0.00  0.00    +0.000 C 
ENDBRANCH  16  18
ENDBRANCH  13  16
BRANCH  13  19
ATOM     19  C   UNL     1       1.554   4.293  17.698  0.00  0.00    +0.000 C 
BRANCH  19  20
ATOM     20  C   UNL     1       0.993   3.326  18.752  0.00  0.00    +0.000 C 
ATOM     21  C   UNL     1       0.921   3.842  20.180  0.00  0.00    +0.000 C 
ENDBRANCH  19  20
ENDBRANCH  13  19
ENDBRANCH   8  14
ENDBRANCH   7  11
ENDBRANCH   1   7
BRANCH   4  22
ATOM     22  C   UNL     1      -2.156  11.579  23.310  0.00  0.00    +0.000 C 
BRANCH  22  23
ATOM     23  C   UNL     1      -2.743  12.985  22.970  0.00  0.00    +0.000 C 
BRANCH  23  24
ATOM     24  O   UNL     1      -2.234  13.932  23.922  0.00  0.00    +0.000 OA
ATOM     25  H   UNL     1      -2.933  14.574  24.129  0.00  0.00    +0.000 HD
ENDBRANCH  23  24
BRANCH  23  26
ATOM     26  C   UNL     1      -4.290  12.914  23.011  0.00  0.00    +0.000 C 
BRANCH  26  27
ATOM     27  N   UNL     1      -5.089  13.823  22.164  0.00  0.00    +0.000 NA
ATOM     28  C   UNL     1      -5.818  14.886  22.900  0.00  0.00    +0.000 C 
ATOM     29  C   UNL     1      -6.987  14.376  23.760  0.00  0.00    +0.000 C 
ATOM     30  O   UNL     1      -7.911  13.583  22.999  0.00  0.00    +0.000 OA
ATOM     31  C   UNL     1      -7.243  12.509  22.327  0.00  0.00    +0.000 C 
ATOM     32  C   UNL     1      -6.108  13.037  21.428  0.00  0.00    +0.000 C 
ENDBRANCH  26  27
ENDBRANCH  23  26
ENDBRANCH  22  23
ENDBRANCH   4  22
TORSDOF 12
ENDMDL
MODEL 5
REMARK VINA RESULT:      -6.2      2.467     10.928
REMARK  Name = 
REMARK  14 active torsions:
REMARK  status: ('A' for Active; 'I' for Inactive)
REMARK    1  A    between atoms: C_1  and  C_2
REMARK    2  A    between atoms: C_2  and  C_3
REMARK    3  A    between atoms: C_3  and  N_4
REMARK    4  A    between atoms: N_4  and  C_5
REMARK    5  A    between atoms: C_5  and  C_6
REMARK    6  A    between atoms: C_6  and  C_7
REMARK    7  A    between atoms: C_8  and  C_10
REMARK    8  A    between atoms: C_13  and  C_14
REMARK    9  A    between atoms: C_14  and  N_15
REMARK   10  A    between atoms: N_18  and  C_19
REMARK   11  A    between atoms: C_19  and  C_20
REMARK   12  A    between atoms: C_20  and  O_21
REMARK   13  A    between atoms: C_20  and  C_22
REMARK   14  A    between atoms: C_22  and  N_23
REMARK                            x       y       z     vdW  Elec       q    Type
REMARK                         _______ _______ _______ _____ _____    ______ ____
ROOT
ATOM      1  N   UNL     1       0.104   8.928  20.968  0.00  0.00    +0.000 NA
ATOM      2  C   UNL     1      -0.601   8.801  22.262  0.00  0.00    +0.000 C 
ATOM      3  C   UNL     1      -0.247   9.885  23.311  0.00  0.00    +0.000 C 
ATOM      4  N   UNL     1      -0.401  11.275  22.830  0.00  0.00    +0.000 NA
ATOM      5  C   UNL     1       0.300  11.421  21.536  0.00  0.00    +0.000 C 
ATOM      6  C   UNL     1      -0.035  10.324  20.491  0.00  0.00    +0.000 C 
ENDROOT
BRANCH   1   7
ATOM      7  C   UNL     1       1.537   8.563  21.058  0.00  0.00    +0.000 C 
BRANCH   7  11
ATOM      8  C   UNL     1       2.364   5.504  19.324  0.00  0.00    +0.000 A 
ATOM      9  C   UNL     1       1.584   5.069  20.379  0.00  0.00    +0.000 A 
ATOM     10  O   UNL     1       1.291   6.128  21.183  0.00  0.00    +0.000 OA
ATOM     11  C   UNL     1       1.915   7.188  20.579  0.00  0.00    +0.000 A 
ATOM     12  N   UNL     1       2.592   6.860  19.494  0.00  0.00    +0.000 NA
BRANCH   8  14
ATOM     13  N   UNL     1       4.049   4.031  18.148  0.00  0.00    +0.000 N 
ATOM     14  C   UNL     1       2.764   4.642  18.198  0.00  0.00    +0.000 C 
ATOM     15  O   UNL     1       1.967   4.480  17.275  0.00  0.00    +0.000 OA
BRANCH  13  16
ATOM     16  C   UNL     1       4.392   3.341  16.890  0.00  0.00    +0.000 C 
BRANCH  16  18
ATOM     17  C   UNL     1       5.291   5.236  15.384  0.00  0.00    +0.000 C 
ATOM     18  C   UNL     1       5.552   3.890  16.053  0.00  0.00    +0.000 C 
ENDBRANCH  16  18
ENDBRANCH  13  16
BRANCH  13  19
ATOM     19  C   UNL     1       5.129   4.306  19.108  0.00  0.00    +0.000 C 
BRANCH  19  20
ATOM     20  C   UNL     1       5.855   5.650  18.941  0.00  0.00    +0.000 C 
ATOM     21  C   UNL     1       7.370   5.596  18.820  0.00  0.00    +0.000 C 
ENDBRANCH  19  20
ENDBRANCH  13  19
ENDBRANCH   8  14
ENDBRANCH   7  11
ENDBRANCH   1   7
BRANCH   4  22
ATOM     22  C   UNL     1      -1.813  11.688  22.717  0.00  0.00    +0.000 C 
BRANCH  22  23
ATOM     23  C   UNL     1      -2.092  13.224  22.736  0.00  0.00    +0.000 C 
BRANCH  23  24
ATOM     24  O   UNL     1      -1.121  13.851  23.588  0.00  0.00    +0.000 OA
ATOM     25  H   UNL     1      -0.528  14.392  23.041  0.00  0.00    +0.000 HD
ENDBRANCH  23  24
BRANCH  23  26
ATOM     26  C   UNL     1      -3.535  13.472  23.242  0.00  0.00    +0.000 C 
BRANCH  26  27
ATOM     27  N   UNL     1      -4.585  12.466  22.988  0.00  0.00    +0.000 NA
ATOM     28  C   UNL     1      -5.215  12.543  21.646  0.00  0.00    +0.000 C 
ATOM     29  C   UNL     1      -6.103  13.781  21.431  0.00  0.00    +0.000 C 
ATOM     30  O   UNL     1      -7.105  13.910  22.451  0.00  0.00    +0.000 OA
ATOM     31  C   UNL     1      -6.519  13.903  23.758  0.00  0.00    +0.000 C 
ATOM     32  C   UNL     1      -5.674  12.633  23.981  0.00  0.00    +0.000 C 
ENDBRANCH  26  27
ENDBRANCH  23  26
ENDBRANCH  22  23
ENDBRANCH   4  22
TORSDOF 12
ENDMDL
MODEL 6
REMARK VINA RESULT:      -6.2      1.292      1.469
REMARK  Name = 
REMARK  14 active torsions:
REMARK  status: ('A' for Active; 'I' for Inactive)
REMARK    1  A    between atoms: C_1  and  C_2
REMARK    2  A    between atoms: C_2  and  C_3
REMARK    3  A    between atoms: C_3  and  N_4
REMARK    4  A    between atoms: N_4  and  C_5
REMARK    5  A    between atoms: C_5  and  C_6
REMARK    6  A    between atoms: C_6  and  C_7
REMARK    7  A    between atoms: C_8  and  C_10
REMARK    8  A    between atoms: C_13  and  C_14
REMARK    9  A    between atoms: C_14  and  N_15
REMARK   10  A    between atoms: N_18  and  C_19
REMARK   11  A    between atoms: C_19  and  C_20
REMARK   12  A    between atoms: C_20  and  O_21
REMARK   13  A    between atoms: C_20  and  C_22
REMARK   14  A    between atoms: C_22  and  N_23
REMARK                            x       y       z     vdW  Elec       q    Type
REMARK                         _______ _______ _______ _____ _____    ______ ____
ROOT
ATOM      1  N   UNL     1       2.589   8.117  18.608  0.00  0.00    +0.000 NA
ATOM      2  C   UNL     1       2.059   7.403  19.790  0.00  0.00    +0.000 C 
ATOM      3  C   UNL     1       1.568   5.960  19.517  0.00  0.00    +0.000 C 
ATOM      4  N   UNL     1       2.562   5.090  18.854  0.00  0.00    +0.000 NA
ATOM      5  C   UNL     1       3.103   5.788  17.668  0.00  0.00    +0.000 C 
ATOM      6  C   UNL     1       3.575   7.242  17.931  0.00  0.00    +0.000 C 
ENDROOT
BRANCH   1   7
ATOM      7  C   UNL     1       1.527   8.516  17.655  0.00  0.00    +0.000 C 
BRANCH   7  11
ATOM      8  C   UNL     1      -0.512  11.007  19.293  0.00  0.00    +0.000 A 
ATOM      9  C   UNL     1      -1.327  10.552  18.273  0.00  0.00    +0.000 A 
ATOM     10  O   UNL     1      -0.628   9.673  17.503  0.00  0.00    +0.000 OA
ATOM     11  C   UNL     1       0.609   9.625  18.091  0.00  0.00    +0.000 A 
ATOM     12  N   UNL     1       0.735  10.425  19.133  0.00  0.00    +0.000 NA
BRANCH   8  14
ATOM     13  N   UNL     1      -0.475  11.758  21.706  0.00  0.00    +0.000 N 
ATOM     14  C   UNL     1      -0.983  11.880  20.382  0.00  0.00    +0.000 C 
ATOM     15  O   UNL     1      -1.855  12.710  20.130  0.00  0.00    +0.000 OA
BRANCH  13  16
ATOM     16  C   UNL     1      -1.152  12.565  22.739  0.00  0.00    +0.000 C 
BRANCH  16  18
ATOM     17  C   UNL     1      -1.329  14.732  24.131  0.00  0.00    +0.000 C 
ATOM     18  C   UNL     1      -0.696  14.014  22.944  0.00  0.00    +0.000 C 
ENDBRANCH  16  18
ENDBRANCH  13  16
BRANCH  13  19
ATOM     19  C   UNL     1       0.432  10.686  22.145  0.00  0.00    +0.000 C 
BRANCH  19  20
ATOM     20  C   UNL     1      -0.233   9.453  22.773  0.00  0.00    +0.000 C 
ATOM     21  C   UNL     1      -0.604   8.322  21.827  0.00  0.00    +0.000 C 
ENDBRANCH  19  20
ENDBRANCH  13  19
ENDBRANCH   8  14
ENDBRANCH   7  11
ENDBRANCH   1   7
BRANCH   4  22
ATOM     22  C   UNL     1       3.648   4.668  19.760  0.00  0.00    +0.000 C 
BRANCH  22  23
ATOM     23  C   UNL     1       4.988   4.237  19.086  0.00  0.00    +0.000 C 
BRANCH  23  24
ATOM     24  O   UNL     1       5.353   2.942  19.589  0.00  0.00    +0.000 OA
ATOM     25  H   UNL     1       5.916   3.058  20.372  0.00  0.00    +0.000 HD
ENDBRANCH  23  24
BRANCH  23  26
ATOM     26  C   UNL     1       6.077   5.293  19.398  0.00  0.00    +0.000 C 
BRANCH  26  27
ATOM     27  N   UNL     1       7.431   5.142  18.830  0.00  0.00    +0.000 NA
ATOM     28  C   UNL     1       8.231   6.391  18.774  0.00  0.00    +0.000 C 
ATOM     29  C   UNL     1       7.726   7.423  17.751  0.00  0.00    +0.000 C 
ATOM     30  O   UNL     1       7.600   6.861  16.435  0.00  0.00    +0.000 OA
ATOM     31  C   UNL     1       6.780   5.687  16.448  0.00  0.00    +0.000 C 
ATOM     32  C   UNL     1       7.325   4.640  17.438  0.00  0.00    +0.000 C 
ENDBRANCH  26  27
ENDBRANCH  23  26
ENDBRANCH  22  23
ENDBRANCH   4  22
TORSDOF 12
ENDMDL
MODEL 7
REMARK VINA RESULT:      -6.1      2.314     11.011
REMARK  Name = 
REMARK  14 active torsions:
REMARK  status: ('A' for Active; 'I' for Inactive)
REMARK    1  A    between atoms: C_1  and  C_2
REMARK    2  A    between atoms: C_2  and  C_3
REMARK    3  A    between atoms: C_3  and  N_4
REMARK    4  A    between atoms: N_4  and  C_5
REMARK    5  A    between atoms: C_5  and  C_6
REMARK    6  A    between atoms: C_6  and  C_7
REMARK    7  A    between atoms: C_8  and  C_10
REMARK    8  A    between atoms: C_13  and  C_14
REMARK    9  A    between atoms: C_14  and  N_15
REMARK   10  A    between atoms: N_18  and  C_19
REMARK   11  A    between atoms: C_19  and  C_20
REMARK   12  A    between atoms: C_20  and  O_21
REMARK   13  A    between atoms: C_20  and  C_22
REMARK   14  A    between atoms: C_22  and  N_23
REMARK                            x       y       z     vdW  Elec       q    Type
REMARK                         _______ _______ _______ _____ _____    ______ ____
ROOT
ATOM      1  N   UNL     1      -0.092   9.810  19.818  0.00  0.00    +0.000 NA
ATOM      2  C   UNL     1       0.081  10.518  21.105  0.00  0.00    +0.000 C 
ATOM      3  C   UNL     1       0.266  12.051  20.989  0.00  0.00    +0.000 C 
ATOM      4  N   UNL     1      -0.792  12.739  20.217  0.00  0.00    +0.000 NA
ATOM      5  C   UNL     1      -0.978  12.044  18.925  0.00  0.00    +0.000 C 
ATOM      6  C   UNL     1      -1.140  10.505  19.034  0.00  0.00    +0.000 C 
ENDROOT
BRANCH   1   7
ATOM      7  C   UNL     1       1.161   9.734  19.032  0.00  0.00    +0.000 C 
BRANCH   7  11
ATOM      8  C   UNL     1       2.628   6.464  18.572  0.00  0.00    +0.000 A 
ATOM      9  C   UNL     1       2.365   6.505  19.929  0.00  0.00    +0.000 A 
ATOM     10  O   UNL     1       1.903   7.743  20.256  0.00  0.00    +0.000 OA
ATOM     11  C   UNL     1       1.901   8.424  19.066  0.00  0.00    +0.000 A 
ATOM     12  N   UNL     1       2.357   7.718  18.048  0.00  0.00    +0.000 NA
BRANCH   8  14
ATOM     13  N   UNL     1       4.398   4.939  17.608  0.00  0.00    +0.000 N 
ATOM     14  C   UNL     1       3.029   5.240  17.858  0.00  0.00    +0.000 C 
ATOM     15  O   UNL     1       2.147   4.486  17.450  0.00  0.00    +0.000 OA
BRANCH  13  16
ATOM     16  C   UNL     1       4.659   3.781  16.733  0.00  0.00    +0.000 C 
BRANCH  16  18
ATOM     17  C   UNL     1       5.571   4.377  14.392  0.00  0.00    +0.000 C 
ATOM     18  C   UNL     1       5.866   3.841  15.790  0.00  0.00    +0.000 C 
ENDBRANCH  16  18
ENDBRANCH  13  16
BRANCH  13  19
ATOM     19  C   UNL     1       5.509   5.858  17.896  0.00  0.00    +0.000 C 
BRANCH  19  20
ATOM     20  C   UNL     1       6.386   5.501  19.105  0.00  0.00    +0.000 C 
ATOM     21  C   UNL     1       7.843   5.933  19.043  0.00  0.00    +0.000 C 
ENDBRANCH  19  20
ENDBRANCH  13  19
ENDBRANCH   8  14
ENDBRANCH   7  11
ENDBRANCH   1   7
BRANCH   4  22
ATOM     22  C   UNL     1      -2.066  12.836  20.954  0.00  0.00    +0.000 C 
BRANCH  22  23
ATOM     23  C   UNL     1      -2.808  14.208  20.882  0.00  0.00    +0.000 C 
BRANCH  23  24
ATOM     24  O   UNL     1      -1.845  15.255  21.083  0.00  0.00    +0.000 OA
ATOM     25  H   UNL     1      -2.244  15.943  21.640  0.00  0.00    +0.000 HD
ENDBRANCH  23  24
BRANCH  23  26
ATOM     26  C   UNL     1      -3.918  14.244  21.962  0.00  0.00    +0.000 C 
BRANCH  26  27
ATOM     27  N   UNL     1      -5.314  14.522  21.570  0.00  0.00    +0.000 NA
ATOM     28  C   UNL     1      -6.318  14.318  22.644  0.00  0.00    +0.000 C 
ATOM     29  C   UNL     1      -6.537  12.847  23.038  0.00  0.00    +0.000 C 
ATOM     30  O   UNL     1      -6.857  12.026  21.904  0.00  0.00    +0.000 OA
ATOM     31  C   UNL     1      -5.869  12.155  20.874  0.00  0.00    +0.000 C 
ATOM     32  C   UNL     1      -5.697  13.626  20.452  0.00  0.00    +0.000 C 
ENDBRANCH  26  27
ENDBRANCH  23  26
ENDBRANCH  22  23
ENDBRANCH   4  22
TORSDOF 12
ENDMDL
MODEL 8
REMARK VINA RESULT:      -6.1      2.345     10.776
REMARK  Name = 
REMARK  14 active torsions:
REMARK  status: ('A' for Active; 'I' for Inactive)
REMARK    1  A    between atoms: C_1  and  C_2
REMARK    2  A    between atoms: C_2  and  C_3
REMARK    3  A    between atoms: C_3  and  N_4
REMARK    4  A    between atoms: N_4  and  C_5
REMARK    5  A    between atoms: C_5  and  C_6
REMARK    6  A    between atoms: C_6  and  C_7
REMARK    7  A    between atoms: C_8  and  C_10
REMARK    8  A    between atoms: C_13  and  C_14
REMARK    9  A    between atoms: C_14  and  N_15
REMARK   10  A    between atoms: N_18  and  C_19
REMARK   11  A    between atoms: C_19  and  C_20
REMARK   12  A    between atoms: C_20  and  O_21
REMARK   13  A    between atoms: C_20  and  C_22
REMARK   14  A    between atoms: C_22  and  N_23
REMARK                            x       y       z     vdW  Elec       q    Type
REMARK                         _______ _______ _______ _____ _____    ______ ____
ROOT
ATOM      1  N   UNL     1       1.509   8.874  21.158  0.00  0.00    +0.000 NA
ATOM      2  C   UNL     1       0.950   9.839  20.185  0.00  0.00    +0.000 C 
ATOM      3  C   UNL     1      -0.521  10.251  20.444  0.00  0.00    +0.000 C 
ATOM      4  N   UNL     1      -0.785  10.757  21.808  0.00  0.00    +0.000 NA
ATOM      5  C   UNL     1      -0.233   9.804  22.794  0.00  0.00    +0.000 C 
ATOM      6  C   UNL     1       1.233   9.370  22.527  0.00  0.00    +0.000 C 
ENDROOT
BRANCH   1   7
ATOM      7  C   UNL     1       0.958   7.509  20.993  0.00  0.00    +0.000 C 
BRANCH   7  11
ATOM      8  C   UNL     1       3.068   5.130  19.279  0.00  0.00    +0.000 A 
ATOM      9  C   UNL     1       2.576   4.404  20.348  0.00  0.00    +0.000 A 
ATOM     10  O   UNL     1       1.842   5.228  21.146  0.00  0.00    +0.000 OA
ATOM     11  C   UNL     1       1.914   6.447  20.523  0.00  0.00    +0.000 A 
ATOM     12  N   UNL     1       2.659   6.444  19.433  0.00  0.00    +0.000 NA
BRANCH   8  14
ATOM     13  N   UNL     1       5.224   4.610  18.068  0.00  0.00    +0.000 N 
ATOM     14  C   UNL     1       3.807   4.526  18.157  0.00  0.00    +0.000 C 
ATOM     15  O   UNL     1       3.165   3.963  17.270  0.00  0.00    +0.000 OA
BRANCH  13  16
ATOM     16  C   UNL     1       5.827   4.124  16.812  0.00  0.00    +0.000 C 
BRANCH  16  18
ATOM     17  C   UNL     1       5.323   6.315  15.544  0.00  0.00    +0.000 C 
ATOM     18  C   UNL     1       5.409   4.792  15.499  0.00  0.00    +0.000 C 
ENDBRANCH  16  18
ENDBRANCH  13  16
BRANCH  13  19
ATOM     19  C   UNL     1       6.061   5.410  18.977  0.00  0.00    +0.000 C 
BRANCH  19  20
ATOM     20  C   UNL     1       7.511   5.645  18.529  0.00  0.00    +0.000 C 
ATOM     21  C   UNL     1       7.891   7.074  18.171  0.00  0.00    +0.000 C 
ENDBRANCH  19  20
ENDBRANCH  13  19
ENDBRANCH   8  14
ENDBRANCH   7  11
ENDBRANCH   1   7
BRANCH   4  22
ATOM     22  C   UNL     1      -0.250  12.114  22.027  0.00  0.00    +0.000 C 
BRANCH  22  23
ATOM     23  C   UNL     1      -1.269  13.194  22.508  0.00  0.00    +0.000 C 
BRANCH  23  24
ATOM     24  O   UNL     1      -0.942  13.557  23.859  0.00  0.00    +0.000 OA
ATOM     25  H   UNL     1      -1.467  14.335  24.109  0.00  0.00    +0.000 HD
ENDBRANCH  23  24
BRANCH  23  26
ATOM     26  C   UNL     1      -2.704  12.621  22.406  0.00  0.00    +0.000 C 
BRANCH  26  27
ATOM     27  N   UNL     1      -3.760  13.400  21.729  0.00  0.00    +0.000 NA
ATOM     28  C   UNL     1      -3.831  14.830  22.119  0.00  0.00    +0.000 C 
ATOM     29  C   UNL     1      -4.328  15.073  23.555  0.00  0.00    +0.000 C 
ATOM     30  O   UNL     1      -5.589  14.433  23.805  0.00  0.00    +0.000 OA
ATOM     31  C   UNL     1      -5.532  13.035  23.496  0.00  0.00    +0.000 C 
ATOM     32  C   UNL     1      -5.083  12.807  22.039  0.00  0.00    +0.000 C 
ENDBRANCH  26  27
ENDBRANCH  23  26
ENDBRANCH  22  23
ENDBRANCH   4  22
TORSDOF 12
ENDMDL
MODEL 9
REMARK VINA RESULT:      -6.1      1.239      1.762
REMARK  Name = 
REMARK  14 active torsions:
REMARK  status: ('A' for Active; 'I' for Inactive)
REMARK    1  A    between atoms: C_1  and  C_2
REMARK    2  A    between atoms: C_2  and  C_3
REMARK    3  A    between atoms: C_3  and  N_4
REMARK    4  A    between atoms: N_4  and  C_5
REMARK    5  A    between atoms: C_5  and  C_6
REMARK    6  A    between atoms: C_6  and  C_7
REMARK    7  A    between atoms: C_8  and  C_10
REMARK    8  A    between atoms: C_13  and  C_14
REMARK    9  A    between atoms: C_14  and  N_15
REMARK   10  A    between atoms: N_18  and  C_19
REMARK   11  A    between atoms: C_19  and  C_20
REMARK   12  A    between atoms: C_20  and  O_21
REMARK   13  A    between atoms: C_20  and  C_22
REMARK   14  A    between atoms: C_22  and  N_23
REMARK                            x       y       z     vdW  Elec       q    Type
REMARK                         _______ _______ _______ _____ _____    ______ ____
ROOT
ATOM      1  N   UNL     1       2.561   8.104  18.705  0.00  0.00    +0.000 NA
ATOM      2  C   UNL     1       2.161   7.511  19.999  0.00  0.00    +0.000 C 
ATOM      3  C   UNL     1       1.490   6.118  19.901  0.00  0.00    +0.000 C 
ATOM      4  N   UNL     1       2.271   5.113  19.148  0.00  0.00    +0.000 NA
ATOM      5  C   UNL     1       2.679   5.690  17.849  0.00  0.00    +0.000 C 
ATOM      6  C   UNL     1       3.331   7.095  17.940  0.00  0.00    +0.000 C 
ENDROOT
BRANCH   1   7
ATOM      7  C   UNL     1       1.404   8.570  17.905  0.00  0.00    +0.000 C 
BRANCH   7  11
ATOM      8  C   UNL     1      -0.901  11.205  18.798  0.00  0.00    +0.000 A 
ATOM      9  C   UNL     1       0.329  11.836  18.831  0.00  0.00    +0.000 A 
ATOM     10  O   UNL     1       1.308  10.915  18.615  0.00  0.00    +0.000 OA
ATOM     11  C   UNL     1       0.628   9.735  18.456  0.00  0.00    +0.000 A 
ATOM     12  N   UNL     1      -0.680   9.853  18.592  0.00  0.00    +0.000 NA
BRANCH   8  14
ATOM     13  N   UNL     1      -2.675  12.439  20.108  0.00  0.00    +0.000 N 
ATOM     14  C   UNL     1      -2.185  11.922  18.876  0.00  0.00    +0.000 C 
ATOM     15  O   UNL     1      -2.850  12.044  17.848  0.00  0.00    +0.000 OA
BRANCH  13  16
ATOM     16  C   UNL     1      -4.049  12.976  20.088  0.00  0.00    +0.000 C 
BRANCH  16  18
ATOM     17  C   UNL     1      -6.597  12.598  20.261  0.00  0.00    +0.000 C 
ATOM     18  C   UNL     1      -5.195  12.057  20.525  0.00  0.00    +0.000 C 
ENDBRANCH  16  18
ENDBRANCH  13  16
BRANCH  13  19
ATOM     19  C   UNL     1      -2.045  12.190  21.414  0.00  0.00    +0.000 C 
BRANCH  19  20
ATOM     20  C   UNL     1      -2.427  13.159  22.544  0.00  0.00    +0.000 C 
ATOM     21  C   UNL     1      -3.231  12.578  23.697  0.00  0.00    +0.000 C 
ENDBRANCH  19  20
ENDBRANCH  13  19
ENDBRANCH   8  14
ENDBRANCH   7  11
ENDBRANCH   1   7
BRANCH   4  22
ATOM     22  C   UNL     1       3.441   4.620  19.899  0.00  0.00    +0.000 C 
BRANCH  22  23
ATOM     23  C   UNL     1       4.695   4.228  19.055  0.00  0.00    +0.000 C 
BRANCH  23  24
ATOM     24  O   UNL     1       5.090   2.896  19.420  0.00  0.00    +0.000 OA
ATOM     25  H   UNL     1       4.309   2.320  19.394  0.00  0.00    +0.000 HD
ENDBRANCH  23  24
BRANCH  23  26
ATOM     26  C   UNL     1       5.828   5.250  19.322  0.00  0.00    +0.000 C 
BRANCH  26  27
ATOM     27  N   UNL     1       7.181   5.003  18.784  0.00  0.00    +0.000 NA
ATOM     28  C   UNL     1       8.115   6.152  18.885  0.00  0.00    +0.000 C 
ATOM     29  C   UNL     1       7.771   7.332  17.961  0.00  0.00    +0.000 C 
ATOM     30  O   UNL     1       7.642   6.924  16.590  0.00  0.00    +0.000 OA
ATOM     31  C   UNL     1       6.698   5.855  16.453  0.00  0.00    +0.000 C 
ATOM     32  C   UNL     1       7.081   4.659  17.345  0.00  0.00    +0.000 C 
ENDBRANCH  26  27
ENDBRANCH  23  26
ENDBRANCH  22  23
ENDBRANCH   4  22
TORSDOF 12
ENDMDL
