MODEL 1
REMARK VINA RESULT:      -6.7      0.000      0.000
REMARK  Name = 
REMARK  17 active torsions:
REMARK  status: ('A' for Active; 'I' for Inactive)
REMARK    1  A    between atoms: C_1  and  C_2
REMARK    2  A    between atoms: C_2  and  C_3
REMARK    3  A    between atoms: C_3  and  C_4
REMARK    4  A    between atoms: C_4  and  C_5
REMARK    5  A    between atoms: C_5  and  C_6
REMARK    6  A    between atoms: C_6  and  C_7
REMARK    7  A    between atoms: C_7  and  C_8
REMARK    8  A    between atoms: C_8  and  C_9
REMARK    9  A    between atoms: C_9  and  C_10
REMARK   10  A    between atoms: C_10  and  C_11
REMARK   11  A    between atoms: C_11  and  C_12
REMARK   12  A    between atoms: C_12  and  C_14
REMARK   13  A    between atoms: C_15  and  C_16
REMARK   14  A    between atoms: C_17  and  C_18
REMARK   15  A    between atoms: N_19  and  C_20
REMARK   16  A    between atoms: C_21  and  C_22
REMARK   17  A    between atoms: C_22  and  O_24
REMARK                            x       y       z     vdW  Elec       q    Type
REMARK                         _______ _______ _______ _____ _____    ______ ____
ROOT
ATOM      1  C   UNL     1       4.982   4.370  17.348  0.00  0.00    +0.000 C 
ATOM      2  O   UNL     1       4.550   4.166  16.215  0.00  0.00    +0.000 OA
ENDROOT
BRANCH   1   3
ATOM      3  C   UNL     1       4.065   4.429  18.528  0.00  0.00    +0.000 A 
ATOM      4  C   UNL     1       3.252   5.581  18.880  0.00  0.00    +0.000 A 
ATOM      5  C   UNL     1       3.209   6.930  18.220  0.00  0.00    +0.000 C 
ATOM      6  C   UNL     1       2.492   5.222  19.973  0.00  0.00    +0.000 A 
ATOM      7  C   UNL     1       1.476   6.033  20.729  0.00  0.00    +0.000 C 
ATOM      8  N   UNL     1       2.809   3.940  20.324  0.00  0.00    +0.000 N 
ATOM      9  C   UNL     1       2.248   3.242  21.467  0.00  0.00    +0.000 C 
ATOM     10  C   UNL     1       3.802   3.426  19.480  0.00  0.00    +0.000 A 
BRANCH  10  11
ATOM     11  C   UNL     1       4.445   2.119  19.684  0.00  0.00    +0.000 C 
ATOM     12  O   UNL     1       5.147   1.784  20.620  0.00  0.00    +0.000 OA
BRANCH  11  13
ATOM     13  O   UNL     1       4.182   1.225  18.704  0.00  0.00    +0.000 OA
ATOM     14  H   UNL     1       4.915   0.617  18.531  0.00  0.00    +0.000 HD
ENDBRANCH  11  13
ENDBRANCH  10  11
ENDBRANCH   1   3
BRANCH   1  15
ATOM     15  C   UNL     1       6.470   4.508  17.568  0.00  0.00    +0.000 C 
BRANCH  15  16
ATOM     16  C   UNL     1       6.885   5.821  18.231  0.00  0.00    +0.000 C 
BRANCH  16  17
ATOM     17  C   UNL     1       6.607   6.994  17.288  0.00  0.00    +0.000 C 
BRANCH  17  18
ATOM     18  C   UNL     1       7.833   7.893  17.176  0.00  0.00    +0.000 C 
BRANCH  18  19
ATOM     19  C   UNL     1       8.075   8.665  18.472  0.00  0.00    +0.000 C 
BRANCH  19  20
ATOM     20  C   UNL     1       8.851   9.954  18.207  0.00  0.00    +0.000 C 
BRANCH  20  21
ATOM     21  C   UNL     1       9.580  10.427  19.463  0.00  0.00    +0.000 C 
BRANCH  21  22
ATOM     22  C   UNL     1      10.334  11.732  19.204  0.00  0.00    +0.000 C 
BRANCH  22  23
ATOM     23  C   UNL     1      11.148  11.648  17.914  0.00  0.00    +0.000 C 
BRANCH  23  25
ATOM     24  C   UNL     1      10.086  13.919  17.732  0.00  0.00    +0.000 C 
ATOM     25  C   UNL     1      11.131  12.976  17.159  0.00  0.00    +0.000 C 
ENDBRANCH  23  25
ENDBRANCH  22  23
ENDBRANCH  21  22
ENDBRANCH  20  21
ENDBRANCH  19  20
ENDBRANCH  18  19
ENDBRANCH  17  18
ENDBRANCH  16  17
ENDBRANCH  15  16
ENDBRANCH   1  15
TORSDOF 13
ENDMDL
MODEL 2
REMARK VINA RESULT:      -6.5      0.873      1.288
REMARK  Name = 
REMARK  17 active torsions:
REMARK  status: ('A' for Active; 'I' for Inactive)
REMARK    1  A    between atoms: C_1  and  C_2
REMARK    2  A    between atoms: C_2  and  C_3
REMARK    3  A    between atoms: C_3  and  C_4
REMARK    4  A    between atoms: C_4  and  C_5
REMARK    5  A    between atoms: C_5  and  C_6
REMARK    6  A    between atoms: C_6  and  C_7
REMARK    7  A    between atoms: C_7  and  C_8
REMARK    8  A    between atoms: C_8  and  C_9
REMARK    9  A    between atoms: C_9  and  C_10
REMARK   10  A    between atoms: C_10  and  C_11
REMARK   11  A    between atoms: C_11  and  C_12
REMARK   12  A    between atoms: C_12  and  C_14
REMARK   13  A    between atoms: C_15  and  C_16
REMARK   14  A    between atoms: C_17  and  C_18
REMARK   15  A    between atoms: N_19  and  C_20
REMARK   16  A    between atoms: C_21  and  C_22
REMARK   17  A    between atoms: C_22  and  O_24
REMARK                            x       y       z     vdW  Elec       q    Type
REMARK                         _______ _______ _______ _____ _____    ______ ____
ROOT
ATOM      1  C   UNL     1       4.792   4.267  17.230  0.00  0.00    +0.000 C 
ATOM      2  O   UNL     1       4.292   4.161  16.111  0.00  0.00    +0.000 OA
ENDROOT
BRANCH   1   3
ATOM      3  C   UNL     1       3.939   4.425  18.447  0.00  0.00    +0.000 A 
ATOM      4  C   UNL     1       3.201   5.631  18.783  0.00  0.00    +0.000 A 
ATOM      5  C   UNL     1       3.191   6.950  18.063  0.00  0.00    +0.000 C 
ATOM      6  C   UNL     1       2.480   5.360  19.927  0.00  0.00    +0.000 A 
ATOM      7  C   UNL     1       1.543   6.254  20.691  0.00  0.00    +0.000 C 
ATOM      8  N   UNL     1       2.751   4.081  20.322  0.00  0.00    +0.000 N 
ATOM      9  C   UNL     1       2.215   3.464  21.522  0.00  0.00    +0.000 C 
ATOM     10  C   UNL     1       3.675   3.480  19.458  0.00  0.00    +0.000 A 
BRANCH  10  11
ATOM     11  C   UNL     1       4.264   2.152  19.692  0.00  0.00    +0.000 C 
ATOM     12  O   UNL     1       4.971   1.817  20.624  0.00  0.00    +0.000 OA
BRANCH  11  13
ATOM     13  O   UNL     1       3.939   1.239  18.749  0.00  0.00    +0.000 OA
ATOM     14  H   UNL     1       4.493   1.291  17.956  0.00  0.00    +0.000 HD
ENDBRANCH  11  13
ENDBRANCH  10  11
ENDBRANCH   1   3
BRANCH   1  15
ATOM     15  C   UNL     1       6.291   4.180  17.391  0.00  0.00    +0.000 C 
BRANCH  15  16
ATOM     16  C   UNL     1       7.080   4.704  16.192  0.00  0.00    +0.000 C 
BRANCH  16  17
ATOM     17  C   UNL     1       7.065   6.234  16.184  0.00  0.00    +0.000 C 
BRANCH  17  18
ATOM     18  C   UNL     1       7.399   6.780  17.567  0.00  0.00    +0.000 C 
BRANCH  18  19
ATOM     19  C   UNL     1       7.505   8.304  17.552  0.00  0.00    +0.000 C 
BRANCH  19  20
ATOM     20  C   UNL     1       8.601   8.788  18.499  0.00  0.00    +0.000 C 
BRANCH  20  21
ATOM     21  C   UNL     1       8.980  10.239  18.208  0.00  0.00    +0.000 C 
BRANCH  21  22
ATOM     22  C   UNL     1       9.590  10.907  19.441  0.00  0.00    +0.000 C 
BRANCH  22  23
ATOM     23  C   UNL     1      10.832  11.716  19.068  0.00  0.00    +0.000 C 
BRANCH  23  25
ATOM     24  C   UNL     1      10.336  13.055  21.137  0.00  0.00    +0.000 C 
ATOM     25  C   UNL     1      11.424  12.418  20.289  0.00  0.00    +0.000 C 
ENDBRANCH  23  25
ENDBRANCH  22  23
ENDBRANCH  21  22
ENDBRANCH  20  21
ENDBRANCH  19  20
ENDBRANCH  18  19
ENDBRANCH  17  18
ENDBRANCH  16  17
ENDBRANCH  15  16
ENDBRANCH   1  15
TORSDOF 13
ENDMDL
MODEL 3
REMARK VINA RESULT:      -6.5      4.437      6.870
REMARK  Name = 
REMARK  17 active torsions:
REMARK  status: ('A' for Active; 'I' for Inactive)
REMARK    1  A    between atoms: C_1  and  C_2
REMARK    2  A    between atoms: C_2  and  C_3
REMARK    3  A    between atoms: C_3  and  C_4
REMARK    4  A    between atoms: C_4  and  C_5
REMARK    5  A    between atoms: C_5  and  C_6
REMARK    6  A    between atoms: C_6  and  C_7
REMARK    7  A    between atoms: C_7  and  C_8
REMARK    8  A    between atoms: C_8  and  C_9
REMARK    9  A    between atoms: C_9  and  C_10
REMARK   10  A    between atoms: C_10  and  C_11
REMARK   11  A    between atoms: C_11  and  C_12
REMARK   12  A    between atoms: C_12  and  C_14
REMARK   13  A    between atoms: C_15  and  C_16
REMARK   14  A    between atoms: C_17  and  C_18
REMARK   15  A    between atoms: N_19  and  C_20
REMARK   16  A    between atoms: C_21  and  C_22
REMARK   17  A    between atoms: C_22  and  O_24
REMARK                            x       y       z     vdW  Elec       q    Type
REMARK                         _______ _______ _______ _____ _____    ______ ____
ROOT
ATOM      1  C   UNL     1       5.705   4.330  18.507  0.00  0.00    +0.000 C 
ATOM      2  O   UNL     1       6.655   4.894  19.047  0.00  0.00    +0.000 OA
ENDROOT
BRANCH   1   3
ATOM      3  C   UNL     1       4.416   4.118  19.235  0.00  0.00    +0.000 A 
ATOM      4  C   UNL     1       3.351   5.103  19.324  0.00  0.00    +0.000 A 
ATOM      5  C   UNL     1       3.335   6.511  18.800  0.00  0.00    +0.000 C 
ATOM      6  C   UNL     1       2.307   4.510  20.003  0.00  0.00    +0.000 A 
ATOM      7  C   UNL     1       0.962   5.081  20.358  0.00  0.00    +0.000 C 
ATOM      8  N   UNL     1       2.677   3.243  20.355  0.00  0.00    +0.000 N 
ATOM      9  C   UNL     1       1.853   2.336  21.133  0.00  0.00    +0.000 C 
ATOM     10  C   UNL     1       3.985   2.973  19.932  0.00  0.00    +0.000 A 
BRANCH  10  11
ATOM     11  C   UNL     1       4.712   1.741  20.275  0.00  0.00    +0.000 C 
ATOM     12  O   UNL     1       5.261   1.483  21.331  0.00  0.00    +0.000 OA
BRANCH  11  13
ATOM     13  O   UNL     1       4.728   0.825  19.281  0.00  0.00    +0.000 OA
ATOM     14  H   UNL     1       3.866   0.415  19.122  0.00  0.00    +0.000 HD
ENDBRANCH  11  13
ENDBRANCH  10  11
ENDBRANCH   1   3
BRANCH   1  15
ATOM     15  C   UNL     1       5.814   3.893  17.066  0.00  0.00    +0.000 C 
BRANCH  15  16
ATOM     16  C   UNL     1       6.865   4.655  16.259  0.00  0.00    +0.000 C 
BRANCH  16  17
ATOM     17  C   UNL     1       6.186   5.487  15.169  0.00  0.00    +0.000 C 
BRANCH  17  18
ATOM     18  C   UNL     1       5.549   4.579  14.122  0.00  0.00    +0.000 C 
BRANCH  18  19
ATOM     19  C   UNL     1       6.604   3.752  13.390  0.00  0.00    +0.000 C 
BRANCH  19  20
ATOM     20  C   UNL     1       6.259   3.609  11.909  0.00  0.00    +0.000 C 
BRANCH  20  21
ATOM     21  C   UNL     1       5.120   2.612  11.701  0.00  0.00    +0.000 C 
BRANCH  21  22
ATOM     22  C   UNL     1       3.812   3.331  11.371  0.00  0.00    +0.000 C 
BRANCH  22  23
ATOM     23  C   UNL     1       3.739   3.683   9.885  0.00  0.00    +0.000 C 
BRANCH  23  25
ATOM     24  C   UNL     1       2.218   5.330   8.748  0.00  0.00    +0.000 C 
ATOM     25  C   UNL     1       2.305   3.989   9.457  0.00  0.00    +0.000 C 
ENDBRANCH  23  25
ENDBRANCH  22  23
ENDBRANCH  21  22
ENDBRANCH  20  21
ENDBRANCH  19  20
ENDBRANCH  18  19
ENDBRANCH  17  18
ENDBRANCH  16  17
ENDBRANCH  15  16
ENDBRANCH   1  15
TORSDOF 13
ENDMDL
MODEL 4
REMARK VINA RESULT:      -6.4      1.145      1.674
REMARK  Name = 
REMARK  17 active torsions:
REMARK  status: ('A' for Active; 'I' for Inactive)
REMARK    1  A    between atoms: C_1  and  C_2
REMARK    2  A    between atoms: C_2  and  C_3
REMARK    3  A    between atoms: C_3  and  C_4
REMARK    4  A    between atoms: C_4  and  C_5
REMARK    5  A    between atoms: C_5  and  C_6
REMARK    6  A    between atoms: C_6  and  C_7
REMARK    7  A    between atoms: C_7  and  C_8
REMARK    8  A    between atoms: C_8  and  C_9
REMARK    9  A    between atoms: C_9  and  C_10
REMARK   10  A    between atoms: C_10  and  C_11
REMARK   11  A    between atoms: C_11  and  C_12
REMARK   12  A    between atoms: C_12  and  C_14
REMARK   13  A    between atoms: C_15  and  C_16
REMARK   14  A    between atoms: C_17  and  C_18
REMARK   15  A    between atoms: N_19  and  C_20
REMARK   16  A    between atoms: C_21  and  C_22
REMARK   17  A    between atoms: C_22  and  O_24
REMARK                            x       y       z     vdW  Elec       q    Type
REMARK                         _______ _______ _______ _____ _____    ______ ____
ROOT
ATOM      1  C   UNL     1       4.895   4.595  17.122  0.00  0.00    +0.000 C 
ATOM      2  O   UNL     1       4.501   4.159  16.041  0.00  0.00    +0.000 OA
ENDROOT
BRANCH   1   3
ATOM      3  C   UNL     1       3.979   4.686  18.300  0.00  0.00    +0.000 A 
ATOM      4  C   UNL     1       3.311   5.904  18.730  0.00  0.00    +0.000 A 
ATOM      5  C   UNL     1       3.445   7.290  18.166  0.00  0.00    +0.000 C 
ATOM      6  C   UNL     1       2.500   5.567  19.793  0.00  0.00    +0.000 A 
ATOM      7  C   UNL     1       1.584   6.445  20.601  0.00  0.00    +0.000 C 
ATOM      8  N   UNL     1       2.650   4.235  20.054  0.00  0.00    +0.000 N 
ATOM      9  C   UNL     1       1.994   3.535  21.144  0.00  0.00    +0.000 C 
ATOM     10  C   UNL     1       3.581   3.660  19.180  0.00  0.00    +0.000 A 
BRANCH  10  11
ATOM     11  C   UNL     1       4.054   2.272  19.293  0.00  0.00    +0.000 C 
ATOM     12  O   UNL     1       3.607   1.295  18.718  0.00  0.00    +0.000 OA
BRANCH  11  13
ATOM     13  O   UNL     1       5.110   2.123  20.123  0.00  0.00    +0.000 OA
ATOM     14  H   UNL     1       5.629   2.933  20.234  0.00  0.00    +0.000 HD
ENDBRANCH  11  13
ENDBRANCH  10  11
ENDBRANCH   1   3
BRANCH   1  15
ATOM     15  C   UNL     1       6.342   4.992  17.286  0.00  0.00    +0.000 C 
BRANCH  15  16
ATOM     16  C   UNL     1       6.666   6.396  16.777  0.00  0.00    +0.000 C 
BRANCH  16  17
ATOM     17  C   UNL     1       7.735   7.040  17.664  0.00  0.00    +0.000 C 
BRANCH  17  18
ATOM     18  C   UNL     1       7.613   8.559  17.633  0.00  0.00    +0.000 C 
BRANCH  18  19
ATOM     19  C   UNL     1       8.635   9.216  18.559  0.00  0.00    +0.000 C 
BRANCH  19  20
ATOM     20  C   UNL     1       8.917  10.656  18.131  0.00  0.00    +0.000 C 
BRANCH  20  21
ATOM     21  C   UNL     1      10.187  11.188  18.792  0.00  0.00    +0.000 C 
BRANCH  21  22
ATOM     22  C   UNL     1      10.073  11.149  20.316  0.00  0.00    +0.000 C 
BRANCH  22  23
ATOM     23  C   UNL     1      10.595  12.444  20.939  0.00  0.00    +0.000 C 
BRANCH  23  25
ATOM     24  C   UNL     1       8.459  13.767  20.855  0.00  0.00    +0.000 C 
ATOM     25  C   UNL     1       9.510  13.142  21.757  0.00  0.00    +0.000 C 
ENDBRANCH  23  25
ENDBRANCH  22  23
ENDBRANCH  21  22
ENDBRANCH  20  21
ENDBRANCH  19  20
ENDBRANCH  18  19
ENDBRANCH  17  18
ENDBRANCH  16  17
ENDBRANCH  15  16
ENDBRANCH   1  15
TORSDOF 13
ENDMDL
MODEL 5
REMARK VINA RESULT:      -6.3      6.077      9.236
REMARK  Name = 
REMARK  17 active torsions:
REMARK  status: ('A' for Active; 'I' for Inactive)
REMARK    1  A    between atoms: C_1  and  C_2
REMARK    2  A    between atoms: C_2  and  C_3
REMARK    3  A    between atoms: C_3  and  C_4
REMARK    4  A    between atoms: C_4  and  C_5
REMARK    5  A    between atoms: C_5  and  C_6
REMARK    6  A    between atoms: C_6  and  C_7
REMARK    7  A    between atoms: C_7  and  C_8
REMARK    8  A    between atoms: C_8  and  C_9
REMARK    9  A    between atoms: C_9  and  C_10
REMARK   10  A    between atoms: C_10  and  C_11
REMARK   11  A    between atoms: C_11  and  C_12
REMARK   12  A    between atoms: C_12  and  C_14
REMARK   13  A    between atoms: C_15  and  C_16
REMARK   14  A    between atoms: C_17  and  C_18
REMARK   15  A    between atoms: N_19  and  C_20
REMARK   16  A    between atoms: C_21  and  C_22
REMARK   17  A    between atoms: C_22  and  O_24
REMARK                            x       y       z     vdW  Elec       q    Type
REMARK                         _______ _______ _______ _____ _____    ______ ____
ROOT
ATOM      1  C   UNL     1       0.089   8.685  21.228  0.00  0.00    +0.000 C 
ATOM      2  O   UNL     1      -0.761   7.963  21.749  0.00  0.00    +0.000 OA
ENDROOT
BRANCH   1   3
ATOM      3  C   UNL     1      -0.232  10.084  20.813  0.00  0.00    +0.000 A 
ATOM      4  C   UNL     1      -0.764  11.103  21.703  0.00  0.00    +0.000 A 
ATOM      5  C   UNL     1      -1.164  10.968  23.144  0.00  0.00    +0.000 C 
ATOM      6  C   UNL     1      -0.851  12.271  20.974  0.00  0.00    +0.000 A 
ATOM      7  C   UNL     1      -1.325  13.629  21.413  0.00  0.00    +0.000 C 
ATOM      8  N   UNL     1      -0.434  12.023  19.697  0.00  0.00    +0.000 N 
ATOM      9  C   UNL     1      -0.441  13.005  18.628  0.00  0.00    +0.000 C 
ATOM     10  C   UNL     1      -0.078  10.677  19.545  0.00  0.00    +0.000 A 
BRANCH  10  11
ATOM     11  C   UNL     1       0.288  10.073  18.254  0.00  0.00    +0.000 C 
ATOM     12  O   UNL     1       1.404   9.760  17.880  0.00  0.00    +0.000 OA
BRANCH  11  13
ATOM     13  O   UNL     1      -0.768   9.847  17.441  0.00  0.00    +0.000 OA
ATOM     14  H   UNL     1      -0.839  10.486  16.716  0.00  0.00    +0.000 HD
ENDBRANCH  11  13
ENDBRANCH  10  11
ENDBRANCH   1   3
BRANCH   1  15
ATOM     15  C   UNL     1       1.499   8.173  21.055  0.00  0.00    +0.000 C 
BRANCH  15  16
ATOM     16  C   UNL     1       1.588   6.690  20.699  0.00  0.00    +0.000 C 
BRANCH  16  17
ATOM     17  C   UNL     1       2.369   6.510  19.396  0.00  0.00    +0.000 C 
BRANCH  17  18
ATOM     18  C   UNL     1       3.623   5.676  19.635  0.00  0.00    +0.000 C 
BRANCH  18  19
ATOM     19  C   UNL     1       3.944   4.798  18.426  0.00  0.00    +0.000 C 
BRANCH  19  20
ATOM     20  C   UNL     1       2.677   4.458  17.642  0.00  0.00    +0.000 C 
BRANCH  20  21
ATOM     21  C   UNL     1       2.489   2.947  17.527  0.00  0.00    +0.000 C 
BRANCH  21  22
ATOM     22  C   UNL     1       2.232   2.318  18.897  0.00  0.00    +0.000 C 
BRANCH  22  23
ATOM     23  C   UNL     1       0.935   2.846  19.509  0.00  0.00    +0.000 C 
BRANCH  23  25
ATOM     24  C   UNL     1       2.494   2.754  21.480  0.00  0.00    +0.000 C 
ATOM     25  C   UNL     1       1.086   3.081  21.011  0.00  0.00    +0.000 C 
ENDBRANCH  23  25
ENDBRANCH  22  23
ENDBRANCH  21  22
ENDBRANCH  20  21
ENDBRANCH  19  20
ENDBRANCH  18  19
ENDBRANCH  17  18
ENDBRANCH  16  17
ENDBRANCH  15  16
ENDBRANCH   1  15
TORSDOF 13
ENDMDL
MODEL 6
REMARK VINA RESULT:      -6.2      5.962      9.291
REMARK  Name = 
REMARK  17 active torsions:
REMARK  status: ('A' for Active; 'I' for Inactive)
REMARK    1  A    between atoms: C_1  and  C_2
REMARK    2  A    between atoms: C_2  and  C_3
REMARK    3  A    between atoms: C_3  and  C_4
REMARK    4  A    between atoms: C_4  and  C_5
REMARK    5  A    between atoms: C_5  and  C_6
REMARK    6  A    between atoms: C_6  and  C_7
REMARK    7  A    between atoms: C_7  and  C_8
REMARK    8  A    between atoms: C_8  and  C_9
REMARK    9  A    between atoms: C_9  and  C_10
REMARK   10  A    between atoms: C_10  and  C_11
REMARK   11  A    between atoms: C_11  and  C_12
REMARK   12  A    between atoms: C_12  and  C_14
REMARK   13  A    between atoms: C_15  and  C_16
REMARK   14  A    between atoms: C_17  and  C_18
REMARK   15  A    between atoms: N_19  and  C_20
REMARK   16  A    between atoms: C_21  and  C_22
REMARK   17  A    between atoms: C_22  and  O_24
REMARK                            x       y       z     vdW  Elec       q    Type
REMARK                         _______ _______ _______ _____ _____    ______ ____
ROOT
ATOM      1  C   UNL     1       1.338  10.232  18.529  0.00  0.00    +0.000 C 
ATOM      2  O   UNL     1       2.129  11.027  18.023  0.00  0.00    +0.000 OA
ENDROOT
BRANCH   1   3
ATOM      3  C   UNL     1       0.313  10.685  19.518  0.00  0.00    +0.000 A 
ATOM      4  C   UNL     1       0.302  10.306  20.922  0.00  0.00    +0.000 A 
ATOM      5  C   UNL     1       1.222   9.361  21.641  0.00  0.00    +0.000 C 
ATOM      6  C   UNL     1      -0.744  10.981  21.515  0.00  0.00    +0.000 A 
ATOM      7  C   UNL     1      -1.193  10.960  22.950  0.00  0.00    +0.000 C 
ATOM      8  N   UNL     1      -1.383  11.723  20.563  0.00  0.00    +0.000 N 
ATOM      9  C   UNL     1      -2.569  12.523  20.808  0.00  0.00    +0.000 C 
ATOM     10  C   UNL     1      -0.786  11.540  19.309  0.00  0.00    +0.000 A 
BRANCH  10  11
ATOM     11  C   UNL     1      -1.326  12.102  18.061  0.00  0.00    +0.000 C 
ATOM     12  O   UNL     1      -2.211  11.635  17.368  0.00  0.00    +0.000 OA
BRANCH  11  13
ATOM     13  O   UNL     1      -0.754  13.273  17.700  0.00  0.00    +0.000 OA
ATOM     14  H   UNL     1       0.089  13.443  18.146  0.00  0.00    +0.000 HD
ENDBRANCH  11  13
ENDBRANCH  10  11
ENDBRANCH   1   3
BRANCH   1  15
ATOM     15  C   UNL     1       1.360   8.783  18.106  0.00  0.00    +0.000 C 
BRANCH  15  16
ATOM     16  C   UNL     1       2.759   8.235  17.823  0.00  0.00    +0.000 C 
BRANCH  16  17
ATOM     17  C   UNL     1       2.938   6.881  18.512  0.00  0.00    +0.000 C 
BRANCH  17  18
ATOM     18  C   UNL     1       3.786   5.951  17.652  0.00  0.00    +0.000 C 
BRANCH  18  19
ATOM     19  C   UNL     1       4.220   4.712  18.434  0.00  0.00    +0.000 C 
BRANCH  19  20
ATOM     20  C   UNL     1       3.637   3.441  17.818  0.00  0.00    +0.000 C 
BRANCH  20  21
ATOM     21  C   UNL     1       2.155   3.615  17.491  0.00  0.00    +0.000 C 
BRANCH  21  22
ATOM     22  C   UNL     1       1.286   2.739  18.393  0.00  0.00    +0.000 C 
BRANCH  22  23
ATOM     23  C   UNL     1       2.075   2.246  19.605  0.00  0.00    +0.000 C 
BRANCH  23  25
ATOM     24  C   UNL     1       1.051   4.338  20.552  0.00  0.00    +0.000 C 
ATOM     25  C   UNL     1       1.658   2.983  20.877  0.00  0.00    +0.000 C 
ENDBRANCH  23  25
ENDBRANCH  22  23
ENDBRANCH  21  22
ENDBRANCH  20  21
ENDBRANCH  19  20
ENDBRANCH  18  19
ENDBRANCH  17  18
ENDBRANCH  16  17
ENDBRANCH  15  16
ENDBRANCH   1  15
TORSDOF 13
ENDMDL
MODEL 7
REMARK VINA RESULT:      -6.1      2.420      3.305
REMARK  Name = 
REMARK  17 active torsions:
REMARK  status: ('A' for Active; 'I' for Inactive)
REMARK    1  A    between atoms: C_1  and  C_2
REMARK    2  A    between atoms: C_2  and  C_3
REMARK    3  A    between atoms: C_3  and  C_4
REMARK    4  A    between atoms: C_4  and  C_5
REMARK    5  A    between atoms: C_5  and  C_6
REMARK    6  A    between atoms: C_6  and  C_7
REMARK    7  A    between atoms: C_7  and  C_8
REMARK    8  A    between atoms: C_8  and  C_9
REMARK    9  A    between atoms: C_9  and  C_10
REMARK   10  A    between atoms: C_10  and  C_11
REMARK   11  A    between atoms: C_11  and  C_12
REMARK   12  A    between atoms: C_12  and  C_14
REMARK   13  A    between atoms: C_15  and  C_16
REMARK   14  A    between atoms: C_17  and  C_18
REMARK   15  A    between atoms: N_19  and  C_20
REMARK   16  A    between atoms: C_21  and  C_22
REMARK   17  A    between atoms: C_22  and  O_24
REMARK                            x       y       z     vdW  Elec       q    Type
REMARK                         _______ _______ _______ _____ _____    ______ ____
ROOT
ATOM      1  C   UNL     1       5.152   6.678  16.776  0.00  0.00    +0.000 C 
ATOM      2  O   UNL     1       5.241   6.941  15.577  0.00  0.00    +0.000 OA
ENDROOT
BRANCH   1   3
ATOM      3  C   UNL     1       4.215   5.622  17.268  0.00  0.00    +0.000 A 
ATOM      4  C   UNL     1       4.316   4.212  16.931  0.00  0.00    +0.000 A 
ATOM      5  C   UNL     1       5.284   3.542  15.998  0.00  0.00    +0.000 C 
ATOM      6  C   UNL     1       3.329   3.555  17.636  0.00  0.00    +0.000 A 
ATOM      7  C   UNL     1       2.999   2.088  17.662  0.00  0.00    +0.000 C 
ATOM      8  N   UNL     1       2.620   4.474  18.356  0.00  0.00    +0.000 N 
ATOM      9  C   UNL     1       1.465   4.158  19.176  0.00  0.00    +0.000 C 
ATOM     10  C   UNL     1       3.111   5.767  18.130  0.00  0.00    +0.000 A 
BRANCH  10  11
ATOM     11  C   UNL     1       2.475   6.983  18.661  0.00  0.00    +0.000 C 
ATOM     12  O   UNL     1       2.396   7.320  19.828  0.00  0.00    +0.000 OA
BRANCH  11  13
ATOM     13  O   UNL     1       1.953   7.785  17.706  0.00  0.00    +0.000 OA
ATOM     14  H   UNL     1       0.989   7.864  17.755  0.00  0.00    +0.000 HD
ENDBRANCH  11  13
ENDBRANCH  10  11
ENDBRANCH   1   3
BRANCH   1  15
ATOM     15  C   UNL     1       6.043   7.389  17.766  0.00  0.00    +0.000 C 
BRANCH  15  16
ATOM     16  C   UNL     1       7.534   7.291  17.448  0.00  0.00    +0.000 C 
BRANCH  16  17
ATOM     17  C   UNL     1       8.159   8.688  17.437  0.00  0.00    +0.000 C 
BRANCH  17  18
ATOM     18  C   UNL     1       8.730   9.030  18.809  0.00  0.00    +0.000 C 
BRANCH  18  19
ATOM     19  C   UNL     1       9.077  10.514  18.911  0.00  0.00    +0.000 C 
BRANCH  19  20
ATOM     20  C   UNL     1       9.571  10.868  20.313  0.00  0.00    +0.000 C 
BRANCH  20  21
ATOM     21  C   UNL     1      10.368  12.170  20.305  0.00  0.00    +0.000 C 
BRANCH  21  22
ATOM     22  C   UNL     1      11.854  11.906  20.060  0.00  0.00    +0.000 C 
BRANCH  22  23
ATOM     23  C   UNL     1      12.193  12.018  18.574  0.00  0.00    +0.000 C 
BRANCH  23  25
ATOM     24  C   UNL     1      11.358  13.396  16.643  0.00  0.00    +0.000 C 
ATOM     25  C   UNL     1      11.931  13.429  18.051  0.00  0.00    +0.000 C 
ENDBRANCH  23  25
ENDBRANCH  22  23
ENDBRANCH  21  22
ENDBRANCH  20  21
ENDBRANCH  19  20
ENDBRANCH  18  19
ENDBRANCH  17  18
ENDBRANCH  16  17
ENDBRANCH  15  16
ENDBRANCH   1  15
TORSDOF 13
ENDMDL
MODEL 8
REMARK VINA RESULT:      -6.0      0.658      1.090
REMARK  Name = 
REMARK  17 active torsions:
REMARK  status: ('A' for Active; 'I' for Inactive)
REMARK    1  A    between atoms: C_1  and  C_2
REMARK    2  A    between atoms: C_2  and  C_3
REMARK    3  A    between atoms: C_3  and  C_4
REMARK    4  A    between atoms: C_4  and  C_5
REMARK    5  A    between atoms: C_5  and  C_6
REMARK    6  A    between atoms: C_6  and  C_7
REMARK    7  A    between atoms: C_7  and  C_8
REMARK    8  A    between atoms: C_8  and  C_9
REMARK    9  A    between atoms: C_9  and  C_10
REMARK   10  A    between atoms: C_10  and  C_11
REMARK   11  A    between atoms: C_11  and  C_12
REMARK   12  A    between atoms: C_12  and  C_14
REMARK   13  A    between atoms: C_15  and  C_16
REMARK   14  A    between atoms: C_17  and  C_18
REMARK   15  A    between atoms: N_19  and  C_20
REMARK   16  A    between atoms: C_21  and  C_22
REMARK   17  A    between atoms: C_22  and  O_24
REMARK                            x       y       z     vdW  Elec       q    Type
REMARK                         _______ _______ _______ _____ _____    ______ ____
ROOT
ATOM      1  C   UNL     1       4.693   4.508  17.235  0.00  0.00    +0.000 C 
ATOM      2  O   UNL     1       4.349   4.202  16.094  0.00  0.00    +0.000 OA
ENDROOT
BRANCH   1   3
ATOM      3  C   UNL     1       3.733   4.436  18.379  0.00  0.00    +0.000 A 
ATOM      4  C   UNL     1       2.918   5.548  18.839  0.00  0.00    +0.000 A 
ATOM      5  C   UNL     1       2.912   6.967  18.348  0.00  0.00    +0.000 C 
ATOM      6  C   UNL     1       2.114   5.068  19.852  0.00  0.00    +0.000 A 
ATOM      7  C   UNL     1       1.078   5.795  20.664  0.00  0.00    +0.000 C 
ATOM      8  N   UNL     1       2.406   3.749  20.056  0.00  0.00    +0.000 N 
ATOM      9  C   UNL     1       1.796   2.926  21.084  0.00  0.00    +0.000 C 
ATOM     10  C   UNL     1       3.425   3.328  19.192  0.00  0.00    +0.000 A 
BRANCH  10  11
ATOM     11  C   UNL     1       4.048   1.997  19.257  0.00  0.00    +0.000 C 
ATOM     12  O   UNL     1       3.714   0.999  18.644  0.00  0.00    +0.000 OA
BRANCH  11  13
ATOM     13  O   UNL     1       5.111   1.935  20.090  0.00  0.00    +0.000 OA
ATOM     14  H   UNL     1       5.111   1.149  20.656  0.00  0.00    +0.000 HD
ENDBRANCH  11  13
ENDBRANCH  10  11
ENDBRANCH   1   3
BRANCH   1  15
ATOM     15  C   UNL     1       6.123   4.911  17.502  0.00  0.00    +0.000 C 
BRANCH  15  16
ATOM     16  C   UNL     1       6.278   6.303  18.112  0.00  0.00    +0.000 C 
BRANCH  16  17
ATOM     17  C   UNL     1       7.762   6.633  18.292  0.00  0.00    +0.000 C 
BRANCH  17  18
ATOM     18  C   UNL     1       8.170   7.780  17.374  0.00  0.00    +0.000 C 
BRANCH  18  19
ATOM     19  C   UNL     1       7.762   9.131  17.959  0.00  0.00    +0.000 C 
BRANCH  19  20
ATOM     20  C   UNL     1       8.949   9.822  18.628  0.00  0.00    +0.000 C 
BRANCH  20  21
ATOM     21  C   UNL     1       9.173  11.217  18.048  0.00  0.00    +0.000 C 
BRANCH  21  22
ATOM     22  C   UNL     1      10.657  11.475  17.789  0.00  0.00    +0.000 C 
BRANCH  22  23
ATOM     23  C   UNL     1      10.921  12.959  17.540  0.00  0.00    +0.000 C 
BRANCH  23  25
ATOM     24  C   UNL     1      10.035  15.297  17.810  0.00  0.00    +0.000 C 
ATOM     25  C   UNL     1       9.745  13.818  18.002  0.00  0.00    +0.000 C 
ENDBRANCH  23  25
ENDBRANCH  22  23
ENDBRANCH  21  22
ENDBRANCH  20  21
ENDBRANCH  19  20
ENDBRANCH  18  19
ENDBRANCH  17  18
ENDBRANCH  16  17
ENDBRANCH  15  16
ENDBRANCH   1  15
TORSDOF 13
ENDMDL
MODEL 9
REMARK VINA RESULT:      -6.0      5.851      9.059
REMARK  Name = 
REMARK  17 active torsions:
REMARK  status: ('A' for Active; 'I' for Inactive)
REMARK    1  A    between atoms: C_1  and  C_2
REMARK    2  A    between atoms: C_2  and  C_3
REMARK    3  A    between atoms: C_3  and  C_4
REMARK    4  A    between atoms: C_4  and  C_5
REMARK    5  A    between atoms: C_5  and  C_6
REMARK    6  A    between atoms: C_6  and  C_7
REMARK    7  A    between atoms: C_7  and  C_8
REMARK    8  A    between atoms: C_8  and  C_9
REMARK    9  A    between atoms: C_9  and  C_10
REMARK   10  A    between atoms: C_10  and  C_11
REMARK   11  A    between atoms: C_11  and  C_12
REMARK   12  A    between atoms: C_12  and  C_14
REMARK   13  A    between atoms: C_15  and  C_16
REMARK   14  A    between atoms: C_17  and  C_18
REMARK   15  A    between atoms: N_19  and  C_20
REMARK   16  A    between atoms: C_21  and  C_22
REMARK   17  A    between atoms: C_22  and  O_24
REMARK                            x       y       z     vdW  Elec       q    Type
REMARK                         _______ _______ _______ _____ _____    ______ ____
ROOT
ATOM      1  C   UNL     1       1.557  10.016  18.512  0.00  0.00    +0.000 C 
ATOM      2  O   UNL     1       2.503  10.731  18.184  0.00  0.00    +0.000 OA
ENDROOT
BRANCH   1   3
ATOM      3  C   UNL     1       0.583  10.451  19.558  0.00  0.00    +0.000 A 
ATOM      4  C   UNL     1       0.522   9.903  20.904  0.00  0.00    +0.000 A 
ATOM      5  C   UNL     1       1.328   8.780  21.491  0.00  0.00    +0.000 C 
ATOM      6  C   UNL     1      -0.445  10.611  21.586  0.00  0.00    +0.000 A 
ATOM      7  C   UNL     1      -0.901  10.461  23.011  0.00  0.00    +0.000 C 
ATOM      8  N   UNL     1      -0.993  11.532  20.739  0.00  0.00    +0.000 N 
ATOM      9  C   UNL     1      -2.084  12.422  21.092  0.00  0.00    +0.000 C 
ATOM     10  C   UNL     1      -0.413  11.443  19.467  0.00  0.00    +0.000 A 
BRANCH  10  11
ATOM     11  C   UNL     1      -0.880  12.213  18.304  0.00  0.00    +0.000 C 
ATOM     12  O   UNL     1      -0.670  13.389  18.069  0.00  0.00    +0.000 OA
BRANCH  11  13
ATOM     13  O   UNL     1      -1.602  11.484  17.424  0.00  0.00    +0.000 OA
ATOM     14  H   UNL     1      -1.552  10.530  17.582  0.00  0.00    +0.000 HD
ENDBRANCH  11  13
ENDBRANCH  10  11
ENDBRANCH   1   3
BRANCH   1  15
ATOM     15  C   UNL     1       1.338   8.698  17.808  0.00  0.00    +0.000 C 
BRANCH  15  16
ATOM     16  C   UNL     1       1.998   7.504  18.495  0.00  0.00    +0.000 C 
BRANCH  16  17
ATOM     17  C   UNL     1       3.325   7.173  17.808  0.00  0.00    +0.000 C 
BRANCH  17  18
ATOM     18  C   UNL     1       4.042   6.046  18.543  0.00  0.00    +0.000 C 
BRANCH  18  19
ATOM     19  C   UNL     1       4.228   4.826  17.642  0.00  0.00    +0.000 C 
BRANCH  19  20
ATOM     20  C   UNL     1       2.885   4.180  17.308  0.00  0.00    +0.000 C 
BRANCH  20  21
ATOM     21  C   UNL     1       2.855   2.715  17.740  0.00  0.00    +0.000 C 
BRANCH  21  22
ATOM     22  C   UNL     1       1.917   2.511  18.930  0.00  0.00    +0.000 C 
BRANCH  22  23
ATOM     23  C   UNL     1       1.071   3.759  19.182  0.00  0.00    +0.000 C 
BRANCH  23  25
ATOM     24  C   UNL     1       2.307   3.498  21.355  0.00  0.00    +0.000 C 
ATOM     25  C   UNL     1       1.181   4.219  20.634  0.00  0.00    +0.000 C 
ENDBRANCH  23  25
ENDBRANCH  22  23
ENDBRANCH  21  22
ENDBRANCH  20  21
ENDBRANCH  19  20
ENDBRANCH  18  19
ENDBRANCH  17  18
ENDBRANCH  16  17
ENDBRANCH  15  16
ENDBRANCH   1  15
TORSDOF 13
ENDMDL
