MODEL 1
REMARK VINA RESULT:      -8.6      0.000      0.000
REMARK  Name = 
REMARK  6 active torsions:
REMARK  status: ('A' for Active; 'I' for Inactive)
REMARK    1  A    between atoms: C_1  and  C_2
REMARK    2  A    between atoms: C_2  and  N_3
REMARK    3  A    between atoms: C_2  and  C_14
REMARK    4  A    between atoms: N_3  and  C_4
REMARK    5  A    between atoms: C_7  and  C_8
REMARK    6  A    between atoms: N_10  and  C_11
REMARK                            x       y       z     vdW  Elec       q    Type
REMARK                         _______ _______ _______ _____ _____    ______ ____
ROOT
ATOM      1  C   UNL     1       2.425   2.860  21.252  0.00  0.00    +0.000 C 
ATOM      2  C   UNL     1       2.661   3.310  19.817  0.00  0.00    +0.000 C 
ENDROOT
BRANCH   2   3
ATOM      3  C   UNL     1       2.399   4.772  19.633  0.00  0.00    +0.000 A 
ATOM      4  C   UNL     1       2.491   5.758  20.544  0.00  0.00    +0.000 A 
ATOM      5  C   UNL     1       2.056   7.093  20.125  0.00  0.00    +0.000 A 
ATOM      6  C   UNL     1       1.313   7.931  20.946  0.00  0.00    +0.000 A 
ATOM      7  C   UNL     1       0.804   9.114  20.410  0.00  0.00    +0.000 A 
ATOM      8 CL   UNL     1      -0.375  10.002  21.296  0.00  0.00    +0.000 Cl
ATOM      9  C   UNL     1       1.150   9.532  19.119  0.00  0.00    +0.000 A 
ATOM     10  C   UNL     1       1.900   8.699  18.292  0.00  0.00    +0.000 A 
ATOM     11  C   UNL     1       2.249   7.446  18.777  0.00  0.00    +0.000 A 
ATOM     12  N   UNL     1       2.489   6.392  17.848  0.00  0.00    +0.000 N 
ATOM     13  C   UNL     1       1.941   5.182  18.274  0.00  0.00    +0.000 A 
ATOM     14  O   UNL     1       1.166   4.500  17.618  0.00  0.00    +0.000 OA
ATOM     15  H   UNL     1       3.496   6.281  17.779  0.00  0.00    +0.000 HD
ENDBRANCH   2   3
BRANCH   2  16
ATOM     16  N   UNL     1       4.018   3.020  19.381  0.00  0.00    +0.000 N 
ATOM     17  H   UNL     1       4.497   2.205  19.771  0.00  0.00    +0.000 HD
BRANCH  16  18
ATOM     18  C   UNL     1       4.686   3.609  18.308  0.00  0.00    +0.000 A 
ATOM     19  C   UNL     1       4.448   3.335  17.025  0.00  0.00    +0.000 A 
ATOM     20  C   UNL     1       5.246   3.884  15.974  0.00  0.00    +0.000 A 
ATOM     21  C   UNL     1       6.264   4.713  16.241  0.00  0.00    +0.000 A 
ATOM     22  N   UNL     1       6.525   5.117  17.542  0.00  0.00    +0.000 N 
ATOM     23  C   UNL     1       7.555   6.097  17.840  0.00  0.00    +0.000 C 
ATOM     24  C   UNL     1       5.769   4.636  18.622  0.00  0.00    +0.000 A 
ATOM     25  O   UNL     1       5.946   4.989  19.790  0.00  0.00    +0.000 OA
BRANCH  21  26
ATOM     26  C   UNL     1       7.138   5.068  15.050  0.00  0.00    +0.000 C 
ATOM     27  N   UNL     1       7.864   5.362  14.061  0.00  0.00    +0.000 NA
ENDBRANCH  21  26
ENDBRANCH  16  18
ENDBRANCH   2  16
TORSDOF 4
ENDMDL
MODEL 2
REMARK VINA RESULT:      -8.3      3.701      7.324
REMARK  Name = 
REMARK  6 active torsions:
REMARK  status: ('A' for Active; 'I' for Inactive)
REMARK    1  A    between atoms: C_1  and  C_2
REMARK    2  A    between atoms: C_2  and  N_3
REMARK    3  A    between atoms: C_2  and  C_14
REMARK    4  A    between atoms: N_3  and  C_4
REMARK    5  A    between atoms: C_7  and  C_8
REMARK    6  A    between atoms: N_10  and  C_11
REMARK                            x       y       z     vdW  Elec       q    Type
REMARK                         _______ _______ _______ _____ _____    ______ ____
ROOT
ATOM      1  C   UNL     1       3.632   3.339  17.638  0.00  0.00    +0.000 C 
ATOM      2  C   UNL     1       5.044   3.906  17.698  0.00  0.00    +0.000 C 
ENDROOT
BRANCH   2   3
ATOM      3  C   UNL     1       5.635   4.098  16.336  0.00  0.00    +0.000 A 
ATOM      4  C   UNL     1       5.072   3.850  15.139  0.00  0.00    +0.000 A 
ATOM      5  C   UNL     1       5.924   4.012  13.958  0.00  0.00    +0.000 A 
ATOM      6  C   UNL     1       5.903   3.122  12.893  0.00  0.00    +0.000 A 
ATOM      7  C   UNL     1       6.860   3.260  11.887  0.00  0.00    +0.000 A 
ATOM      8 CL   UNL     1       7.063   1.995  10.737  0.00  0.00    +0.000 Cl
ATOM      9  C   UNL     1       7.732   4.356  11.862  0.00  0.00    +0.000 A 
ATOM     10  C   UNL     1       7.753   5.256  12.925  0.00  0.00    +0.000 A 
ATOM     11  C   UNL     1       6.918   5.005  14.005  0.00  0.00    +0.000 A 
ATOM     12  N   UNL     1       7.282   5.513  15.287  0.00  0.00    +0.000 N 
ATOM     13  C   UNL     1       7.043   4.590  16.305  0.00  0.00    +0.000 A 
ATOM     14  O   UNL     1       7.881   4.208  17.109  0.00  0.00    +0.000 OA
ATOM     15  H   UNL     1       6.706   6.332  15.455  0.00  0.00    +0.000 HD
ENDBRANCH   2   3
BRANCH   2  16
ATOM     16  N   UNL     1       5.081   5.176  18.406  0.00  0.00    +0.000 N 
ATOM     17  H   UNL     1       5.967   5.491  18.807  0.00  0.00    +0.000 HD
BRANCH  16  18
ATOM     18  C   UNL     1       4.078   6.145  18.421  0.00  0.00    +0.000 A 
ATOM     19  C   UNL     1       3.911   7.076  17.482  0.00  0.00    +0.000 A 
ATOM     20  C   UNL     1       2.937   8.115  17.611  0.00  0.00    +0.000 A 
ATOM     21  C   UNL     1       2.139   8.182  18.685  0.00  0.00    +0.000 A 
ATOM     22  N   UNL     1       2.189   7.204  19.667  0.00  0.00    +0.000 N 
ATOM     23  C   UNL     1       1.260   7.202  20.784  0.00  0.00    +0.000 C 
ATOM     24  C   UNL     1       3.104   6.143  19.596  0.00  0.00    +0.000 A 
ATOM     25  O   UNL     1       3.165   5.236  20.428  0.00  0.00    +0.000 OA
BRANCH  21  26
ATOM     26  C   UNL     1       1.287   9.437  18.779  0.00  0.00    +0.000 C 
ATOM     27  N   UNL     1       0.580  10.479  18.857  0.00  0.00    +0.000 NA
ENDBRANCH  21  26
ENDBRANCH  16  18
ENDBRANCH   2  16
TORSDOF 4
ENDMDL
MODEL 3
REMARK VINA RESULT:      -8.1      3.597      7.508
REMARK  Name = 
REMARK  6 active torsions:
REMARK  status: ('A' for Active; 'I' for Inactive)
REMARK    1  A    between atoms: C_1  and  C_2
REMARK    2  A    between atoms: C_2  and  N_3
REMARK    3  A    between atoms: C_2  and  C_14
REMARK    4  A    between atoms: N_3  and  C_4
REMARK    5  A    between atoms: C_7  and  C_8
REMARK    6  A    between atoms: N_10  and  C_11
REMARK                            x       y       z     vdW  Elec       q    Type
REMARK                         _______ _______ _______ _____ _____    ______ ____
ROOT
ATOM      1  C   UNL     1       5.184   3.856  18.871  0.00  0.00    +0.000 C 
ATOM      2  C   UNL     1       4.979   5.106  18.026  0.00  0.00    +0.000 C 
ENDROOT
BRANCH   2   3
ATOM      3  C   UNL     1       5.515   4.944  16.638  0.00  0.00    +0.000 A 
ATOM      4  C   UNL     1       4.831   4.746  15.496  0.00  0.00    +0.000 A 
ATOM      5  C   UNL     1       5.617   4.496  14.285  0.00  0.00    +0.000 A 
ATOM      6  C   UNL     1       5.260   3.538  13.345  0.00  0.00    +0.000 A 
ATOM      7  C   UNL     1       6.151   3.254  12.309  0.00  0.00    +0.000 A 
ATOM      8 CL   UNL     1       5.887   1.864  11.328  0.00  0.00    +0.000 Cl
ATOM      9  C   UNL     1       7.312   4.014  12.122  0.00  0.00    +0.000 A 
ATOM     10  C   UNL     1       7.672   4.981  13.058  0.00  0.00    +0.000 A 
ATOM     11  C   UNL     1       6.868   5.130  14.180  0.00  0.00    +0.000 A 
ATOM     12  N   UNL     1       7.448   5.645  15.377  0.00  0.00    +0.000 N 
ATOM     13  C   UNL     1       7.001   4.967  16.511  0.00  0.00    +0.000 A 
ATOM     14  O   UNL     1       7.730   4.441  17.339  0.00  0.00    +0.000 OA
ATOM     15  H   UNL     1       7.161   6.616  15.450  0.00  0.00    +0.000 HD
ENDBRANCH   2   3
BRANCH   2  16
ATOM     16  N   UNL     1       3.574   5.472  17.944  0.00  0.00    +0.000 N 
ATOM     17  H   UNL     1       2.942   4.883  17.398  0.00  0.00    +0.000 HD
BRANCH  16  18
ATOM     18  C   UNL     1       2.923   6.435  18.716  0.00  0.00    +0.000 A 
ATOM     19  C   UNL     1       2.506   6.246  19.967  0.00  0.00    +0.000 A 
ATOM     20  C   UNL     1       1.741   7.231  20.666  0.00  0.00    +0.000 A 
ATOM     21  C   UNL     1       1.425   8.397  20.088  0.00  0.00    +0.000 A 
ATOM     22  N   UNL     1       1.893   8.708  18.820  0.00  0.00    +0.000 N 
ATOM     23  C   UNL     1       1.650  10.009  18.219  0.00  0.00    +0.000 C 
ATOM     24  C   UNL     1       2.668   7.799  18.083  0.00  0.00    +0.000 A 
ATOM     25  O   UNL     1       3.129   8.042  16.967  0.00  0.00    +0.000 OA
BRANCH  21  26
ATOM     26  C   UNL     1       0.455   9.265  20.872  0.00  0.00    +0.000 C 
ATOM     27  N   UNL     1      -0.351   9.986  21.522  0.00  0.00    +0.000 NA
ENDBRANCH  21  26
ENDBRANCH  16  18
ENDBRANCH   2  16
TORSDOF 4
ENDMDL
MODEL 4
REMARK VINA RESULT:      -8.1      3.509      7.271
REMARK  Name = 
REMARK  6 active torsions:
REMARK  status: ('A' for Active; 'I' for Inactive)
REMARK    1  A    between atoms: C_1  and  C_2
REMARK    2  A    between atoms: C_2  and  N_3
REMARK    3  A    between atoms: C_2  and  C_14
REMARK    4  A    between atoms: N_3  and  C_4
REMARK    5  A    between atoms: C_7  and  C_8
REMARK    6  A    between atoms: N_10  and  C_11
REMARK                            x       y       z     vdW  Elec       q    Type
REMARK                         _______ _______ _______ _____ _____    ______ ____
ROOT
ATOM      1  C   UNL     1       5.210   3.895  19.091  0.00  0.00    +0.000 C 
ATOM      2  C   UNL     1       4.913   5.116  18.230  0.00  0.00    +0.000 C 
ENDROOT
BRANCH   2   3
ATOM      3  C   UNL     1       5.465   4.979  16.846  0.00  0.00    +0.000 A 
ATOM      4  C   UNL     1       4.793   4.804  15.692  0.00  0.00    +0.000 A 
ATOM      5  C   UNL     1       5.592   4.576  14.486  0.00  0.00    +0.000 A 
ATOM      6  C   UNL     1       5.244   3.637  13.524  0.00  0.00    +0.000 A 
ATOM      7  C   UNL     1       6.146   3.371  12.493  0.00  0.00    +0.000 A 
ATOM      8 CL   UNL     1       5.890   2.000  11.483  0.00  0.00    +0.000 Cl
ATOM      9  C   UNL     1       7.311   4.132  12.334  0.00  0.00    +0.000 A 
ATOM     10  C   UNL     1       7.662   5.080  13.292  0.00  0.00    +0.000 A 
ATOM     11  C   UNL     1       6.846   5.209  14.407  0.00  0.00    +0.000 A 
ATOM     12  N   UNL     1       7.412   5.700  15.620  0.00  0.00    +0.000 N 
ATOM     13  C   UNL     1       6.952   5.002  16.736  0.00  0.00    +0.000 A 
ATOM     14  O   UNL     1       7.671   4.459  17.562  0.00  0.00    +0.000 OA
ATOM     15  H   UNL     1       7.126   6.671  15.709  0.00  0.00    +0.000 HD
ENDBRANCH   2   3
BRANCH   2  16
ATOM     16  N   UNL     1       3.485   5.374  18.141  0.00  0.00    +0.000 N 
ATOM     17  H   UNL     1       2.844   4.580  18.069  0.00  0.00    +0.000 HD
BRANCH  16  18
ATOM     18  C   UNL     1       2.849   6.595  18.364  0.00  0.00    +0.000 A 
ATOM     19  C   UNL     1       2.798   7.593  17.483  0.00  0.00    +0.000 A 
ATOM     20  C   UNL     1       2.232   8.864  17.813  0.00  0.00    +0.000 A 
ATOM     21  C   UNL     1       1.714   9.096  19.027  0.00  0.00    +0.000 A 
ATOM     22  N   UNL     1       1.650   8.083  19.973  0.00  0.00    +0.000 N 
ATOM     23  C   UNL     1       0.998   8.284  21.256  0.00  0.00    +0.000 C 
ATOM     24  C   UNL     1       2.166   6.805  19.712  0.00  0.00    +0.000 A 
ATOM     25  O   UNL     1       2.105   5.868  20.510  0.00  0.00    +0.000 OA
BRANCH  21  26
ATOM     26  C   UNL     1       1.322  10.538  19.298  0.00  0.00    +0.000 C 
ATOM     27  N   UNL     1       0.997  11.736  19.524  0.00  0.00    +0.000 NA
ENDBRANCH  21  26
ENDBRANCH  16  18
ENDBRANCH   2  16
TORSDOF 4
ENDMDL
MODEL 5
REMARK VINA RESULT:      -7.9      1.244      1.775
REMARK  Name = 
REMARK  6 active torsions:
REMARK  status: ('A' for Active; 'I' for Inactive)
REMARK    1  A    between atoms: C_1  and  C_2
REMARK    2  A    between atoms: C_2  and  N_3
REMARK    3  A    between atoms: C_2  and  C_14
REMARK    4  A    between atoms: N_3  and  C_4
REMARK    5  A    between atoms: C_7  and  C_8
REMARK    6  A    between atoms: N_10  and  C_11
REMARK                            x       y       z     vdW  Elec       q    Type
REMARK                         _______ _______ _______ _____ _____    ______ ____
ROOT
ATOM      1  C   UNL     1       1.640   2.900  21.469  0.00  0.00    +0.000 C 
ATOM      2  C   UNL     1       2.072   3.252  20.052  0.00  0.00    +0.000 C 
ENDROOT
BRANCH   2   3
ATOM      3  C   UNL     1       1.988   4.722  19.784  0.00  0.00    +0.000 A 
ATOM      4  C   UNL     1       2.035   5.736  20.669  0.00  0.00    +0.000 A 
ATOM      5  C   UNL     1       1.804   7.085  20.145  0.00  0.00    +0.000 A 
ATOM      6  C   UNL     1       1.030   8.025  20.813  0.00  0.00    +0.000 A 
ATOM      7  C   UNL     1       0.730   9.225  20.166  0.00  0.00    +0.000 A 
ATOM      8 CL   UNL     1      -0.478  10.258  20.827  0.00  0.00    +0.000 Cl
ATOM      9  C   UNL     1       1.312   9.550  18.935  0.00  0.00    +0.000 A 
ATOM     10  C   UNL     1       2.094   8.614  18.263  0.00  0.00    +0.000 A 
ATOM     11  C   UNL     1       2.239   7.357  18.835  0.00  0.00    +0.000 A 
ATOM     12  N   UNL     1       2.514   6.244  17.988  0.00  0.00    +0.000 N 
ATOM     13  C   UNL     1       1.789   5.111  18.358  0.00  0.00    +0.000 A 
ATOM     14  O   UNL     1       1.062   4.475  17.609  0.00  0.00    +0.000 OA
ATOM     15  H   UNL     1       3.503   6.037  18.084  0.00  0.00    +0.000 HD
ENDBRANCH   2   3
BRANCH   2  16
ATOM     16  N   UNL     1       3.428   2.804  19.779  0.00  0.00    +0.000 N 
ATOM     17  H   UNL     1       3.651   1.812  19.885  0.00  0.00    +0.000 HD
BRANCH  16  18
ATOM     18  C   UNL     1       4.438   3.547  19.167  0.00  0.00    +0.000 A 
ATOM     19  C   UNL     1       5.240   4.402  19.802  0.00  0.00    +0.000 A 
ATOM     20  C   UNL     1       6.178   5.221  19.101  0.00  0.00    +0.000 A 
ATOM     21  C   UNL     1       6.297   5.149  17.768  0.00  0.00    +0.000 A 
ATOM     22  N   UNL     1       5.561   4.226  17.041  0.00  0.00    +0.000 N 
ATOM     23  C   UNL     1       5.753   4.060  15.610  0.00  0.00    +0.000 C 
ATOM     24  C   UNL     1       4.637   3.373  17.664  0.00  0.00    +0.000 A 
ATOM     25  O   UNL     1       3.983   2.518  17.064  0.00  0.00    +0.000 OA
BRANCH  21  26
ATOM     26  C   UNL     1       7.192   6.205  17.141  0.00  0.00    +0.000 C 
ATOM     27  N   UNL     1       7.935   7.082  16.620  0.00  0.00    +0.000 NA
ENDBRANCH  21  26
ENDBRANCH  16  18
ENDBRANCH   2  16
TORSDOF 4
ENDMDL
MODEL 6
REMARK VINA RESULT:      -7.7      3.659      7.629
REMARK  Name = 
REMARK  6 active torsions:
REMARK  status: ('A' for Active; 'I' for Inactive)
REMARK    1  A    between atoms: C_1  and  C_2
REMARK    2  A    between atoms: C_2  and  N_3
REMARK    3  A    between atoms: C_2  and  C_14
REMARK    4  A    between atoms: N_3  and  C_4
REMARK    5  A    between atoms: C_7  and  C_8
REMARK    6  A    between atoms: N_10  and  C_11
REMARK                            x       y       z     vdW  Elec       q    Type
REMARK                         _______ _______ _______ _____ _____    ______ ____
ROOT
ATOM      1  C   UNL     1       1.479   5.086  19.685  0.00  0.00    +0.000 C 
ATOM      2  C   UNL     1       2.581   6.135  19.735  0.00  0.00    +0.000 C 
ENDROOT
BRANCH   2   3
ATOM      3  C   UNL     1       3.748   5.771  18.872  0.00  0.00    +0.000 A 
ATOM      4  C   UNL     1       4.088   6.273  17.670  0.00  0.00    +0.000 A 
ATOM      5  C   UNL     1       5.219   5.645  16.983  0.00  0.00    +0.000 A 
ATOM      6  C   UNL     1       5.216   5.385  15.619  0.00  0.00    +0.000 A 
ATOM      7  C   UNL     1       6.264   4.638  15.078  0.00  0.00    +0.000 A 
ATOM      8 CL   UNL     1       6.125   4.030  13.474  0.00  0.00    +0.000 Cl
ATOM      9  C   UNL     1       7.375   4.282  15.853  0.00  0.00    +0.000 A 
ATOM     10  C   UNL     1       7.387   4.547  17.220  0.00  0.00    +0.000 A 
ATOM     11  C   UNL     1       6.259   5.131  17.779  0.00  0.00    +0.000 A 
ATOM     12  N   UNL     1       5.983   4.909  19.160  0.00  0.00    +0.000 N 
ATOM     13  C   UNL     1       4.626   4.684  19.395  0.00  0.00    +0.000 A 
ATOM     14  O   UNL     1       4.173   3.707  19.974  0.00  0.00    +0.000 OA
ATOM     15  H   UNL     1       6.258   5.751  19.656  0.00  0.00    +0.000 HD
ENDBRANCH   2   3
BRANCH   2  16
ATOM     16  N   UNL     1       2.094   7.445  19.333  0.00  0.00    +0.000 N 
ATOM     17  H   UNL     1       2.001   7.651  18.336  0.00  0.00    +0.000 HD
BRANCH  16  18
ATOM     18  C   UNL     1       1.518   8.405  20.165  0.00  0.00    +0.000 A 
ATOM     19  C   UNL     1       1.433   8.304  21.491  0.00  0.00    +0.000 A 
ATOM     20  C   UNL     1       0.727   9.266  22.279  0.00  0.00    +0.000 A 
ATOM     21  C   UNL     1       0.131  10.322  21.708  0.00  0.00    +0.000 A 
ATOM     22  N   UNL     1       0.245  10.547  20.344  0.00  0.00    +0.000 N 
ATOM     23  C   UNL     1      -0.304  11.741  19.723  0.00  0.00    +0.000 C 
ATOM     24  C   UNL     1       0.941   9.657  19.511  0.00  0.00    +0.000 A 
ATOM     25  O   UNL     1       1.092   9.831  18.301  0.00  0.00    +0.000 OA
BRANCH  21  26
ATOM     26  C   UNL     1      -0.737  11.155  22.637  0.00  0.00    +0.000 C 
ATOM     27  N   UNL     1      -1.457  11.846  23.408  0.00  0.00    +0.000 NA
ENDBRANCH  21  26
ENDBRANCH  16  18
ENDBRANCH   2  16
TORSDOF 4
ENDMDL
MODEL 7
REMARK VINA RESULT:      -7.7      3.401      7.026
REMARK  Name = 
REMARK  6 active torsions:
REMARK  status: ('A' for Active; 'I' for Inactive)
REMARK    1  A    between atoms: C_1  and  C_2
REMARK    2  A    between atoms: C_2  and  N_3
REMARK    3  A    between atoms: C_2  and  C_14
REMARK    4  A    between atoms: N_3  and  C_4
REMARK    5  A    between atoms: C_7  and  C_8
REMARK    6  A    between atoms: N_10  and  C_11
REMARK                            x       y       z     vdW  Elec       q    Type
REMARK                         _______ _______ _______ _____ _____    ______ ____
ROOT
ATOM      1  C   UNL     1       1.551   5.083  19.256  0.00  0.00    +0.000 C 
ATOM      2  C   UNL     1       2.931   5.516  19.735  0.00  0.00    +0.000 C 
ENDROOT
BRANCH   2   3
ATOM      3  C   UNL     1       3.985   5.291  18.697  0.00  0.00    +0.000 A 
ATOM      4  C   UNL     1       4.062   5.811  17.457  0.00  0.00    +0.000 A 
ATOM      5  C   UNL     1       5.145   5.324  16.599  0.00  0.00    +0.000 A 
ATOM      6  C   UNL     1       4.962   5.040  15.252  0.00  0.00    +0.000 A 
ATOM      7  C   UNL     1       6.001   4.427  14.550  0.00  0.00    +0.000 A 
ATOM      8 CL   UNL     1       5.693   3.776  12.987  0.00  0.00    +0.000 Cl
ATOM      9  C   UNL     1       7.257   4.234  15.138  0.00  0.00    +0.000 A 
ATOM     10  C   UNL     1       7.449   4.523  16.487  0.00  0.00    +0.000 A 
ATOM     11  C   UNL     1       6.355   4.965  17.219  0.00  0.00    +0.000 A 
ATOM     12  N   UNL     1       6.331   4.734  18.626  0.00  0.00    +0.000 N 
ATOM     13  C   UNL     1       5.070   4.338  19.072  0.00  0.00    +0.000 A 
ATOM     14  O   UNL     1       4.846   3.322  19.713  0.00  0.00    +0.000 OA
ATOM     15  H   UNL     1       6.568   5.614  19.074  0.00  0.00    +0.000 HD
ENDBRANCH   2   3
BRANCH   2  16
ATOM     16  N   UNL     1       2.947   6.918  20.121  0.00  0.00    +0.000 N 
ATOM     17  H   UNL     1       3.764   7.283  20.615  0.00  0.00    +0.000 HD
BRANCH  16  18
ATOM     18  C   UNL     1       2.053   7.903  19.701  0.00  0.00    +0.000 A 
ATOM     19  C   UNL     1       1.928   8.323  18.442  0.00  0.00    +0.000 A 
ATOM     20  C   UNL     1       1.078   9.418  18.092  0.00  0.00    +0.000 A 
ATOM     21  C   UNL     1       0.358  10.059  19.023  0.00  0.00    +0.000 A 
ATOM     22  N   UNL     1       0.366   9.629  20.342  0.00  0.00    +0.000 N 
ATOM     23  C   UNL     1      -0.488  10.244  21.345  0.00  0.00    +0.000 C 
ATOM     24  C   UNL     1       1.159   8.548  20.755  0.00  0.00    +0.000 A 
ATOM     25  O   UNL     1       1.175   8.114  21.908  0.00  0.00    +0.000 OA
BRANCH  21  26
ATOM     26  C   UNL     1      -0.350  11.314  18.542  0.00  0.00    +0.000 C 
ATOM     27  N   UNL     1      -0.938  12.356  18.143  0.00  0.00    +0.000 NA
ENDBRANCH  21  26
ENDBRANCH  16  18
ENDBRANCH   2  16
TORSDOF 4
ENDMDL
MODEL 8
REMARK VINA RESULT:      -7.5      3.511      7.416
REMARK  Name = 
REMARK  6 active torsions:
REMARK  status: ('A' for Active; 'I' for Inactive)
REMARK    1  A    between atoms: C_1  and  C_2
REMARK    2  A    between atoms: C_2  and  N_3
REMARK    3  A    between atoms: C_2  and  C_14
REMARK    4  A    between atoms: N_3  and  C_4
REMARK    5  A    between atoms: C_7  and  C_8
REMARK    6  A    between atoms: N_10  and  C_11
REMARK                            x       y       z     vdW  Elec       q    Type
REMARK                         _______ _______ _______ _____ _____    ______ ____
ROOT
ATOM      1  C   UNL     1       6.144   5.316  18.703  0.00  0.00    +0.000 C 
ATOM      2  C   UNL     1       5.490   6.117  17.585  0.00  0.00    +0.000 C 
ENDROOT
BRANCH   2   3
ATOM      3  C   UNL     1       5.894   5.629  16.229  0.00  0.00    +0.000 A 
ATOM      4  C   UNL     1       5.125   5.468  15.136  0.00  0.00    +0.000 A 
ATOM      5  C   UNL     1       5.755   4.853  13.965  0.00  0.00    +0.000 A 
ATOM      6  C   UNL     1       5.112   3.908  13.178  0.00  0.00    +0.000 A 
ATOM      7  C   UNL     1       5.842   3.256  12.183  0.00  0.00    +0.000 A 
ATOM      8 CL   UNL     1       5.171   1.868  11.418  0.00  0.00    +0.000 Cl
ATOM      9  C   UNL     1       7.152   3.644  11.875  0.00  0.00    +0.000 A 
ATOM     10  C   UNL     1       7.801   4.597  12.657  0.00  0.00    +0.000 A 
ATOM     11  C   UNL     1       7.123   5.107  13.755  0.00  0.00    +0.000 A 
ATOM     12  N   UNL     1       7.877   5.606  14.857  0.00  0.00    +0.000 N 
ATOM     13  C   UNL     1       7.325   5.235  16.083  0.00  0.00    +0.000 A 
ATOM     14  O   UNL     1       7.930   4.650  16.970  0.00  0.00    +0.000 OA
ATOM     15  H   UNL     1       7.861   6.620  14.792  0.00  0.00    +0.000 HD
ENDBRANCH   2   3
BRANCH   2  16
ATOM     16  N   UNL     1       4.039   6.083  17.681  0.00  0.00    +0.000 N 
ATOM     17  H   UNL     1       3.486   6.492  16.925  0.00  0.00    +0.000 HD
BRANCH  16  18
ATOM     18  C   UNL     1       3.287   5.351  18.600  0.00  0.00    +0.000 A 
ATOM     19  C   UNL     1       2.904   5.802  19.794  0.00  0.00    +0.000 A 
ATOM     20  C   UNL     1       2.235   4.964  20.740  0.00  0.00    +0.000 A 
ATOM     21  C   UNL     1       1.954   3.686  20.452  0.00  0.00    +0.000 A 
ATOM     22  N   UNL     1       2.242   3.163  19.200  0.00  0.00    +0.000 N 
ATOM     23  C   UNL     1       1.849   1.813  18.833  0.00  0.00    +0.000 C 
ATOM     24  C   UNL     1       2.878   3.933  18.214  0.00  0.00    +0.000 A 
ATOM     25  O   UNL     1       3.126   3.521  17.080  0.00  0.00    +0.000 OA
BRANCH  21  26
ATOM     26  C   UNL     1       1.415   2.866  21.612  0.00  0.00    +0.000 C 
ATOM     27  N   UNL     1       0.967   2.185  22.575  0.00  0.00    +0.000 NA
ENDBRANCH  21  26
ENDBRANCH  16  18
ENDBRANCH   2  16
TORSDOF 4
ENDMDL
MODEL 9
REMARK VINA RESULT:      -7.3      2.403      4.541
REMARK  Name = 
REMARK  6 active torsions:
REMARK  status: ('A' for Active; 'I' for Inactive)
REMARK    1  A    between atoms: C_1  and  C_2
REMARK    2  A    between atoms: C_2  and  N_3
REMARK    3  A    between atoms: C_2  and  C_14
REMARK    4  A    between atoms: N_3  and  C_4
REMARK    5  A    between atoms: C_7  and  C_8
REMARK    6  A    between atoms: N_10  and  C_11
REMARK                            x       y       z     vdW  Elec       q    Type
REMARK                         _______ _______ _______ _____ _____    ______ ____
ROOT
ATOM      1  C   UNL     1       7.205   7.584  16.765  0.00  0.00    +0.000 C 
ATOM      2  C   UNL     1       7.280   6.259  17.513  0.00  0.00    +0.000 C 
ENDROOT
BRANCH   2   3
ATOM      3  C   UNL     1       5.997   5.930  18.211  0.00  0.00    +0.000 A 
ATOM      4  C   UNL     1       4.762   6.398  17.952  0.00  0.00    +0.000 A 
ATOM      5  C   UNL     1       3.694   6.002  18.874  0.00  0.00    +0.000 A 
ATOM      6  C   UNL     1       2.717   6.886  19.312  0.00  0.00    +0.000 A 
ATOM      7  C   UNL     1       1.839   6.470  20.314  0.00  0.00    +0.000 A 
ATOM      8 CL   UNL     1       0.840   7.633  21.096  0.00  0.00    +0.000 Cl
ATOM      9  C   UNL     1       1.835   5.145  20.769  0.00  0.00    +0.000 A 
ATOM     10  C   UNL     1       2.809   4.252  20.329  0.00  0.00    +0.000 A 
ATOM     11  C   UNL     1       3.786   4.730  19.467  0.00  0.00    +0.000 A 
ATOM     12  N   UNL     1       5.056   4.082  19.441  0.00  0.00    +0.000 N 
ATOM     13  C   UNL     1       6.109   4.993  19.366  0.00  0.00    +0.000 A 
ATOM     14  O   UNL     1       7.048   5.038  20.148  0.00  0.00    +0.000 OA
ATOM     15  H   UNL     1       5.075   3.500  18.609  0.00  0.00    +0.000 HD
ENDBRANCH   2   3
BRANCH   2  16
ATOM     16  N   UNL     1       7.623   5.161  16.624  0.00  0.00    +0.000 N 
ATOM     17  H   UNL     1       8.353   4.505  16.910  0.00  0.00    +0.000 HD
BRANCH  16  18
ATOM     18  C   UNL     1       6.911   4.757  15.495  0.00  0.00    +0.000 A 
ATOM     19  C   UNL     1       5.755   4.094  15.526  0.00  0.00    +0.000 A 
ATOM     20  C   UNL     1       5.132   3.605  14.336  0.00  0.00    +0.000 A 
ATOM     21  C   UNL     1       5.686   3.809  13.133  0.00  0.00    +0.000 A 
ATOM     22  N   UNL     1       6.843   4.562  13.005  0.00  0.00    +0.000 N 
ATOM     23  C   UNL     1       7.399   4.883  11.702  0.00  0.00    +0.000 C 
ATOM     24  C   UNL     1       7.498   5.093  14.127  0.00  0.00    +0.000 A 
ATOM     25  O   UNL     1       8.510   5.792  14.060  0.00  0.00    +0.000 OA
BRANCH  21  26
ATOM     26  C   UNL     1       5.018   3.075  11.982  0.00  0.00    +0.000 C 
ATOM     27  N   UNL     1       4.464   2.465  11.026  0.00  0.00    +0.000 NA
ENDBRANCH  21  26
ENDBRANCH  16  18
ENDBRANCH   2  16
TORSDOF 4
ENDMDL
