MODEL 1
REMARK VINA RESULT:      -7.6      0.000      0.000
REMARK  Name = 
REMARK  3 active torsions:
REMARK  status: ('A' for Active; 'I' for Inactive)
REMARK    1  A    between atoms: C_1  and  C_2
REMARK    2  A    between atoms: C_6  and  C_7
REMARK    3  A    between atoms: N_9  and  C_10
REMARK                            x       y       z     vdW  Elec       q    Type
REMARK                         _______ _______ _______ _____ _____    ______ ____
ROOT
ATOM      1  C   UNL     1       6.267   4.674  18.515  0.00  0.00    +0.000 C 
ATOM      2  O   UNL     1       6.677   4.936  19.641  0.00  0.00    +0.000 OA
ATOM      3  N   UNL     1       5.203   3.813  18.331  0.00  0.00    +0.000 N 
ATOM      4  H   UNL     1       4.813   3.641  17.417  0.00  0.00    +0.000 HD
ENDROOT
BRANCH   3   5
ATOM      5  C   UNL     1       4.518   3.273  19.506  0.00  0.00    +0.000 C 
ATOM      6  C   UNL     1       4.361   1.742  19.432  0.00  0.00    +0.000 C 
ATOM      7  C   UNL     1       3.064   1.312  18.757  0.00  0.00    +0.000 C 
ATOM      8  C   UNL     1       1.859   1.872  19.505  0.00  0.00    +0.000 C 
ATOM      9  C   UNL     1       1.969   3.354  19.758  0.00  0.00    +0.000 A 
ATOM     10  C   UNL     1       0.807   4.075  20.074  0.00  0.00    +0.000 A 
ATOM     11  C   UNL     1       0.874   5.432  20.392  0.00  0.00    +0.000 A 
ATOM     12  C   UNL     1       2.104   6.080  20.408  0.00  0.00    +0.000 A 
ATOM     13  C   UNL     1       3.266   5.374  20.102  0.00  0.00    +0.000 A 
ATOM     14  C   UNL     1       3.216   4.006  19.774  0.00  0.00    +0.000 A 
ENDBRANCH   3   5
BRANCH   1  20
ATOM     15  C   UNL     1       7.743   7.764  17.897  0.00  0.00    +0.000 C 
ATOM     16  C   UNL     1       7.472   6.530  17.132  0.00  0.00    +0.000 A 
ATOM     17  O   UNL     1       7.875   6.598  15.827  0.00  0.00    +0.000 OA
ATOM     18  N   UNL     1       7.570   5.421  15.177  0.00  0.00    +0.000 NA
ATOM     19  C   UNL     1       6.982   4.662  16.098  0.00  0.00    +0.000 A 
ATOM     20  C   UNL     1       6.886   5.302  17.364  0.00  0.00    +0.000 A 
ENDBRANCH   1  20
TORSDOF 2
ENDMDL
MODEL 2
REMARK VINA RESULT:      -7.4      0.729      1.405
REMARK  Name = 
REMARK  3 active torsions:
REMARK  status: ('A' for Active; 'I' for Inactive)
REMARK    1  A    between atoms: C_1  and  C_2
REMARK    2  A    between atoms: C_6  and  C_7
REMARK    3  A    between atoms: N_9  and  C_10
REMARK                            x       y       z     vdW  Elec       q    Type
REMARK                         _______ _______ _______ _____ _____    ______ ____
ROOT
ATOM      1  C   UNL     1       6.244   4.855  18.713  0.00  0.00    +0.000 C 
ATOM      2  O   UNL     1       6.628   5.000  19.869  0.00  0.00    +0.000 OA
ATOM      3  N   UNL     1       5.215   3.984  18.413  0.00  0.00    +0.000 N 
ATOM      4  H   UNL     1       4.844   3.905  17.478  0.00  0.00    +0.000 HD
ENDROOT
BRANCH   3   5
ATOM      5  C   UNL     1       4.534   3.288  19.505  0.00  0.00    +0.000 C 
ATOM      6  C   UNL     1       4.498   1.764  19.286  0.00  0.00    +0.000 C 
ATOM      7  C   UNL     1       3.261   1.305  18.523  0.00  0.00    +0.000 C 
ATOM      8  C   UNL     1       1.992   1.702  19.269  0.00  0.00    +0.000 C 
ATOM      9  C   UNL     1       1.979   3.159  19.659  0.00  0.00    +0.000 A 
ATOM     10  C   UNL     1       0.755   3.760  19.992  0.00  0.00    +0.000 A 
ATOM     11  C   UNL     1       0.708   5.082  20.434  0.00  0.00    +0.000 A 
ATOM     12  C   UNL     1       1.884   5.815  20.558  0.00  0.00    +0.000 A 
ATOM     13  C   UNL     1       3.105   5.227  20.237  0.00  0.00    +0.000 A 
ATOM     14  C   UNL     1       3.172   3.896  19.785  0.00  0.00    +0.000 A 
ENDBRANCH   3   5
BRANCH   1  20
ATOM     15  C   UNL     1       6.803   4.369  15.313  0.00  0.00    +0.000 C 
ATOM     16  C   UNL     1       7.068   5.430  16.304  0.00  0.00    +0.000 A 
ATOM     17  O   UNL     1       7.726   6.510  15.785  0.00  0.00    +0.000 OA
ATOM     18  N   UNL     1       7.954   7.444  16.773  0.00  0.00    +0.000 NA
ATOM     19  C   UNL     1       7.435   6.912  17.875  0.00  0.00    +0.000 A 
ATOM     20  C   UNL     1       6.855   5.633  17.653  0.00  0.00    +0.000 A 
ENDBRANCH   1  20
TORSDOF 2
ENDMDL
MODEL 3
REMARK VINA RESULT:      -7.2      2.374      6.393
REMARK  Name = 
REMARK  3 active torsions:
REMARK  status: ('A' for Active; 'I' for Inactive)
REMARK    1  A    between atoms: C_1  and  C_2
REMARK    2  A    between atoms: C_6  and  C_7
REMARK    3  A    between atoms: N_9  and  C_10
REMARK                            x       y       z     vdW  Elec       q    Type
REMARK                         _______ _______ _______ _____ _____    ______ ____
ROOT
ATOM      1  C   UNL     1       4.351   3.373  19.532  0.00  0.00    +0.000 C 
ATOM      2  O   UNL     1       5.128   2.497  19.899  0.00  0.00    +0.000 OA
ATOM      3  N   UNL     1       4.786   4.422  18.747  0.00  0.00    +0.000 N 
ATOM      4  H   UNL     1       4.147   5.112  18.383  0.00  0.00    +0.000 HD
ENDROOT
BRANCH   3   5
ATOM      5  C   UNL     1       6.177   4.437  18.292  0.00  0.00    +0.000 C 
ATOM      6  C   UNL     1       7.014   5.502  19.026  0.00  0.00    +0.000 C 
ATOM      7  C   UNL     1       7.005   6.853  18.318  0.00  0.00    +0.000 C 
ATOM      8  C   UNL     1       7.551   6.720  16.901  0.00  0.00    +0.000 C 
ATOM      9  C   UNL     1       6.894   5.605  16.127  0.00  0.00    +0.000 A 
ATOM     10  C   UNL     1       6.996   5.601  14.727  0.00  0.00    +0.000 A 
ATOM     11  C   UNL     1       6.471   4.548  13.977  0.00  0.00    +0.000 A 
ATOM     12  C   UNL     1       5.847   3.483  14.618  0.00  0.00    +0.000 A 
ATOM     13  C   UNL     1       5.745   3.473  16.008  0.00  0.00    +0.000 A 
ATOM     14  C   UNL     1       6.265   4.529  16.780  0.00  0.00    +0.000 A 
ENDBRANCH   3   5
BRANCH   1  20
ATOM     15  C   UNL     1       1.341   4.060  17.927  0.00  0.00    +0.000 C 
ATOM     16  C   UNL     1       1.763   3.561  19.250  0.00  0.00    +0.000 A 
ATOM     17  O   UNL     1       0.719   3.316  20.099  0.00  0.00    +0.000 OA
ATOM     18  N   UNL     1       1.194   2.874  21.316  0.00  0.00    +0.000 NA
ATOM     19  C   UNL     1       2.518   2.864  21.185  0.00  0.00    +0.000 A 
ATOM     20  C   UNL     1       2.951   3.288  19.899  0.00  0.00    +0.000 A 
ENDBRANCH   1  20
TORSDOF 2
ENDMDL
MODEL 4
REMARK VINA RESULT:      -7.1      1.956      3.455
REMARK  Name = 
REMARK  3 active torsions:
REMARK  status: ('A' for Active; 'I' for Inactive)
REMARK    1  A    between atoms: C_1  and  C_2
REMARK    2  A    between atoms: C_6  and  C_7
REMARK    3  A    between atoms: N_9  and  C_10
REMARK                            x       y       z     vdW  Elec       q    Type
REMARK                         _______ _______ _______ _____ _____    ______ ____
ROOT
ATOM      1  C   UNL     1       4.459   4.694  16.832  0.00  0.00    +0.000 C 
ATOM      2  O   UNL     1       3.674   4.004  16.190  0.00  0.00    +0.000 OA
ATOM      3  N   UNL     1       4.007   5.561  17.807  0.00  0.00    +0.000 N 
ATOM      4  H   UNL     1       4.644   6.084  18.388  0.00  0.00    +0.000 HD
ENDROOT
BRANCH   3   5
ATOM      5  C   UNL     1       2.577   5.594  18.119  0.00  0.00    +0.000 C 
ATOM      6  C   UNL     1       2.094   7.014  18.468  0.00  0.00    +0.000 C 
ATOM      7  C   UNL     1       2.195   7.323  19.958  0.00  0.00    +0.000 C 
ATOM      8  C   UNL     1       1.368   6.332  20.769  0.00  0.00    +0.000 C 
ATOM      9  C   UNL     1       1.662   4.898  20.408  0.00  0.00    +0.000 A 
ATOM     10  C   UNL     1       1.290   3.884  21.305  0.00  0.00    +0.000 A 
ATOM     11  C   UNL     1       1.471   2.540  20.977  0.00  0.00    +0.000 A 
ATOM     12  C   UNL     1       2.017   2.194  19.745  0.00  0.00    +0.000 A 
ATOM     13  C   UNL     1       2.385   3.191  18.844  0.00  0.00    +0.000 A 
ATOM     14  C   UNL     1       2.214   4.552  19.160  0.00  0.00    +0.000 A 
ENDBRANCH   3   5
BRANCH   1  20
ATOM     15  C   UNL     1       6.453   4.399  13.995  0.00  0.00    +0.000 C 
ATOM     16  C   UNL     1       6.663   4.458  15.455  0.00  0.00    +0.000 A 
ATOM     17  O   UNL     1       7.976   4.347  15.822  0.00  0.00    +0.000 OA
ATOM     18  N   UNL     1       8.088   4.389  17.195  0.00  0.00    +0.000 NA
ATOM     19  C   UNL     1       6.841   4.521  17.638  0.00  0.00    +0.000 A 
ATOM     20  C   UNL     1       5.883   4.571  16.589  0.00  0.00    +0.000 A 
ENDBRANCH   1  20
TORSDOF 2
ENDMDL
MODEL 5
REMARK VINA RESULT:      -7.1      2.723      3.521
REMARK  Name = 
REMARK  3 active torsions:
REMARK  status: ('A' for Active; 'I' for Inactive)
REMARK    1  A    between atoms: C_1  and  C_2
REMARK    2  A    between atoms: C_6  and  C_7
REMARK    3  A    between atoms: N_9  and  C_10
REMARK                            x       y       z     vdW  Elec       q    Type
REMARK                         _______ _______ _______ _____ _____    ______ ____
ROOT
ATOM      1  C   UNL     1       6.469   4.441  15.453  0.00  0.00    +0.000 C 
ATOM      2  O   UNL     1       7.298   4.555  16.351  0.00  0.00    +0.000 OA
ATOM      3  N   UNL     1       5.142   4.193  15.741  0.00  0.00    +0.000 N 
ATOM      4  H   UNL     1       4.439   4.164  15.019  0.00  0.00    +0.000 HD
ENDROOT
BRANCH   3   5
ATOM      5  C   UNL     1       4.718   4.142  17.141  0.00  0.00    +0.000 C 
ATOM      6  C   UNL     1       4.101   2.780  17.510  0.00  0.00    +0.000 C 
ATOM      7  C   UNL     1       2.594   2.733  17.287  0.00  0.00    +0.000 C 
ATOM      8  C   UNL     1       1.895   3.805  18.117  0.00  0.00    +0.000 C 
ATOM      9  C   UNL     1       2.511   5.170  17.939  0.00  0.00    +0.000 A 
ATOM     10  C   UNL     1       1.768   6.302  18.311  0.00  0.00    +0.000 A 
ATOM     11  C   UNL     1       2.327   7.577  18.237  0.00  0.00    +0.000 A 
ATOM     12  C   UNL     1       3.638   7.736  17.800  0.00  0.00    +0.000 A 
ATOM     13  C   UNL     1       4.387   6.621  17.433  0.00  0.00    +0.000 A 
ATOM     14  C   UNL     1       3.838   5.326  17.497  0.00  0.00    +0.000 A 
ENDBRANCH   3   5
BRANCH   1  20
ATOM     15  C   UNL     1       5.596   2.950  12.432  0.00  0.00    +0.000 C 
ATOM     16  C   UNL     1       6.525   4.005  12.880  0.00  0.00    +0.000 A 
ATOM     17  O   UNL     1       7.270   4.542  11.867  0.00  0.00    +0.000 OA
ATOM     18  N   UNL     1       8.125   5.501  12.366  0.00  0.00    +0.000 NA
ATOM     19  C   UNL     1       7.887   5.526  13.675  0.00  0.00    +0.000 A 
ATOM     20  C   UNL     1       6.883   4.602  14.073  0.00  0.00    +0.000 A 
ENDBRANCH   1  20
TORSDOF 2
ENDMDL
MODEL 6
REMARK VINA RESULT:      -7.1      2.510      3.462
REMARK  Name = 
REMARK  3 active torsions:
REMARK  status: ('A' for Active; 'I' for Inactive)
REMARK    1  A    between atoms: C_1  and  C_2
REMARK    2  A    between atoms: C_6  and  C_7
REMARK    3  A    between atoms: N_9  and  C_10
REMARK                            x       y       z     vdW  Elec       q    Type
REMARK                         _______ _______ _______ _____ _____    ______ ____
ROOT
ATOM      1  C   UNL     1       6.642   5.084  15.626  0.00  0.00    +0.000 C 
ATOM      2  O   UNL     1       7.522   5.847  16.013  0.00  0.00    +0.000 OA
ATOM      3  N   UNL     1       5.630   4.681  16.475  0.00  0.00    +0.000 N 
ATOM      4  H   UNL     1       4.865   4.109  16.154  0.00  0.00    +0.000 HD
ENDROOT
BRANCH   3   5
ATOM      5  C   UNL     1       5.576   5.238  17.828  0.00  0.00    +0.000 C 
ATOM      6  C   UNL     1       5.760   4.155  18.907  0.00  0.00    +0.000 C 
ATOM      7  C   UNL     1       4.441   3.534  19.353  0.00  0.00    +0.000 C 
ATOM      8  C   UNL     1       3.508   4.603  19.914  0.00  0.00    +0.000 C 
ATOM      9  C   UNL     1       3.361   5.787  18.992  0.00  0.00    +0.000 A 
ATOM     10  C   UNL     1       2.268   6.651  19.169  0.00  0.00    +0.000 A 
ATOM     11  C   UNL     1       2.136   7.801  18.390  0.00  0.00    +0.000 A 
ATOM     12  C   UNL     1       3.099   8.106  17.434  0.00  0.00    +0.000 A 
ATOM     13  C   UNL     1       4.191   7.260  17.253  0.00  0.00    +0.000 A 
ATOM     14  C   UNL     1       4.338   6.093  18.026  0.00  0.00    +0.000 A 
ENDBRANCH   3   5
BRANCH   1  20
ATOM     15  C   UNL     1       8.514   5.832  12.791  0.00  0.00    +0.000 C 
ATOM     16  C   UNL     1       7.398   4.929  13.134  0.00  0.00    +0.000 A 
ATOM     17  O   UNL     1       6.943   4.197  12.072  0.00  0.00    +0.000 OA
ATOM     18  N   UNL     1       5.891   3.398  12.466  0.00  0.00    +0.000 NA
ATOM     19  C   UNL     1       5.724   3.663  13.759  0.00  0.00    +0.000 A 
ATOM     20  C   UNL     1       6.646   4.626  14.251  0.00  0.00    +0.000 A 
ENDBRANCH   1  20
TORSDOF 2
ENDMDL
MODEL 7
REMARK VINA RESULT:      -6.9      2.842      3.494
REMARK  Name = 
REMARK  3 active torsions:
REMARK  status: ('A' for Active; 'I' for Inactive)
REMARK    1  A    between atoms: C_1  and  C_2
REMARK    2  A    between atoms: C_6  and  C_7
REMARK    3  A    between atoms: N_9  and  C_10
REMARK                            x       y       z     vdW  Elec       q    Type
REMARK                         _______ _______ _______ _____ _____    ______ ____
ROOT
ATOM      1  C   UNL     1       6.337   4.249  15.286  0.00  0.00    +0.000 C 
ATOM      2  O   UNL     1       7.254   4.492  16.065  0.00  0.00    +0.000 OA
ATOM      3  N   UNL     1       5.050   4.057  15.745  0.00  0.00    +0.000 N 
ATOM      4  H   UNL     1       4.276   3.923  15.112  0.00  0.00    +0.000 HD
ENDROOT
BRANCH   3   5
ATOM      5  C   UNL     1       4.774   4.223  17.173  0.00  0.00    +0.000 C 
ATOM      6  C   UNL     1       4.188   2.945  17.802  0.00  0.00    +0.000 C 
ATOM      7  C   UNL     1       2.665   2.902  17.743  0.00  0.00    +0.000 C 
ATOM      8  C   UNL     1       2.066   4.100  18.471  0.00  0.00    +0.000 C 
ATOM      9  C   UNL     1       2.670   5.410  18.029  0.00  0.00    +0.000 A 
ATOM     10  C   UNL     1       1.979   6.601  18.303  0.00  0.00    +0.000 A 
ATOM     11  C   UNL     1       2.538   7.838  17.983  0.00  0.00    +0.000 A 
ATOM     12  C   UNL     1       3.797   7.900  17.396  0.00  0.00    +0.000 A 
ATOM     13  C   UNL     1       4.496   6.725  17.125  0.00  0.00    +0.000 A 
ATOM     14  C   UNL     1       3.945   5.467  17.436  0.00  0.00    +0.000 A 
ENDBRANCH   3   5
BRANCH   1  20
ATOM     15  C   UNL     1       8.558   5.851  13.139  0.00  0.00    +0.000 C 
ATOM     16  C   UNL     1       7.493   4.835  13.021  0.00  0.00    +0.000 A 
ATOM     17  O   UNL     1       7.285   4.409  11.738  0.00  0.00    +0.000 OA
ATOM     18  N   UNL     1       6.266   3.482  11.708  0.00  0.00    +0.000 NA
ATOM     19  C   UNL     1       5.870   3.366  12.973  0.00  0.00    +0.000 A 
ATOM     20  C   UNL     1       6.605   4.195  13.862  0.00  0.00    +0.000 A 
ENDBRANCH   1  20
TORSDOF 2
ENDMDL
MODEL 8
REMARK VINA RESULT:      -6.9      1.907      3.256
REMARK  Name = 
REMARK  3 active torsions:
REMARK  status: ('A' for Active; 'I' for Inactive)
REMARK    1  A    between atoms: C_1  and  C_2
REMARK    2  A    between atoms: C_6  and  C_7
REMARK    3  A    between atoms: N_9  and  C_10
REMARK                            x       y       z     vdW  Elec       q    Type
REMARK                         _______ _______ _______ _____ _____    ______ ____
ROOT
ATOM      1  C   UNL     1       4.462   4.762  16.494  0.00  0.00    +0.000 C 
ATOM      2  O   UNL     1       3.692   3.953  15.987  0.00  0.00    +0.000 OA
ATOM      3  N   UNL     1       4.045   5.593  17.514  0.00  0.00    +0.000 N 
ATOM      4  H   UNL     1       4.683   6.216  17.986  0.00  0.00    +0.000 HD
ENDROOT
BRANCH   3   5
ATOM      5  C   UNL     1       2.686   5.446  18.039  0.00  0.00    +0.000 C 
ATOM      6  C   UNL     1       2.002   6.807  18.265  0.00  0.00    +0.000 C 
ATOM      7  C   UNL     1       2.239   7.363  19.665  0.00  0.00    +0.000 C 
ATOM      8  C   UNL     1       1.720   6.394  20.722  0.00  0.00    +0.000 C 
ATOM      9  C   UNL     1       2.220   4.987  20.516  0.00  0.00    +0.000 A 
ATOM     10  C   UNL     1       2.158   4.082  21.588  0.00  0.00    +0.000 A 
ATOM     11  C   UNL     1       2.537   2.750  21.419  0.00  0.00    +0.000 A 
ATOM     12  C   UNL     1       2.970   2.305  20.176  0.00  0.00    +0.000 A 
ATOM     13  C   UNL     1       3.030   3.190  19.102  0.00  0.00    +0.000 A 
ATOM     14  C   UNL     1       2.657   4.539  19.255  0.00  0.00    +0.000 A 
ENDBRANCH   3   5
BRANCH   1  20
ATOM     15  C   UNL     1       7.573   4.654  18.049  0.00  0.00    +0.000 C 
ATOM     16  C   UNL     1       7.066   4.775  16.668  0.00  0.00    +0.000 A 
ATOM     17  O   UNL     1       8.055   4.902  15.733  0.00  0.00    +0.000 OA
ATOM     18  N   UNL     1       7.504   5.031  14.476  0.00  0.00    +0.000 NA
ATOM     19  C   UNL     1       6.189   4.984  14.672  0.00  0.00    +0.000 A 
ATOM     20  C   UNL     1       5.838   4.822  16.040  0.00  0.00    +0.000 A 
ENDBRANCH   1  20
TORSDOF 2
ENDMDL
MODEL 9
REMARK VINA RESULT:      -6.9      2.452      6.484
REMARK  Name = 
REMARK  3 active torsions:
REMARK  status: ('A' for Active; 'I' for Inactive)
REMARK    1  A    between atoms: C_1  and  C_2
REMARK    2  A    between atoms: C_6  and  C_7
REMARK    3  A    between atoms: N_9  and  C_10
REMARK                            x       y       z     vdW  Elec       q    Type
REMARK                         _______ _______ _______ _____ _____    ______ ____
ROOT
ATOM      1  C   UNL     1       4.010   3.146  19.098  0.00  0.00    +0.000 C 
ATOM      2  O   UNL     1       4.800   2.473  19.753  0.00  0.00    +0.000 OA
ATOM      3  N   UNL     1       4.460   4.073  18.180  0.00  0.00    +0.000 N 
ATOM      4  H   UNL     1       3.824   4.584  17.587  0.00  0.00    +0.000 HD
ENDROOT
BRANCH   3   5
ATOM      5  C   UNL     1       5.899   4.192  17.940  0.00  0.00    +0.000 C 
ATOM      6  C   UNL     1       6.560   5.217  18.881  0.00  0.00    +0.000 C 
ATOM      7  C   UNL     1       6.575   6.627  18.303  0.00  0.00    +0.000 C 
ATOM      8  C   UNL     1       7.327   6.655  16.977  0.00  0.00    +0.000 C 
ATOM      9  C   UNL     1       6.852   5.593  16.018  0.00  0.00    +0.000 A 
ATOM     10  C   UNL     1       7.155   5.728  14.653  0.00  0.00    +0.000 A 
ATOM     11  C   UNL     1       6.804   4.731  13.744  0.00  0.00    +0.000 A 
ATOM     12  C   UNL     1       6.157   3.583  14.188  0.00  0.00    +0.000 A 
ATOM     13  C   UNL     1       5.856   3.434  15.540  0.00  0.00    +0.000 A 
ATOM     14  C   UNL     1       6.198   4.432  16.471  0.00  0.00    +0.000 A 
ENDBRANCH   3   5
BRANCH   1  20
ATOM     15  C   UNL     1       1.843   3.048  21.819  0.00  0.00    +0.000 C 
ATOM     16  C   UNL     1       1.735   2.907  20.354  0.00  0.00    +0.000 A 
ATOM     17  O   UNL     1       0.463   2.644  19.924  0.00  0.00    +0.000 OA
ATOM     18  N   UNL     1       0.448   2.505  18.553  0.00  0.00    +0.000 NA
ATOM     19  C   UNL     1       1.711   2.680  18.175  0.00  0.00    +0.000 A 
ATOM     20  C   UNL     1       2.585   2.939  19.266  0.00  0.00    +0.000 A 
ENDBRANCH   1  20
TORSDOF 2
ENDMDL
