MODEL 1
REMARK VINA RESULT:      -6.3      0.000      0.000
REMARK  Name = 
REMARK  23 active torsions:
REMARK  status: ('A' for Active; 'I' for Inactive)
REMARK    1  A    between atoms: C_1  and  C_2
REMARK    2  A    between atoms: C_2  and  C_3
REMARK    3  A    between atoms: C_3  and  C_4
REMARK    4  A    between atoms: C_4  and  C_5
REMARK    5  A    between atoms: C_5  and  C_6
REMARK    6  A    between atoms: C_6  and  C_7
REMARK    7  A    between atoms: C_7  and  C_8
REMARK    8  A    between atoms: C_8  and  C_9
REMARK    9  A    between atoms: C_9  and  C_10
REMARK   10  A    between atoms: C_10  and  C_11
REMARK   11  A    between atoms: C_11  and  C_12
REMARK   12  A    between atoms: C_12  and  O_14
REMARK   13  A    between atoms: O_14  and  C_15
REMARK   14  A    between atoms: C_15  and  C_16
REMARK   15  A    between atoms: C_16  and  O_17
REMARK   16  A    between atoms: C_16  and  C_18
REMARK   17  A    between atoms: C_18  and  O_19
REMARK   18  A    between atoms: O_19  and  C_20
REMARK   19  A    between atoms: C_22  and  C_23
REMARK   20  A    between atoms: C_23  and  O_24
REMARK   21  A    between atoms: C_25  and  O_26
REMARK   22  A    between atoms: C_27  and  O_28
REMARK   23  A    between atoms: C_29  and  O_30
REMARK                            x       y       z     vdW  Elec       q    Type
REMARK                         _______ _______ _______ _____ _____    ______ ____
ROOT
ATOM      1  C   UNL     1       6.214   5.021  16.086  0.00  0.00    +0.000 C 
ENDROOT
BRANCH   1   2
ATOM      2  O   UNL     1       7.528   4.520  16.404  0.00  0.00    +0.000 OA
ATOM      3  H   UNL     1       7.892   5.049  17.136  0.00  0.00    +0.000 HD
ENDBRANCH   1   2
BRANCH   1   4
ATOM      4  C   UNL     1       5.213   4.090  16.766  0.00  0.00    +0.000 C 
BRANCH   4   5
ATOM      5  O   UNL     1       5.661   3.669  18.049  0.00  0.00    +0.000 OA
BRANCH   5   6
ATOM      6  C   UNL     1       4.582   3.639  18.983  0.00  0.00    +0.000 C 
ATOM      7  O   UNL     1       3.509   2.854  18.456  0.00  0.00    +0.000 OA
ATOM      8  C   UNL     1       2.435   2.714  19.392  0.00  0.00    +0.000 C 
ATOM      9  C   UNL     1       1.809   4.080  19.678  0.00  0.00    +0.000 C 
ATOM     10  C   UNL     1       2.887   5.054  20.174  0.00  0.00    +0.000 C 
ATOM     11  C   UNL     1       4.118   5.084  19.254  0.00  0.00    +0.000 C 
BRANCH  11  12
ATOM     12  O   UNL     1       5.162   5.869  19.856  0.00  0.00    +0.000 OA
ATOM     13  H   UNL     1       5.480   5.416  20.656  0.00  0.00    +0.000 HD
ENDBRANCH  11  12
BRANCH  10  14
ATOM     14  O   UNL     1       2.304   6.357  20.331  0.00  0.00    +0.000 OA
ATOM     15  H   UNL     1       2.260   6.557  21.284  0.00  0.00    +0.000 HD
ENDBRANCH  10  14
BRANCH   9  16
ATOM     16  O   UNL     1       0.802   3.929  20.683  0.00  0.00    +0.000 OA
ATOM     17  H   UNL     1       0.016   3.532  20.260  0.00  0.00    +0.000 HD
ENDBRANCH   9  16
BRANCH   8  18
ATOM     18  C   UNL     1       1.422   1.717  18.820  0.00  0.00    +0.000 C 
BRANCH  18  19
ATOM     19  O   UNL     1       0.209   2.365  18.445  0.00  0.00    +0.000 OA
ATOM     20  H   UNL     1      -0.144   2.773  19.264  0.00  0.00    +0.000 HD
ENDBRANCH  18  19
ENDBRANCH   8  18
ENDBRANCH   5   6
ENDBRANCH   4   5
ENDBRANCH   1   4
BRANCH   1  21
ATOM     21  C   UNL     1       5.995   6.493  16.486  0.00  0.00    +0.000 C 
BRANCH  21  22
ATOM     22  O   UNL     1       7.281   7.137  16.571  0.00  0.00    +0.000 OA
BRANCH  22  23
ATOM     23  C   UNL     1       7.718   7.518  17.804  0.00  0.00    +0.000 C 
ATOM     24  O   UNL     1       7.986   6.780  18.740  0.00  0.00    +0.000 OA
BRANCH  23  25
ATOM     25  C   UNL     1       7.998   8.992  17.780  0.00  0.00    +0.000 C 
BRANCH  25  26
ATOM     26  C   UNL     1       8.955   9.356  18.911  0.00  0.00    +0.000 C 
BRANCH  26  27
ATOM     27  C   UNL     1       9.196  10.861  18.951  0.00  0.00    +0.000 C 
BRANCH  27  28
ATOM     28  C   UNL     1      10.210  11.291  17.895  0.00  0.00    +0.000 C 
BRANCH  28  29
ATOM     29  C   UNL     1      11.538  11.660  18.550  0.00  0.00    +0.000 C 
BRANCH  29  30
ATOM     30  C   UNL     1      12.214  12.811  17.814  0.00  0.00    +0.000 C 
BRANCH  30  31
ATOM     31  C   UNL     1      11.272  13.430  16.790  0.00  0.00    +0.000 C 
BRANCH  31  32
ATOM     32  C   UNL     1      11.118  14.932  17.018  0.00  0.00    +0.000 C 
BRANCH  32  33
ATOM     33  C   UNL     1      10.367  15.211  18.319  0.00  0.00    +0.000 C 
BRANCH  33  35
ATOM     34  C   UNL     1       7.957  15.789  17.914  0.00  0.00    +0.000 C 
ATOM     35  C   UNL     1       8.937  14.682  18.259  0.00  0.00    +0.000 C 
ENDBRANCH  33  35
ENDBRANCH  32  33
ENDBRANCH  31  32
ENDBRANCH  30  31
ENDBRANCH  29  30
ENDBRANCH  28  29
ENDBRANCH  27  28
ENDBRANCH  26  27
ENDBRANCH  25  26
ENDBRANCH  23  25
ENDBRANCH  22  23
ENDBRANCH  21  22
ENDBRANCH   1  21
TORSDOF 22
ENDMDL
MODEL 2
REMARK VINA RESULT:      -5.8      4.791      7.547
REMARK  Name = 
REMARK  23 active torsions:
REMARK  status: ('A' for Active; 'I' for Inactive)
REMARK    1  A    between atoms: C_1  and  C_2
REMARK    2  A    between atoms: C_2  and  C_3
REMARK    3  A    between atoms: C_3  and  C_4
REMARK    4  A    between atoms: C_4  and  C_5
REMARK    5  A    between atoms: C_5  and  C_6
REMARK    6  A    between atoms: C_6  and  C_7
REMARK    7  A    between atoms: C_7  and  C_8
REMARK    8  A    between atoms: C_8  and  C_9
REMARK    9  A    between atoms: C_9  and  C_10
REMARK   10  A    between atoms: C_10  and  C_11
REMARK   11  A    between atoms: C_11  and  C_12
REMARK   12  A    between atoms: C_12  and  O_14
REMARK   13  A    between atoms: O_14  and  C_15
REMARK   14  A    between atoms: C_15  and  C_16
REMARK   15  A    between atoms: C_16  and  O_17
REMARK   16  A    between atoms: C_16  and  C_18
REMARK   17  A    between atoms: C_18  and  O_19
REMARK   18  A    between atoms: O_19  and  C_20
REMARK   19  A    between atoms: C_22  and  C_23
REMARK   20  A    between atoms: C_23  and  O_24
REMARK   21  A    between atoms: C_25  and  O_26
REMARK   22  A    between atoms: C_27  and  O_28
REMARK   23  A    between atoms: C_29  and  O_30
REMARK                            x       y       z     vdW  Elec       q    Type
REMARK                         _______ _______ _______ _____ _____    ______ ____
ROOT
ATOM      1  C   UNL     1       1.324   3.567  20.965  0.00  0.00    +0.000 C 
ENDROOT
BRANCH   1   2
ATOM      2  O   UNL     1       2.202   3.654  22.106  0.00  0.00    +0.000 OA
ATOM      3  H   UNL     1       1.969   2.945  22.731  0.00  0.00    +0.000 HD
ENDBRANCH   1   2
BRANCH   1   4
ATOM      4  C   UNL     1       1.197   4.980  20.402  0.00  0.00    +0.000 C 
BRANCH   4   5
ATOM      5  O   UNL     1       2.461   5.620  20.273  0.00  0.00    +0.000 OA
BRANCH   5   6
ATOM      6  C   UNL     1       2.314   7.040  20.245  0.00  0.00    +0.000 C 
ATOM      7  O   UNL     1       1.214   7.428  21.072  0.00  0.00    +0.000 OA
ATOM      8  C   UNL     1       1.078   8.852  21.154  0.00  0.00    +0.000 C 
ATOM      9  C   UNL     1       0.744   9.425  19.776  0.00  0.00    +0.000 C 
ATOM     10  C   UNL     1       1.817   9.002  18.761  0.00  0.00    +0.000 C 
ATOM     11  C   UNL     1       2.084   7.489  18.787  0.00  0.00    +0.000 C 
BRANCH  11  12
ATOM     12  O   UNL     1       3.214   7.174  17.955  0.00  0.00    +0.000 OA
ATOM     13  H   UNL     1       3.338   7.888  17.305  0.00  0.00    +0.000 HD
ENDBRANCH  11  12
BRANCH  10  14
ATOM     14  O   UNL     1       1.430   9.455  17.455  0.00  0.00    +0.000 OA
ATOM     15  H   UNL     1       0.703   8.888  17.139  0.00  0.00    +0.000 HD
ENDBRANCH  10  14
BRANCH   9  16
ATOM     16  O   UNL     1       0.705  10.852  19.863  0.00  0.00    +0.000 OA
ATOM     17  H   UNL     1       1.619  11.182  19.760  0.00  0.00    +0.000 HD
ENDBRANCH   9  16
BRANCH   8  18
ATOM     18  C   UNL     1       0.003   9.176  22.195  0.00  0.00    +0.000 C 
BRANCH  18  19
ATOM     19  O   UNL     1       0.300  10.383  22.891  0.00  0.00    +0.000 OA
ATOM     20  H   UNL     1       1.117  10.206  23.405  0.00  0.00    +0.000 HD
ENDBRANCH  18  19
ENDBRANCH   8  18
ENDBRANCH   5   6
ENDBRANCH   4   5
ENDBRANCH   1   4
BRANCH   1  21
ATOM     21  C   UNL     1       1.790   2.560  19.896  0.00  0.00    +0.000 C 
BRANCH  21  22
ATOM     22  O   UNL     1       1.828   3.233  18.624  0.00  0.00    +0.000 OA
BRANCH  22  23
ATOM     23  C   UNL     1       3.013   3.248  17.951  0.00  0.00    +0.000 C 
ATOM     24  O   UNL     1       3.180   3.555  16.780  0.00  0.00    +0.000 OA
BRANCH  23  25
ATOM     25  C   UNL     1       4.124   3.004  18.929  0.00  0.00    +0.000 C 
BRANCH  25  26
ATOM     26  C   UNL     1       5.399   3.689  18.447  0.00  0.00    +0.000 C 
BRANCH  26  27
ATOM     27  C   UNL     1       5.513   5.092  19.031  0.00  0.00    +0.000 C 
BRANCH  27  28
ATOM     28  C   UNL     1       6.950   5.415  19.431  0.00  0.00    +0.000 C 
BRANCH  28  29
ATOM     29  C   UNL     1       7.628   6.257  18.354  0.00  0.00    +0.000 C 
BRANCH  29  30
ATOM     30  C   UNL     1       6.642   6.651  17.261  0.00  0.00    +0.000 C 
BRANCH  30  31
ATOM     31  C   UNL     1       6.918   5.880  15.976  0.00  0.00    +0.000 C 
BRANCH  31  32
ATOM     32  C   UNL     1       5.620   5.537  15.248  0.00  0.00    +0.000 C 
BRANCH  32  33
ATOM     33  C   UNL     1       5.692   4.138  14.638  0.00  0.00    +0.000 C 
BRANCH  33  35
ATOM     34  C   UNL     1       5.916   3.295  12.283  0.00  0.00    +0.000 C 
ATOM     35  C   UNL     1       6.557   4.125  13.381  0.00  0.00    +0.000 C 
ENDBRANCH  33  35
ENDBRANCH  32  33
ENDBRANCH  31  32
ENDBRANCH  30  31
ENDBRANCH  29  30
ENDBRANCH  28  29
ENDBRANCH  27  28
ENDBRANCH  26  27
ENDBRANCH  25  26
ENDBRANCH  23  25
ENDBRANCH  22  23
ENDBRANCH  21  22
ENDBRANCH   1  21
TORSDOF 22
ENDMDL
MODEL 3
REMARK VINA RESULT:      -5.8      3.815     10.988
REMARK  Name = 
REMARK  23 active torsions:
REMARK  status: ('A' for Active; 'I' for Inactive)
REMARK    1  A    between atoms: C_1  and  C_2
REMARK    2  A    between atoms: C_2  and  C_3
REMARK    3  A    between atoms: C_3  and  C_4
REMARK    4  A    between atoms: C_4  and  C_5
REMARK    5  A    between atoms: C_5  and  C_6
REMARK    6  A    between atoms: C_6  and  C_7
REMARK    7  A    between atoms: C_7  and  C_8
REMARK    8  A    between atoms: C_8  and  C_9
REMARK    9  A    between atoms: C_9  and  C_10
REMARK   10  A    between atoms: C_10  and  C_11
REMARK   11  A    between atoms: C_11  and  C_12
REMARK   12  A    between atoms: C_12  and  O_14
REMARK   13  A    between atoms: O_14  and  C_15
REMARK   14  A    between atoms: C_15  and  C_16
REMARK   15  A    between atoms: C_16  and  O_17
REMARK   16  A    between atoms: C_16  and  C_18
REMARK   17  A    between atoms: C_18  and  O_19
REMARK   18  A    between atoms: O_19  and  C_20
REMARK   19  A    between atoms: C_22  and  C_23
REMARK   20  A    between atoms: C_23  and  O_24
REMARK   21  A    between atoms: C_25  and  O_26
REMARK   22  A    between atoms: C_27  and  O_28
REMARK   23  A    between atoms: C_29  and  O_30
REMARK                            x       y       z     vdW  Elec       q    Type
REMARK                         _______ _______ _______ _____ _____    ______ ____
ROOT
ATOM      1  C   UNL     1       8.421   9.769  18.655  0.00  0.00    +0.000 C 
ENDROOT
BRANCH   1   2
ATOM      2  O   UNL     1       9.350   9.599  19.745  0.00  0.00    +0.000 OA
ATOM      3  H   UNL     1      10.028   8.955  19.476  0.00  0.00    +0.000 HD
ENDBRANCH   1   2
BRANCH   1   4
ATOM      4  C   UNL     1       8.963  10.906  17.791  0.00  0.00    +0.000 C 
BRANCH   4   5
ATOM      5  O   UNL     1      10.321  11.205  18.092  0.00  0.00    +0.000 OA
BRANCH   5   6
ATOM      6  C   UNL     1      10.495  12.601  18.334  0.00  0.00    +0.000 C 
ATOM      7  O   UNL     1       9.269  13.165  18.807  0.00  0.00    +0.000 OA
ATOM      8  C   UNL     1       9.412  14.547  19.155  0.00  0.00    +0.000 C 
ATOM      9  C   UNL     1       9.759  15.366  17.911  0.00  0.00    +0.000 C 
ATOM     10  C   UNL     1      11.024  14.801  17.251  0.00  0.00    +0.000 C 
ATOM     11  C   UNL     1      10.940  13.284  17.025  0.00  0.00    +0.000 C 
BRANCH  11  12
ATOM     12  O   UNL     1      12.211  12.782  16.575  0.00  0.00    +0.000 OA
ATOM     13  H   UNL     1      12.757  13.527  16.270  0.00  0.00    +0.000 HD
ENDBRANCH  11  12
BRANCH  10  14
ATOM     14  O   UNL     1      11.271  15.512  16.027  0.00  0.00    +0.000 OA
ATOM     15  H   UNL     1      10.716  16.313  16.023  0.00  0.00    +0.000 HD
ENDBRANCH  10  14
BRANCH   9  16
ATOM     16  O   UNL     1       9.987  16.725  18.298  0.00  0.00    +0.000 OA
ATOM     17  H   UNL     1      10.819  17.018  17.879  0.00  0.00    +0.000 HD
ENDBRANCH   9  16
BRANCH   8  18
ATOM     18  C   UNL     1       8.112  15.015  19.817  0.00  0.00    +0.000 C 
BRANCH  18  19
ATOM     19  O   UNL     1       7.177  15.487  18.851  0.00  0.00    +0.000 OA
ATOM     20  H   UNL     1       6.995  16.422  19.083  0.00  0.00    +0.000 HD
ENDBRANCH  18  19
ENDBRANCH   8  18
ENDBRANCH   5   6
ENDBRANCH   4   5
ENDBRANCH   1   4
BRANCH   1  21
ATOM     21  C   UNL     1       8.182   8.486  17.834  0.00  0.00    +0.000 C 
BRANCH  21  22
ATOM     22  O   UNL     1       8.403   7.351  18.692  0.00  0.00    +0.000 OA
BRANCH  22  23
ATOM     23  C   UNL     1       7.568   6.283  18.555  0.00  0.00    +0.000 C 
ATOM     24  O   UNL     1       6.992   5.692  19.455  0.00  0.00    +0.000 OA
BRANCH  23  25
ATOM     25  C   UNL     1       7.316   6.055  17.094  0.00  0.00    +0.000 C 
BRANCH  25  26
ATOM     26  C   UNL     1       7.167   4.561  16.820  0.00  0.00    +0.000 C 
BRANCH  26  27
ATOM     27  C   UNL     1       6.431   4.323  15.507  0.00  0.00    +0.000 C 
BRANCH  27  28
ATOM     28  C   UNL     1       4.922   4.475  15.679  0.00  0.00    +0.000 C 
BRANCH  28  29
ATOM     29  C   UNL     1       4.496   4.031  17.075  0.00  0.00    +0.000 C 
BRANCH  29  30
ATOM     30  C   UNL     1       3.177   3.270  17.033  0.00  0.00    +0.000 C 
BRANCH  30  31
ATOM     31  C   UNL     1       3.115   2.225  18.140  0.00  0.00    +0.000 C 
BRANCH  31  32
ATOM     32  C   UNL     1       4.154   2.505  19.223  0.00  0.00    +0.000 C 
BRANCH  32  33
ATOM     33  C   UNL     1       3.515   2.480  20.610  0.00  0.00    +0.000 C 
BRANCH  33  35
ATOM     34  C   UNL     1       1.099   3.025  21.032  0.00  0.00    +0.000 C 
ATOM     35  C   UNL     1       2.482   3.592  20.766  0.00  0.00    +0.000 C 
ENDBRANCH  33  35
ENDBRANCH  32  33
ENDBRANCH  31  32
ENDBRANCH  30  31
ENDBRANCH  29  30
ENDBRANCH  28  29
ENDBRANCH  27  28
ENDBRANCH  26  27
ENDBRANCH  25  26
ENDBRANCH  23  25
ENDBRANCH  22  23
ENDBRANCH  21  22
ENDBRANCH   1  21
TORSDOF 22
ENDMDL
MODEL 4
REMARK VINA RESULT:      -5.7      3.242     10.609
REMARK  Name = 
REMARK  23 active torsions:
REMARK  status: ('A' for Active; 'I' for Inactive)
REMARK    1  A    between atoms: C_1  and  C_2
REMARK    2  A    between atoms: C_2  and  C_3
REMARK    3  A    between atoms: C_3  and  C_4
REMARK    4  A    between atoms: C_4  and  C_5
REMARK    5  A    between atoms: C_5  and  C_6
REMARK    6  A    between atoms: C_6  and  C_7
REMARK    7  A    between atoms: C_7  and  C_8
REMARK    8  A    between atoms: C_8  and  C_9
REMARK    9  A    between atoms: C_9  and  C_10
REMARK   10  A    between atoms: C_10  and  C_11
REMARK   11  A    between atoms: C_11  and  C_12
REMARK   12  A    between atoms: C_12  and  O_14
REMARK   13  A    between atoms: O_14  and  C_15
REMARK   14  A    between atoms: C_15  and  C_16
REMARK   15  A    between atoms: C_16  and  O_17
REMARK   16  A    between atoms: C_16  and  C_18
REMARK   17  A    between atoms: C_18  and  O_19
REMARK   18  A    between atoms: O_19  and  C_20
REMARK   19  A    between atoms: C_22  and  C_23
REMARK   20  A    between atoms: C_23  and  O_24
REMARK   21  A    between atoms: C_25  and  O_26
REMARK   22  A    between atoms: C_27  and  O_28
REMARK   23  A    between atoms: C_29  and  O_30
REMARK                            x       y       z     vdW  Elec       q    Type
REMARK                         _______ _______ _______ _____ _____    ______ ____
ROOT
ATOM      1  C   UNL     1       7.704   7.859  18.043  0.00  0.00    +0.000 C 
ENDROOT
BRANCH   1   2
ATOM      2  O   UNL     1       8.642   7.307  18.989  0.00  0.00    +0.000 OA
ATOM      3  H   UNL     1       9.106   8.041  19.429  0.00  0.00    +0.000 HD
ENDBRANCH   1   2
BRANCH   1   4
ATOM      4  C   UNL     1       8.006   9.353  17.947  0.00  0.00    +0.000 C 
BRANCH   4   5
ATOM      5  O   UNL     1       9.067   9.740  18.812  0.00  0.00    +0.000 OA
BRANCH   5   6
ATOM      6  C   UNL     1       9.250  11.157  18.793  0.00  0.00    +0.000 C 
ATOM      7  O   UNL     1      10.242  11.502  17.824  0.00  0.00    +0.000 OA
ATOM      8  C   UNL     1      10.400  12.920  17.697  0.00  0.00    +0.000 C 
ATOM      9  C   UNL     1      10.921  13.507  19.009  0.00  0.00    +0.000 C 
ATOM     10  C   UNL     1       9.979  13.129  20.161  0.00  0.00    +0.000 C 
ATOM     11  C   UNL     1       9.675  11.623  20.200  0.00  0.00    +0.000 C 
BRANCH  11  12
ATOM     12  O   UNL     1       8.655  11.352  21.176  0.00  0.00    +0.000 OA
ATOM     13  H   UNL     1       8.406  12.183  21.616  0.00  0.00    +0.000 HD
ENDBRANCH  11  12
BRANCH  10  14
ATOM     14  O   UNL     1      10.541  13.594  21.398  0.00  0.00    +0.000 OA
ATOM     15  H   UNL     1      11.476  13.322  21.429  0.00  0.00    +0.000 HD
ENDBRANCH  10  14
BRANCH   9  16
ATOM     16  O   UNL     1      10.982  14.932  18.890  0.00  0.00    +0.000 OA
ATOM     17  H   UNL     1      11.923  15.186  18.831  0.00  0.00    +0.000 HD
ENDBRANCH   9  16
BRANCH   8  18
ATOM     18  C   UNL     1      11.340  13.199  16.520  0.00  0.00    +0.000 C 
BRANCH  18  19
ATOM     19  O   UNL     1      11.081  14.474  15.939  0.00  0.00    +0.000 OA
ATOM     20  H   UNL     1      10.789  14.297  15.019  0.00  0.00    +0.000 HD
ENDBRANCH  18  19
ENDBRANCH   8  18
ENDBRANCH   5   6
ENDBRANCH   4   5
ENDBRANCH   1   4
BRANCH   1  21
ATOM     21  C   UNL     1       7.737   7.175  16.662  0.00  0.00    +0.000 C 
BRANCH  21  22
ATOM     22  O   UNL     1       6.607   6.288  16.568  0.00  0.00    +0.000 OA
BRANCH  22  23
ATOM     23  C   UNL     1       6.838   4.952  16.698  0.00  0.00    +0.000 C 
ATOM     24  O   UNL     1       7.920   4.417  16.889  0.00  0.00    +0.000 OA
BRANCH  23  25
ATOM     25  C   UNL     1       5.519   4.239  16.756  0.00  0.00    +0.000 C 
BRANCH  25  26
ATOM     26  C   UNL     1       4.387   5.252  16.897  0.00  0.00    +0.000 C 
BRANCH  26  27
ATOM     27  C   UNL     1       4.028   5.461  18.363  0.00  0.00    +0.000 C 
BRANCH  27  28
ATOM     28  C   UNL     1       2.542   5.763  18.535  0.00  0.00    +0.000 C 
BRANCH  28  29
ATOM     29  C   UNL     1       1.697   4.690  17.855  0.00  0.00    +0.000 C 
BRANCH  29  30
ATOM     30  C   UNL     1       1.289   3.603  18.841  0.00  0.00    +0.000 C 
BRANCH  30  31
ATOM     31  C   UNL     1       0.939   4.202  20.197  0.00  0.00    +0.000 C 
BRANCH  31  32
ATOM     32  C   UNL     1       2.074   4.000  21.200  0.00  0.00    +0.000 C 
BRANCH  32  33
ATOM     33  C   UNL     1       2.605   2.569  21.139  0.00  0.00    +0.000 C 
BRANCH  33  35
ATOM     34  C   UNL     1       4.198   1.836  19.340  0.00  0.00    +0.000 C 
ATOM     35  C   UNL     1       4.060   2.536  20.681  0.00  0.00    +0.000 C 
ENDBRANCH  33  35
ENDBRANCH  32  33
ENDBRANCH  31  32
ENDBRANCH  30  31
ENDBRANCH  29  30
ENDBRANCH  28  29
ENDBRANCH  27  28
ENDBRANCH  26  27
ENDBRANCH  25  26
ENDBRANCH  23  25
ENDBRANCH  22  23
ENDBRANCH  21  22
ENDBRANCH   1  21
TORSDOF 22
ENDMDL
MODEL 5
REMARK VINA RESULT:      -5.7      5.407     10.069
REMARK  Name = 
REMARK  23 active torsions:
REMARK  status: ('A' for Active; 'I' for Inactive)
REMARK    1  A    between atoms: C_1  and  C_2
REMARK    2  A    between atoms: C_2  and  C_3
REMARK    3  A    between atoms: C_3  and  C_4
REMARK    4  A    between atoms: C_4  and  C_5
REMARK    5  A    between atoms: C_5  and  C_6
REMARK    6  A    between atoms: C_6  and  C_7
REMARK    7  A    between atoms: C_7  and  C_8
REMARK    8  A    between atoms: C_8  and  C_9
REMARK    9  A    between atoms: C_9  and  C_10
REMARK   10  A    between atoms: C_10  and  C_11
REMARK   11  A    between atoms: C_11  and  C_12
REMARK   12  A    between atoms: C_12  and  O_14
REMARK   13  A    between atoms: O_14  and  C_15
REMARK   14  A    between atoms: C_15  and  C_16
REMARK   15  A    between atoms: C_16  and  O_17
REMARK   16  A    between atoms: C_16  and  C_18
REMARK   17  A    between atoms: C_18  and  O_19
REMARK   18  A    between atoms: O_19  and  C_20
REMARK   19  A    between atoms: C_22  and  C_23
REMARK   20  A    between atoms: C_23  and  O_24
REMARK   21  A    between atoms: C_25  and  O_26
REMARK   22  A    between atoms: C_27  and  O_28
REMARK   23  A    between atoms: C_29  and  O_30
REMARK                            x       y       z     vdW  Elec       q    Type
REMARK                         _______ _______ _______ _____ _____    ______ ____
ROOT
ATOM      1  C   UNL     1       0.045   8.955  21.599  0.00  0.00    +0.000 C 
ENDROOT
BRANCH   1   2
ATOM      2  O   UNL     1      -0.695   8.595  22.782  0.00  0.00    +0.000 OA
ATOM      3  H   UNL     1      -0.296   7.794  23.166  0.00  0.00    +0.000 HD
ENDBRANCH   1   2
BRANCH   1   4
ATOM      4  C   UNL     1       0.114  10.480  21.572  0.00  0.00    +0.000 C 
BRANCH   4   5
ATOM      5  O   UNL     1       0.639  10.970  20.344  0.00  0.00    +0.000 OA
BRANCH   5   6
ATOM      6  C   UNL     1      -0.405  11.456  19.500  0.00  0.00    +0.000 C 
ATOM      7  O   UNL     1      -1.534  11.827  20.294  0.00  0.00    +0.000 OA
ATOM      8  C   UNL     1      -2.579  12.409  19.506  0.00  0.00    +0.000 C 
ATOM      9  C   UNL     1      -3.125  11.376  18.518  0.00  0.00    +0.000 C 
ATOM     10  C   UNL     1      -1.982  10.828  17.652  0.00  0.00    +0.000 C 
ATOM     11  C   UNL     1      -0.786  10.352  18.493  0.00  0.00    +0.000 C 
BRANCH  11  12
ATOM     12  O   UNL     1       0.318  10.019  17.633  0.00  0.00    +0.000 OA
ATOM     13  H   UNL     1       0.793  10.834  17.395  0.00  0.00    +0.000 HD
ENDBRANCH  11  12
BRANCH  10  14
ATOM     14  O   UNL     1      -2.493   9.783  16.809  0.00  0.00    +0.000 OA
ATOM     15  H   UNL     1      -3.389   9.554  17.118  0.00  0.00    +0.000 HD
ENDBRANCH  10  14
BRANCH   9  16
ATOM     16  O   UNL     1      -4.100  12.004  17.681  0.00  0.00    +0.000 OA
ATOM     17  H   UNL     1      -4.015  11.622  16.786  0.00  0.00    +0.000 HD
ENDBRANCH   9  16
BRANCH   8  18
ATOM     18  C   UNL     1      -3.661  12.939  20.452  0.00  0.00    +0.000 C 
BRANCH  18  19
ATOM     19  O   UNL     1      -4.414  13.986  19.846  0.00  0.00    +0.000 OA
ATOM     20  H   UNL     1      -5.125  13.547  19.333  0.00  0.00    +0.000 HD
ENDBRANCH  18  19
ENDBRANCH   8  18
ENDBRANCH   5   6
ENDBRANCH   4   5
ENDBRANCH   1   4
BRANCH   1  21
ATOM     21  C   UNL     1       1.445   8.313  21.521  0.00  0.00    +0.000 C 
BRANCH  21  22
ATOM     22  O   UNL     1       1.708   7.962  20.150  0.00  0.00    +0.000 OA
BRANCH  22  23
ATOM     23  C   UNL     1       2.295   6.757  19.907  0.00  0.00    +0.000 C 
ATOM     24  O   UNL     1       3.426   6.572  19.483  0.00  0.00    +0.000 OA
BRANCH  23  25
ATOM     25  C   UNL     1       1.394   5.671  20.419  0.00  0.00    +0.000 C 
BRANCH  25  26
ATOM     26  C   UNL     1       2.192   4.700  21.284  0.00  0.00    +0.000 C 
BRANCH  26  27
ATOM     27  C   UNL     1       1.569   3.310  21.251  0.00  0.00    +0.000 C 
BRANCH  27  28
ATOM     28  C   UNL     1       0.913   3.026  19.903  0.00  0.00    +0.000 C 
BRANCH  28  29
ATOM     29  C   UNL     1       1.651   1.907  19.174  0.00  0.00    +0.000 C 
BRANCH  29  30
ATOM     30  C   UNL     1       2.211   2.391  17.842  0.00  0.00    +0.000 C 
BRANCH  30  31
ATOM     31  C   UNL     1       3.585   3.021  18.026  0.00  0.00    +0.000 C 
BRANCH  31  32
ATOM     32  C   UNL     1       3.782   4.205  17.082  0.00  0.00    +0.000 C 
BRANCH  32  33
ATOM     33  C   UNL     1       5.206   4.232  16.531  0.00  0.00    +0.000 C 
BRANCH  33  35
ATOM     34  C   UNL     1       5.646   6.699  16.692  0.00  0.00    +0.000 C 
ATOM     35  C   UNL     1       5.477   5.517  15.755  0.00  0.00    +0.000 C 
ENDBRANCH  33  35
ENDBRANCH  32  33
ENDBRANCH  31  32
ENDBRANCH  30  31
ENDBRANCH  29  30
ENDBRANCH  28  29
ENDBRANCH  27  28
ENDBRANCH  26  27
ENDBRANCH  25  26
ENDBRANCH  23  25
ENDBRANCH  22  23
ENDBRANCH  21  22
ENDBRANCH   1  21
TORSDOF 22
ENDMDL
MODEL 6
REMARK VINA RESULT:      -5.7      4.723      8.778
REMARK  Name = 
REMARK  23 active torsions:
REMARK  status: ('A' for Active; 'I' for Inactive)
REMARK    1  A    between atoms: C_1  and  C_2
REMARK    2  A    between atoms: C_2  and  C_3
REMARK    3  A    between atoms: C_3  and  C_4
REMARK    4  A    between atoms: C_4  and  C_5
REMARK    5  A    between atoms: C_5  and  C_6
REMARK    6  A    between atoms: C_6  and  C_7
REMARK    7  A    between atoms: C_7  and  C_8
REMARK    8  A    between atoms: C_8  and  C_9
REMARK    9  A    between atoms: C_9  and  C_10
REMARK   10  A    between atoms: C_10  and  C_11
REMARK   11  A    between atoms: C_11  and  C_12
REMARK   12  A    between atoms: C_12  and  O_14
REMARK   13  A    between atoms: O_14  and  C_15
REMARK   14  A    between atoms: C_15  and  C_16
REMARK   15  A    between atoms: C_16  and  O_17
REMARK   16  A    between atoms: C_16  and  C_18
REMARK   17  A    between atoms: C_18  and  O_19
REMARK   18  A    between atoms: O_19  and  C_20
REMARK   19  A    between atoms: C_22  and  C_23
REMARK   20  A    between atoms: C_23  and  O_24
REMARK   21  A    between atoms: C_25  and  O_26
REMARK   22  A    between atoms: C_27  and  O_28
REMARK   23  A    between atoms: C_29  and  O_30
REMARK                            x       y       z     vdW  Elec       q    Type
REMARK                         _______ _______ _______ _____ _____    ______ ____
ROOT
ATOM      1  C   UNL     1       2.441   4.889  20.666  0.00  0.00    +0.000 C 
ENDROOT
BRANCH   1   2
ATOM      2  O   UNL     1       1.787   3.675  20.243  0.00  0.00    +0.000 OA
ATOM      3  H   UNL     1       1.138   3.420  20.921  0.00  0.00    +0.000 HD
ENDBRANCH   1   2
BRANCH   1   4
ATOM      4  C   UNL     1       3.576   5.143  19.678  0.00  0.00    +0.000 C 
BRANCH   4   5
ATOM      5  O   UNL     1       4.579   4.135  19.745  0.00  0.00    +0.000 OA
BRANCH   5   6
ATOM      6  C   UNL     1       5.554   4.316  18.717  0.00  0.00    +0.000 C 
ATOM      7  O   UNL     1       6.101   5.634  18.799  0.00  0.00    +0.000 OA
ATOM      8  C   UNL     1       7.153   5.839  17.848  0.00  0.00    +0.000 C 
ATOM      9  C   UNL     1       6.599   5.739  16.426  0.00  0.00    +0.000 C 
ATOM     10  C   UNL     1       5.899   4.386  16.233  0.00  0.00    +0.000 C 
ATOM     11  C   UNL     1       4.884   4.088  17.348  0.00  0.00    +0.000 C 
BRANCH  11  12
ATOM     12  O   UNL     1       4.393   2.742  17.219  0.00  0.00    +0.000 OA
ATOM     13  H   UNL     1       5.109   2.173  16.884  0.00  0.00    +0.000 HD
ENDBRANCH  11  12
BRANCH  10  14
ATOM     14  O   UNL     1       5.291   4.355  14.932  0.00  0.00    +0.000 OA
ATOM     15  H   UNL     1       5.649   3.588  14.448  0.00  0.00    +0.000 HD
ENDBRANCH  10  14
BRANCH   9  16
ATOM     16  O   UNL     1       7.680   5.855  15.497  0.00  0.00    +0.000 OA
ATOM     17  H   UNL     1       7.399   5.437  14.659  0.00  0.00    +0.000 HD
ENDBRANCH   9  16
BRANCH   8  18
ATOM     18  C   UNL     1       7.798   7.200  18.127  0.00  0.00    +0.000 C 
BRANCH  18  19
ATOM     19  O   UNL     1       7.510   8.135  17.091  0.00  0.00    +0.000 OA
ATOM     20  H   UNL     1       8.304   8.154  16.515  0.00  0.00    +0.000 HD
ENDBRANCH  18  19
ENDBRANCH   8  18
ENDBRANCH   5   6
ENDBRANCH   4   5
ENDBRANCH   1   4
BRANCH   1  21
ATOM     21  C   UNL     1       1.493   6.099  20.778  0.00  0.00    +0.000 C 
BRANCH  21  22
ATOM     22  O   UNL     1       2.098   7.214  20.098  0.00  0.00    +0.000 OA
BRANCH  22  23
ATOM     23  C   UNL     1       1.461   8.417  20.163  0.00  0.00    +0.000 C 
ATOM     24  O   UNL     1       1.528   9.320  19.343  0.00  0.00    +0.000 OA
BRANCH  23  25
ATOM     25  C   UNL     1       0.506   8.392  21.320  0.00  0.00    +0.000 C 
BRANCH  25  26
ATOM     26  C   UNL     1       0.802   9.555  22.262  0.00  0.00    +0.000 C 
BRANCH  26  27
ATOM     27  C   UNL     1      -0.481  10.074  22.900  0.00  0.00    +0.000 C 
BRANCH  27  28
ATOM     28  C   UNL     1      -0.701  11.551  22.585  0.00  0.00    +0.000 C 
BRANCH  28  29
ATOM     29  C   UNL     1      -2.094  11.772  22.003  0.00  0.00    +0.000 C 
BRANCH  29  30
ATOM     30  C   UNL     1      -2.018  12.386  20.610  0.00  0.00    +0.000 C 
BRANCH  30  31
ATOM     31  C   UNL     1      -0.938  11.711  19.776  0.00  0.00    +0.000 C 
BRANCH  31  32
ATOM     32  C   UNL     1      -1.323  11.674  18.299  0.00  0.00    +0.000 C 
BRANCH  32  33
ATOM     33  C   UNL     1      -1.426  10.234  17.799  0.00  0.00    +0.000 C 
BRANCH  33  35
ATOM     34  C   UNL     1      -3.399  10.187  16.246  0.00  0.00    +0.000 C 
ATOM     35  C   UNL     1      -2.881   9.810  17.622  0.00  0.00    +0.000 C 
ENDBRANCH  33  35
ENDBRANCH  32  33
ENDBRANCH  31  32
ENDBRANCH  30  31
ENDBRANCH  29  30
ENDBRANCH  28  29
ENDBRANCH  27  28
ENDBRANCH  26  27
ENDBRANCH  25  26
ENDBRANCH  23  25
ENDBRANCH  22  23
ENDBRANCH  21  22
ENDBRANCH   1  21
TORSDOF 22
ENDMDL
MODEL 7
REMARK VINA RESULT:      -5.7      4.809      7.918
REMARK  Name = 
REMARK  23 active torsions:
REMARK  status: ('A' for Active; 'I' for Inactive)
REMARK    1  A    between atoms: C_1  and  C_2
REMARK    2  A    between atoms: C_2  and  C_3
REMARK    3  A    between atoms: C_3  and  C_4
REMARK    4  A    between atoms: C_4  and  C_5
REMARK    5  A    between atoms: C_5  and  C_6
REMARK    6  A    between atoms: C_6  and  C_7
REMARK    7  A    between atoms: C_7  and  C_8
REMARK    8  A    between atoms: C_8  and  C_9
REMARK    9  A    between atoms: C_9  and  C_10
REMARK   10  A    between atoms: C_10  and  C_11
REMARK   11  A    between atoms: C_11  and  C_12
REMARK   12  A    between atoms: C_12  and  O_14
REMARK   13  A    between atoms: O_14  and  C_15
REMARK   14  A    between atoms: C_15  and  C_16
REMARK   15  A    between atoms: C_16  and  O_17
REMARK   16  A    between atoms: C_16  and  C_18
REMARK   17  A    between atoms: C_18  and  O_19
REMARK   18  A    between atoms: O_19  and  C_20
REMARK   19  A    between atoms: C_22  and  C_23
REMARK   20  A    between atoms: C_23  and  O_24
REMARK   21  A    between atoms: C_25  and  O_26
REMARK   22  A    between atoms: C_27  and  O_28
REMARK   23  A    between atoms: C_29  and  O_30
REMARK                            x       y       z     vdW  Elec       q    Type
REMARK                         _______ _______ _______ _____ _____    ______ ____
ROOT
ATOM      1  C   UNL     1       2.302   2.271  17.730  0.00  0.00    +0.000 C 
ENDROOT
BRANCH   1   2
ATOM      2  O   UNL     1       1.639   3.536  17.536  0.00  0.00    +0.000 OA
ATOM      3  H   UNL     1       1.863   4.121  18.281  0.00  0.00    +0.000 HD
ENDBRANCH   1   2
BRANCH   1   4
ATOM      4  C   UNL     1       3.780   2.499  17.421  0.00  0.00    +0.000 C 
BRANCH   4   5
ATOM      5  O   UNL     1       4.437   3.222  18.455  0.00  0.00    +0.000 OA
BRANCH   5   6
ATOM      6  C   UNL     1       5.065   4.396  17.938  0.00  0.00    +0.000 C 
ATOM      7  O   UNL     1       5.628   4.117  16.654  0.00  0.00    +0.000 OA
ATOM      8  C   UNL     1       6.191   5.286  16.048  0.00  0.00    +0.000 C 
ATOM      9  C   UNL     1       7.368   5.792  16.883  0.00  0.00    +0.000 C 
ATOM     10  C   UNL     1       6.911   6.050  18.326  0.00  0.00    +0.000 C 
ATOM     11  C   UNL     1       6.159   4.851  18.925  0.00  0.00    +0.000 C 
BRANCH  11  12
ATOM     12  O   UNL     1       5.601   5.210  20.202  0.00  0.00    +0.000 OA
ATOM     13  H   UNL     1       6.257   5.029  20.897  0.00  0.00    +0.000 HD
ENDBRANCH  11  12
BRANCH  10  14
ATOM     14  O   UNL     1       8.051   6.418  19.119  0.00  0.00    +0.000 OA
ATOM     15  H   UNL     1       7.979   7.366  19.332  0.00  0.00    +0.000 HD
ENDBRANCH  10  14
BRANCH   9  16
ATOM     16  O   UNL     1       7.854   7.010  16.311  0.00  0.00    +0.000 OA
ATOM     17  H   UNL     1       8.550   7.359  16.900  0.00  0.00    +0.000 HD
ENDBRANCH   9  16
BRANCH   8  18
ATOM     18  C   UNL     1       6.601   4.937  14.614  0.00  0.00    +0.000 C 
BRANCH  18  19
ATOM     19  O   UNL     1       7.858   5.518  14.276  0.00  0.00    +0.000 OA
ATOM     20  H   UNL     1       8.443   5.365  15.049  0.00  0.00    +0.000 HD
ENDBRANCH  18  19
ENDBRANCH   8  18
ENDBRANCH   5   6
ENDBRANCH   4   5
ENDBRANCH   1   4
BRANCH   1  21
ATOM     21  C   UNL     1       2.094   1.667  19.132  0.00  0.00    +0.000 C 
BRANCH  21  22
ATOM     22  O   UNL     1       1.722   2.728  20.033  0.00  0.00    +0.000 OA
BRANCH  22  23
ATOM     23  C   UNL     1       2.549   2.983  21.085  0.00  0.00    +0.000 C 
ATOM     24  O   UNL     1       3.412   2.241  21.528  0.00  0.00    +0.000 OA
BRANCH  23  25
ATOM     25  C   UNL     1       2.361   4.411  21.508  0.00  0.00    +0.000 C 
BRANCH  25  26
ATOM     26  C   UNL     1       1.344   5.092  20.597  0.00  0.00    +0.000 C 
BRANCH  26  27
ATOM     27  C   UNL     1       1.631   6.585  20.489  0.00  0.00    +0.000 C 
BRANCH  27  28
ATOM     28  C   UNL     1       2.775   6.863  19.518  0.00  0.00    +0.000 C 
BRANCH  28  29
ATOM     29  C   UNL     1       2.231   7.181  18.129  0.00  0.00    +0.000 C 
BRANCH  29  30
ATOM     30  C   UNL     1       2.208   8.684  17.877  0.00  0.00    +0.000 C 
BRANCH  30  31
ATOM     31  C   UNL     1       1.172   9.368  18.760  0.00  0.00    +0.000 C 
BRANCH  31  32
ATOM     32  C   UNL     1       0.099  10.058  17.920  0.00  0.00    +0.000 C 
BRANCH  32  33
ATOM     33  C   UNL     1      -0.915  10.771  18.813  0.00  0.00    +0.000 C 
BRANCH  33  35
ATOM     34  C   UNL     1      -2.842   9.723  17.590  0.00  0.00    +0.000 C 
ATOM     35  C   UNL     1      -2.225  11.023  18.073  0.00  0.00    +0.000 C 
ENDBRANCH  33  35
ENDBRANCH  32  33
ENDBRANCH  31  32
ENDBRANCH  30  31
ENDBRANCH  29  30
ENDBRANCH  28  29
ENDBRANCH  27  28
ENDBRANCH  26  27
ENDBRANCH  25  26
ENDBRANCH  23  25
ENDBRANCH  22  23
ENDBRANCH  21  22
ENDBRANCH   1  21
TORSDOF 22
ENDMDL
MODEL 8
REMARK VINA RESULT:      -5.6      5.349      8.256
REMARK  Name = 
REMARK  23 active torsions:
REMARK  status: ('A' for Active; 'I' for Inactive)
REMARK    1  A    between atoms: C_1  and  C_2
REMARK    2  A    between atoms: C_2  and  C_3
REMARK    3  A    between atoms: C_3  and  C_4
REMARK    4  A    between atoms: C_4  and  C_5
REMARK    5  A    between atoms: C_5  and  C_6
REMARK    6  A    between atoms: C_6  and  C_7
REMARK    7  A    between atoms: C_7  and  C_8
REMARK    8  A    between atoms: C_8  and  C_9
REMARK    9  A    between atoms: C_9  and  C_10
REMARK   10  A    between atoms: C_10  and  C_11
REMARK   11  A    between atoms: C_11  and  C_12
REMARK   12  A    between atoms: C_12  and  O_14
REMARK   13  A    between atoms: O_14  and  C_15
REMARK   14  A    between atoms: C_15  and  C_16
REMARK   15  A    between atoms: C_16  and  O_17
REMARK   16  A    between atoms: C_16  and  C_18
REMARK   17  A    between atoms: C_18  and  O_19
REMARK   18  A    between atoms: O_19  and  C_20
REMARK   19  A    between atoms: C_22  and  C_23
REMARK   20  A    between atoms: C_23  and  O_24
REMARK   21  A    between atoms: C_25  and  O_26
REMARK   22  A    between atoms: C_27  and  O_28
REMARK   23  A    between atoms: C_29  and  O_30
REMARK                            x       y       z     vdW  Elec       q    Type
REMARK                         _______ _______ _______ _____ _____    ______ ____
ROOT
ATOM      1  C   UNL     1       2.512   2.522  18.466  0.00  0.00    +0.000 C 
ENDROOT
BRANCH   1   2
ATOM      2  O   UNL     1       3.187   1.345  17.979  0.00  0.00    +0.000 OA
ATOM      3  H   UNL     1       3.842   1.066  18.643  0.00  0.00    +0.000 HD
ENDBRANCH   1   2
BRANCH   1   4
ATOM      4  C   UNL     1       2.376   3.472  17.279  0.00  0.00    +0.000 C 
BRANCH   4   5
ATOM      5  O   UNL     1       2.678   4.817  17.632  0.00  0.00    +0.000 OA
BRANCH   5   6
ATOM      6  C   UNL     1       4.033   5.137  17.314  0.00  0.00    +0.000 C 
ATOM      7  O   UNL     1       4.488   4.302  16.247  0.00  0.00    +0.000 OA
ATOM      8  C   UNL     1       5.813   4.643  15.825  0.00  0.00    +0.000 C 
ATOM      9  C   UNL     1       6.805   4.392  16.961  0.00  0.00    +0.000 C 
ATOM     10  C   UNL     1       6.376   5.174  18.210  0.00  0.00    +0.000 C 
ATOM     11  C   UNL     1       4.901   4.936  18.572  0.00  0.00    +0.000 C 
BRANCH  11  12
ATOM     12  O   UNL     1       4.506   5.824  19.633  0.00  0.00    +0.000 OA
ATOM     13  H   UNL     1       3.997   5.323  20.294  0.00  0.00    +0.000 HD
ENDBRANCH  11  12
BRANCH  10  14
ATOM     14  O   UNL     1       7.255   4.841  19.296  0.00  0.00    +0.000 OA
ATOM     15  H   UNL     1       8.167   4.819  18.954  0.00  0.00    +0.000 HD
ENDBRANCH  10  14
BRANCH   9  16
ATOM     16  O   UNL     1       8.104   4.827  16.548  0.00  0.00    +0.000 OA
ATOM     17  H   UNL     1       8.759   4.424  17.151  0.00  0.00    +0.000 HD
ENDBRANCH   9  16
BRANCH   8  18
ATOM     18  C   UNL     1       6.146   3.829  14.570  0.00  0.00    +0.000 C 
BRANCH  18  19
ATOM     19  O   UNL     1       5.126   3.956  13.583  0.00  0.00    +0.000 OA
ATOM     20  H   UNL     1       4.317   4.233  14.063  0.00  0.00    +0.000 HD
ENDBRANCH  18  19
ENDBRANCH   8  18
ENDBRANCH   5   6
ENDBRANCH   4   5
ENDBRANCH   1   4
BRANCH   1  21
ATOM     21  C   UNL     1       1.151   2.229  19.128  0.00  0.00    +0.000 C 
BRANCH  21  22
ATOM     22  O   UNL     1       1.357   2.085  20.546  0.00  0.00    +0.000 OA
BRANCH  22  23
ATOM     23  C   UNL     1       1.583   3.217  21.270  0.00  0.00    +0.000 C 
ATOM     24  O   UNL     1       2.319   3.325  22.239  0.00  0.00    +0.000 OA
BRANCH  23  25
ATOM     25  C   UNL     1       0.922   4.372  20.576  0.00  0.00    +0.000 C 
BRANCH  25  26
ATOM     26  C   UNL     1       1.685   5.660  20.871  0.00  0.00    +0.000 C 
BRANCH  26  27
ATOM     27  C   UNL     1       0.896   6.875  20.399  0.00  0.00    +0.000 C 
BRANCH  27  28
ATOM     28  C   UNL     1       1.552   8.176  20.854  0.00  0.00    +0.000 C 
BRANCH  28  29
ATOM     29  C   UNL     1       0.528   9.306  20.892  0.00  0.00    +0.000 C 
BRANCH  29  30
ATOM     30  C   UNL     1       0.706  10.251  19.710  0.00  0.00    +0.000 C 
BRANCH  30  31
ATOM     31  C   UNL     1      -0.644  10.688  19.155  0.00  0.00    +0.000 C 
BRANCH  31  32
ATOM     32  C   UNL     1      -0.974   9.950  17.859  0.00  0.00    +0.000 C 
BRANCH  32  33
ATOM     33  C   UNL     1      -2.476   9.980  17.583  0.00  0.00    +0.000 C 
BRANCH  33  35
ATOM     34  C   UNL     1      -2.858  10.327  15.125  0.00  0.00    +0.000 C 
ATOM     35  C   UNL     1      -2.819  10.989  16.491  0.00  0.00    +0.000 C 
ENDBRANCH  33  35
ENDBRANCH  32  33
ENDBRANCH  31  32
ENDBRANCH  30  31
ENDBRANCH  29  30
ENDBRANCH  28  29
ENDBRANCH  27  28
ENDBRANCH  26  27
ENDBRANCH  25  26
ENDBRANCH  23  25
ENDBRANCH  22  23
ENDBRANCH  21  22
ENDBRANCH   1  21
TORSDOF 22
ENDMDL
MODEL 9
REMARK VINA RESULT:      -5.6      4.969      6.800
REMARK  Name = 
REMARK  23 active torsions:
REMARK  status: ('A' for Active; 'I' for Inactive)
REMARK    1  A    between atoms: C_1  and  C_2
REMARK    2  A    between atoms: C_2  and  C_3
REMARK    3  A    between atoms: C_3  and  C_4
REMARK    4  A    between atoms: C_4  and  C_5
REMARK    5  A    between atoms: C_5  and  C_6
REMARK    6  A    between atoms: C_6  and  C_7
REMARK    7  A    between atoms: C_7  and  C_8
REMARK    8  A    between atoms: C_8  and  C_9
REMARK    9  A    between atoms: C_9  and  C_10
REMARK   10  A    between atoms: C_10  and  C_11
REMARK   11  A    between atoms: C_11  and  C_12
REMARK   12  A    between atoms: C_12  and  O_14
REMARK   13  A    between atoms: O_14  and  C_15
REMARK   14  A    between atoms: C_15  and  C_16
REMARK   15  A    between atoms: C_16  and  O_17
REMARK   16  A    between atoms: C_16  and  C_18
REMARK   17  A    between atoms: C_18  and  O_19
REMARK   18  A    between atoms: O_19  and  C_20
REMARK   19  A    between atoms: C_22  and  C_23
REMARK   20  A    between atoms: C_23  and  O_24
REMARK   21  A    between atoms: C_25  and  O_26
REMARK   22  A    between atoms: C_27  and  O_28
REMARK   23  A    between atoms: C_29  and  O_30
REMARK                            x       y       z     vdW  Elec       q    Type
REMARK                         _______ _______ _______ _____ _____    ______ ____
ROOT
ATOM      1  C   UNL     1       7.543   5.149  18.888  0.00  0.00    +0.000 C 
ENDROOT
BRANCH   1   2
ATOM      2  O   UNL     1       8.002   6.491  19.149  0.00  0.00    +0.000 OA
ATOM      3  H   UNL     1       8.915   6.575  18.822  0.00  0.00    +0.000 HD
ENDBRANCH   1   2
BRANCH   1   4
ATOM      4  C   UNL     1       6.087   5.087  19.342  0.00  0.00    +0.000 C 
BRANCH   4   5
ATOM      5  O   UNL     1       5.615   3.749  19.444  0.00  0.00    +0.000 OA
BRANCH   5   6
ATOM      6  C   UNL     1       4.210   3.683  19.196  0.00  0.00    +0.000 C 
ATOM      7  O   UNL     1       3.536   3.202  20.361  0.00  0.00    +0.000 OA
ATOM      8  C   UNL     1       2.113   3.203  20.198  0.00  0.00    +0.000 C 
ATOM      9  C   UNL     1       1.713   2.226  19.092  0.00  0.00    +0.000 C 
ATOM     10  C   UNL     1       2.446   2.584  17.791  0.00  0.00    +0.000 C 
ATOM     11  C   UNL     1       3.960   2.746  17.997  0.00  0.00    +0.000 C 
BRANCH  11  12
ATOM     12  O   UNL     1       4.568   3.253  16.796  0.00  0.00    +0.000 OA
ATOM     13  H   UNL     1       4.717   2.516  16.179  0.00  0.00    +0.000 HD
ENDBRANCH  11  12
BRANCH  10  14
ATOM     14  O   UNL     1       2.143   1.593  16.796  0.00  0.00    +0.000 OA
ATOM     15  H   UNL     1       2.806   0.882  16.864  0.00  0.00    +0.000 HD
ENDBRANCH  10  14
BRANCH   9  16
ATOM     16  O   UNL     1       0.300   2.313  18.884  0.00  0.00    +0.000 OA
ATOM     17  H   UNL     1      -0.100   2.668  19.701  0.00  0.00    +0.000 HD
ENDBRANCH   9  16
BRANCH   8  18
ATOM     18  C   UNL     1       1.472   2.853  21.545  0.00  0.00    +0.000 C 
BRANCH  18  19
ATOM     19  O   UNL     1       2.244   3.352  22.634  0.00  0.00    +0.000 OA
ATOM     20  H   UNL     1       1.975   4.289  22.749  0.00  0.00    +0.000 HD
ENDBRANCH  18  19
ENDBRANCH   8  18
ENDBRANCH   5   6
ENDBRANCH   4   5
ENDBRANCH   1   4
BRANCH   1  21
ATOM     21  C   UNL     1       7.708   4.709  17.419  0.00  0.00    +0.000 C 
BRANCH  21  22
ATOM     22  O   UNL     1       7.288   5.794  16.571  0.00  0.00    +0.000 OA
BRANCH  22  23
ATOM     23  C   UNL     1       6.326   5.534  15.642  0.00  0.00    +0.000 C 
ATOM     24  O   UNL     1       6.190   4.501  15.005  0.00  0.00    +0.000 OA
BRANCH  23  25
ATOM     25  C   UNL     1       5.332   6.659  15.653  0.00  0.00    +0.000 C 
BRANCH  25  26
ATOM     26  C   UNL     1       4.349   6.472  16.804  0.00  0.00    +0.000 C 
BRANCH  26  27
ATOM     27  C   UNL     1       3.967   7.816  17.412  0.00  0.00    +0.000 C 
BRANCH  27  28
ATOM     28  C   UNL     1       2.464   7.909  17.658  0.00  0.00    +0.000 C 
BRANCH  28  29
ATOM     29  C   UNL     1       2.060   9.348  17.961  0.00  0.00    +0.000 C 
BRANCH  29  30
ATOM     30  C   UNL     1       0.643   9.418  18.519  0.00  0.00    +0.000 C 
BRANCH  30  31
ATOM     31  C   UNL     1       0.207  10.863  18.719  0.00  0.00    +0.000 C 
BRANCH  31  32
ATOM     32  C   UNL     1      -1.137  11.133  18.046  0.00  0.00    +0.000 C 
BRANCH  32  33
ATOM     33  C   UNL     1      -1.629   9.896  17.297  0.00  0.00    +0.000 C 
BRANCH  33  35
ATOM     34  C   UNL     1      -2.901  10.217  15.155  0.00  0.00    +0.000 C 
ATOM     35  C   UNL     1      -2.998  10.136  16.668  0.00  0.00    +0.000 C 
ENDBRANCH  33  35
ENDBRANCH  32  33
ENDBRANCH  31  32
ENDBRANCH  30  31
ENDBRANCH  29  30
ENDBRANCH  28  29
ENDBRANCH  27  28
ENDBRANCH  26  27
ENDBRANCH  25  26
ENDBRANCH  23  25
ENDBRANCH  22  23
ENDBRANCH  21  22
ENDBRANCH   1  21
TORSDOF 22
ENDMDL
