MODEL 1
REMARK VINA RESULT:      -9.3      0.000      0.000
REMARK  Name = 
REMARK  8 active torsions:
REMARK  status: ('A' for Active; 'I' for Inactive)
REMARK    1  A    between atoms: C_1  and  O_2
REMARK    2  A    between atoms: O_2  and  C_3
REMARK    3  A    between atoms: C_6  and  C_7
REMARK    4  A    between atoms: C_7  and  N_8
REMARK    5  A    between atoms: C_9  and  C_11
REMARK    6  A    between atoms: N_20  and  C_21
REMARK    7  A    between atoms: C_21  and  C_22
REMARK    8  A    between atoms: C_22  and  C_23
REMARK                            x       y       z     vdW  Elec       q    Type
REMARK                         _______ _______ _______ _____ _____    ______ ____
ROOT
ATOM      1  C   UNL     1       3.133   4.693  17.425  0.00  0.00    +0.000 C 
ATOM      2  C   UNL     1       2.422   4.215  18.653  0.00  0.00    +0.000 A 
ATOM      3  C   UNL     1       1.137   3.761  18.865  0.00  0.00    +0.000 A 
ATOM      4  C   UNL     1       0.779   3.375  20.165  0.00  0.00    +0.000 A 
ATOM      5  C   UNL     1       1.692   3.505  21.230  0.00  0.00    +0.000 A 
ATOM      6  C   UNL     1       3.025   3.837  20.980  0.00  0.00    +0.000 A 
ATOM      7  C   UNL     1       3.370   4.077  19.662  0.00  0.00    +0.000 A 
ATOM      8  C   UNL     1       4.685   3.932  18.983  0.00  0.00    +0.000 C 
ATOM      9  O   UNL     1       5.746   3.712  19.529  0.00  0.00    +0.000 OA
ATOM     10  N   UNL     1       4.424   4.022  17.624  0.00  0.00    +0.000 N 
ENDROOT
BRANCH   1  12
ATOM     11  N   UNL     1       2.316   7.019  17.867  0.00  0.00    +0.000 N 
ATOM     12  C   UNL     1       3.401   6.258  17.458  0.00  0.00    +0.000 C 
ATOM     13  O   UNL     1       4.479   6.755  17.124  0.00  0.00    +0.000 OA
ATOM     14  H   UNL     1       1.450   6.530  18.043  0.00  0.00    +0.000 HD
BRANCH  11  15
ATOM     15  C   UNL     1       2.254   8.451  18.019  0.00  0.00    +0.000 C 
BRANCH  15  19
ATOM     16  C   UNL     1       0.319   9.536  21.731  0.00  0.00    +0.000 A 
ATOM     17  C   UNL     1       1.049   8.356  21.617  0.00  0.00    +0.000 A 
ATOM     18  C   UNL     1       1.678   8.019  20.418  0.00  0.00    +0.000 A 
ATOM     19  C   UNL     1       1.579   8.857  19.303  0.00  0.00    +0.000 A 
ATOM     20  C   UNL     1       0.826  10.035  19.413  0.00  0.00    +0.000 A 
ATOM     21  C   UNL     1       0.204  10.380  20.624  0.00  0.00    +0.000 A 
BRANCH  16  23
ATOM     22  C   UNL     1      -1.153  10.828  23.071  0.00  0.00    +0.000 C 
ATOM     23  O   UNL     1      -0.267   9.724  22.952  0.00  0.00    +0.000 OA
ENDBRANCH  16  23
ENDBRANCH  15  19
ENDBRANCH  11  15
ENDBRANCH   1  12
BRANCH  10  24
ATOM     24  C   UNL     1       5.239   3.765  16.436  0.00  0.00    +0.000 C 
BRANCH  24  25
ATOM     25  C   UNL     1       6.394   4.717  16.166  0.00  0.00    +0.000 C 
BRANCH  25  26
ATOM     26  C   UNL     1       6.753   4.631  14.700  0.00  0.00    +0.000 A 
ATOM     27  C   UNL     1       6.056   3.793  13.833  0.00  0.00    +0.000 A 
ATOM     28  C   UNL     1       6.402   3.791  12.485  0.00  0.00    +0.000 A 
ATOM     29  C   UNL     1       7.423   4.621  12.035  0.00  0.00    +0.000 A 
ATOM     30  C   UNL     1       8.061   5.424  12.961  0.00  0.00    +0.000 A 
ATOM     31  N   UNL     1       7.755   5.441  14.276  0.00  0.00    +0.000 NA
ENDBRANCH  25  26
ENDBRANCH  24  25
ENDBRANCH  10  24
TORSDOF 7
ENDMDL
MODEL 2
REMARK VINA RESULT:      -8.8      0.855      1.282
REMARK  Name = 
REMARK  8 active torsions:
REMARK  status: ('A' for Active; 'I' for Inactive)
REMARK    1  A    between atoms: C_1  and  O_2
REMARK    2  A    between atoms: O_2  and  C_3
REMARK    3  A    between atoms: C_6  and  C_7
REMARK    4  A    between atoms: C_7  and  N_8
REMARK    5  A    between atoms: C_9  and  C_11
REMARK    6  A    between atoms: N_20  and  C_21
REMARK    7  A    between atoms: C_21  and  C_22
REMARK    8  A    between atoms: C_22  and  C_23
REMARK                            x       y       z     vdW  Elec       q    Type
REMARK                         _______ _______ _______ _____ _____    ______ ____
ROOT
ATOM      1  C   UNL     1       3.581   5.904  17.329  0.00  0.00    +0.000 C 
ATOM      2  C   UNL     1       2.802   5.054  18.285  0.00  0.00    +0.000 A 
ATOM      3  C   UNL     1       1.664   4.290  18.133  0.00  0.00    +0.000 A 
ATOM      4  C   UNL     1       1.183   3.594  19.251  0.00  0.00    +0.000 A 
ATOM      5  C   UNL     1       1.814   3.722  20.504  0.00  0.00    +0.000 A 
ATOM      6  C   UNL     1       3.036   4.387  20.613  0.00  0.00    +0.000 A 
ATOM      7  C   UNL     1       3.547   4.944  19.455  0.00  0.00    +0.000 A 
ATOM      8  C   UNL     1       4.957   5.232  19.081  0.00  0.00    +0.000 C 
ATOM      9  O   UNL     1       5.917   5.156  19.819  0.00  0.00    +0.000 OA
ATOM     10  N   UNL     1       4.942   5.516  17.724  0.00  0.00    +0.000 N 
ENDROOT
BRANCH   1  12
ATOM     11  N   UNL     1       2.108   7.897  17.694  0.00  0.00    +0.000 N 
ATOM     12  C   UNL     1       3.421   7.454  17.638  0.00  0.00    +0.000 C 
ATOM     13  O   UNL     1       4.388   8.205  17.790  0.00  0.00    +0.000 OA
ATOM     14  H   UNL     1       1.385   7.225  17.477  0.00  0.00    +0.000 HD
BRANCH  11  15
ATOM     15  C   UNL     1       1.641   9.231  17.974  0.00  0.00    +0.000 C 
BRANCH  15  19
ATOM     16  C   UNL     1      -0.079   9.649  21.919  0.00  0.00    +0.000 A 
ATOM     17  C   UNL     1      -0.427  10.515  20.886  0.00  0.00    +0.000 A 
ATOM     18  C   UNL     1       0.126  10.367  19.614  0.00  0.00    +0.000 A 
ATOM     19  C   UNL     1       1.049   9.349  19.353  0.00  0.00    +0.000 A 
ATOM     20  C   UNL     1       1.415   8.490  20.400  0.00  0.00    +0.000 A 
ATOM     21  C   UNL     1       0.848   8.632  21.677  0.00  0.00    +0.000 A 
BRANCH  16  23
ATOM     22  C   UNL     1      -1.439  11.122  23.188  0.00  0.00    +0.000 C 
ATOM     23  O   UNL     1      -0.673   9.928  23.118  0.00  0.00    +0.000 OA
ENDBRANCH  16  23
ENDBRANCH  15  19
ENDBRANCH  11  15
ENDBRANCH   1  12
BRANCH  10  24
ATOM     24  C   UNL     1       6.003   5.680  16.730  0.00  0.00    +0.000 C 
BRANCH  24  25
ATOM     25  C   UNL     1       6.772   4.432  16.323  0.00  0.00    +0.000 C 
BRANCH  25  26
ATOM     26  C   UNL     1       6.907   4.423  14.817  0.00  0.00    +0.000 A 
ATOM     27  C   UNL     1       6.108   3.602  14.025  0.00  0.00    +0.000 A 
ATOM     28  C   UNL     1       6.245   3.670  12.642  0.00  0.00    +0.000 A 
ATOM     29  C   UNL     1       7.165   4.551  12.084  0.00  0.00    +0.000 A 
ATOM     30  C   UNL     1       7.917   5.333  12.942  0.00  0.00    +0.000 A 
ATOM     31  N   UNL     1       7.812   5.282  14.288  0.00  0.00    +0.000 NA
ENDBRANCH  25  26
ENDBRANCH  24  25
ENDBRANCH  10  24
TORSDOF 7
ENDMDL
MODEL 3
REMARK VINA RESULT:      -8.8      0.753      1.363
REMARK  Name = 
REMARK  8 active torsions:
REMARK  status: ('A' for Active; 'I' for Inactive)
REMARK    1  A    between atoms: C_1  and  O_2
REMARK    2  A    between atoms: O_2  and  C_3
REMARK    3  A    between atoms: C_6  and  C_7
REMARK    4  A    between atoms: C_7  and  N_8
REMARK    5  A    between atoms: C_9  and  C_11
REMARK    6  A    between atoms: N_20  and  C_21
REMARK    7  A    between atoms: C_21  and  C_22
REMARK    8  A    between atoms: C_22  and  C_23
REMARK                            x       y       z     vdW  Elec       q    Type
REMARK                         _______ _______ _______ _____ _____    ______ ____
ROOT
ATOM      1  C   UNL     1       3.403   5.099  17.462  0.00  0.00    +0.000 C 
ATOM      2  C   UNL     1       2.584   4.527  18.578  0.00  0.00    +0.000 A 
ATOM      3  C   UNL     1       1.353   3.905  18.601  0.00  0.00    +0.000 A 
ATOM      4  C   UNL     1       0.857   3.471  19.839  0.00  0.00    +0.000 A 
ATOM      5  C   UNL     1       1.572   3.721  21.027  0.00  0.00    +0.000 A 
ATOM      6  C   UNL     1       2.871   4.228  20.975  0.00  0.00    +0.000 A 
ATOM      7  C   UNL     1       3.378   4.515  19.720  0.00  0.00    +0.000 A 
ATOM      8  C   UNL     1       4.788   4.549  19.249  0.00  0.00    +0.000 C 
ATOM      9  O   UNL     1       5.773   4.471  19.953  0.00  0.00    +0.000 OA
ATOM     10  N   UNL     1       4.727   4.606  17.866  0.00  0.00    +0.000 N 
ENDROOT
BRANCH   1  12
ATOM     11  N   UNL     1       2.317   7.283  18.030  0.00  0.00    +0.000 N 
ATOM     12  C   UNL     1       3.453   6.685  17.507  0.00  0.00    +0.000 C 
ATOM     13  O   UNL     1       4.416   7.333  17.087  0.00  0.00    +0.000 OA
ATOM     14  H   UNL     1       1.547   6.675  18.274  0.00  0.00    +0.000 HD
BRANCH  11  15
ATOM     15  C   UNL     1       2.070   8.690  18.221  0.00  0.00    +0.000 C 
BRANCH  15  19
ATOM     16  C   UNL     1      -0.144   9.561  21.832  0.00  0.00    +0.000 A 
ATOM     17  C   UNL     1      -0.307  10.330  20.682  0.00  0.00    +0.000 A 
ATOM     18  C   UNL     1       0.404  10.036  19.520  0.00  0.00    +0.000 A 
ATOM     19  C   UNL     1       1.304   8.966  19.488  0.00  0.00    +0.000 A 
ATOM     20  C   UNL     1       1.484   8.205  20.652  0.00  0.00    +0.000 A 
ATOM     21  C   UNL     1       0.758   8.493  21.819  0.00  0.00    +0.000 A 
BRANCH  16  23
ATOM     22  C   UNL     1      -1.193  11.363  22.963  0.00  0.00    +0.000 C 
ATOM     23  O   UNL     1      -0.880   9.979  22.905  0.00  0.00    +0.000 OA
ENDBRANCH  16  23
ENDBRANCH  15  19
ENDBRANCH  11  15
ENDBRANCH   1  12
BRANCH  10  24
ATOM     24  C   UNL     1       5.739   4.463  16.819  0.00  0.00    +0.000 C 
BRANCH  24  25
ATOM     25  C   UNL     1       5.425   3.512  15.674  0.00  0.00    +0.000 C 
BRANCH  25  26
ATOM     26  C   UNL     1       6.154   3.992  14.440  0.00  0.00    +0.000 A 
ATOM     27  C   UNL     1       7.144   4.969  14.518  0.00  0.00    +0.000 A 
ATOM     28  C   UNL     1       7.812   5.338  13.354  0.00  0.00    +0.000 A 
ATOM     29  C   UNL     1       7.484   4.726  12.149  0.00  0.00    +0.000 A 
ATOM     30  C   UNL     1       6.492   3.763  12.159  0.00  0.00    +0.000 A 
ATOM     31  N   UNL     1       5.820   3.391  13.270  0.00  0.00    +0.000 NA
ENDBRANCH  25  26
ENDBRANCH  24  25
ENDBRANCH  10  24
TORSDOF 7
ENDMDL
MODEL 4
REMARK VINA RESULT:      -8.5      1.728      2.630
REMARK  Name = 
REMARK  8 active torsions:
REMARK  status: ('A' for Active; 'I' for Inactive)
REMARK    1  A    between atoms: C_1  and  O_2
REMARK    2  A    between atoms: O_2  and  C_3
REMARK    3  A    between atoms: C_6  and  C_7
REMARK    4  A    between atoms: C_7  and  N_8
REMARK    5  A    between atoms: C_9  and  C_11
REMARK    6  A    between atoms: N_20  and  C_21
REMARK    7  A    between atoms: C_21  and  C_22
REMARK    8  A    between atoms: C_22  and  C_23
REMARK                            x       y       z     vdW  Elec       q    Type
REMARK                         _______ _______ _______ _____ _____    ______ ____
ROOT
ATOM      1  C   UNL     1       3.246   4.975  17.481  0.00  0.00    +0.000 C 
ATOM      2  C   UNL     1       2.414   4.317  18.539  0.00  0.00    +0.000 A 
ATOM      3  C   UNL     1       1.150   3.764  18.515  0.00  0.00    +0.000 A 
ATOM      4  C   UNL     1       0.650   3.211  19.704  0.00  0.00    +0.000 A 
ATOM      5  C   UNL     1       1.398   3.275  20.896  0.00  0.00    +0.000 A 
ATOM      6  C   UNL     1       2.723   3.713  20.875  0.00  0.00    +0.000 A 
ATOM      7  C   UNL     1       3.224   4.123  19.653  0.00  0.00    +0.000 A 
ATOM      8  C   UNL     1       4.626   4.137  19.157  0.00  0.00    +0.000 C 
ATOM      9  O   UNL     1       5.617   3.921  19.823  0.00  0.00    +0.000 OA
ATOM     10  N   UNL     1       4.546   4.365  17.792  0.00  0.00    +0.000 N 
ENDROOT
BRANCH   1  12
ATOM     11  N   UNL     1       2.182   7.218  17.811  0.00  0.00    +0.000 N 
ATOM     12  C   UNL     1       3.387   6.539  17.716  0.00  0.00    +0.000 C 
ATOM     13  O   UNL     1       4.481   7.106  17.784  0.00  0.00    +0.000 OA
ATOM     14  H   UNL     1       1.338   6.682  17.663  0.00  0.00    +0.000 HD
BRANCH  11  15
ATOM     15  C   UNL     1       1.980   8.627  18.042  0.00  0.00    +0.000 C 
BRANCH  15  19
ATOM     16  C   UNL     1       0.384   9.503  21.963  0.00  0.00    +0.000 A 
ATOM     17  C   UNL     1       0.180  10.369  20.892  0.00  0.00    +0.000 A 
ATOM     18  C   UNL     1       0.690  10.073  19.628  0.00  0.00    +0.000 A 
ATOM     19  C   UNL     1       1.427   8.904  19.414  0.00  0.00    +0.000 A 
ATOM     20  C   UNL     1       1.649   8.043  20.499  0.00  0.00    +0.000 A 
ATOM     21  C   UNL     1       1.124   8.335  21.768  0.00  0.00    +0.000 A 
BRANCH  16  23
ATOM     22  C   UNL     1      -1.168  10.916  23.072  0.00  0.00    +0.000 C 
ATOM     23  O   UNL     1      -0.146   9.932  23.149  0.00  0.00    +0.000 OA
ENDBRANCH  16  23
ENDBRANCH  15  19
ENDBRANCH  11  15
ENDBRANCH   1  12
BRANCH  10  24
ATOM     24  C   UNL     1       5.531   4.296  16.712  0.00  0.00    +0.000 C 
BRANCH  24  25
ATOM     25  C   UNL     1       6.999   4.272  17.111  0.00  0.00    +0.000 C 
BRANCH  25  26
ATOM     26  C   UNL     1       7.408   5.670  17.513  0.00  0.00    +0.000 A 
ATOM     27  C   UNL     1       7.904   5.941  18.786  0.00  0.00    +0.000 A 
ATOM     28  C   UNL     1       8.308   7.239  19.084  0.00  0.00    +0.000 A 
ATOM     29  C   UNL     1       8.212   8.229  18.112  0.00  0.00    +0.000 A 
ATOM     30  C   UNL     1       7.712   7.876  16.873  0.00  0.00    +0.000 A 
ATOM     31  N   UNL     1       7.304   6.627  16.558  0.00  0.00    +0.000 NA
ENDBRANCH  25  26
ENDBRANCH  24  25
ENDBRANCH  10  24
TORSDOF 7
ENDMDL
MODEL 5
REMARK VINA RESULT:      -8.5      2.416      3.060
REMARK  Name = 
REMARK  8 active torsions:
REMARK  status: ('A' for Active; 'I' for Inactive)
REMARK    1  A    between atoms: C_1  and  O_2
REMARK    2  A    between atoms: O_2  and  C_3
REMARK    3  A    between atoms: C_6  and  C_7
REMARK    4  A    between atoms: C_7  and  N_8
REMARK    5  A    between atoms: C_9  and  C_11
REMARK    6  A    between atoms: N_20  and  C_21
REMARK    7  A    between atoms: C_21  and  C_22
REMARK    8  A    between atoms: C_22  and  C_23
REMARK                            x       y       z     vdW  Elec       q    Type
REMARK                         _______ _______ _______ _____ _____    ______ ____
ROOT
ATOM      1  C   UNL     1       2.545   6.224  18.173  0.00  0.00    +0.000 C 
ATOM      2  C   UNL     1       2.197   4.826  18.586  0.00  0.00    +0.000 A 
ATOM      3  C   UNL     1       1.271   3.921  18.112  0.00  0.00    +0.000 A 
ATOM      4  C   UNL     1       1.200   2.665  18.730  0.00  0.00    +0.000 A 
ATOM      5  C   UNL     1       2.013   2.363  19.840  0.00  0.00    +0.000 A 
ATOM      6  C   UNL     1       3.035   3.233  20.222  0.00  0.00    +0.000 A 
ATOM      7  C   UNL     1       3.160   4.404  19.497  0.00  0.00    +0.000 A 
ATOM      8  C   UNL     1       4.358   5.254  19.262  0.00  0.00    +0.000 C 
ATOM      9  O   UNL     1       5.433   5.133  19.813  0.00  0.00    +0.000 OA
ATOM     10  N   UNL     1       4.010   6.134  18.250  0.00  0.00    +0.000 N 
ENDROOT
BRANCH   1  12
ATOM     11  N   UNL     1       1.823   8.558  18.721  0.00  0.00    +0.000 N 
ATOM     12  C   UNL     1       2.078   7.299  19.243  0.00  0.00    +0.000 C 
ATOM     13  O   UNL     1       1.975   7.040  20.445  0.00  0.00    +0.000 OA
ATOM     14  H   UNL     1       2.011   8.696  17.737  0.00  0.00    +0.000 HD
BRANCH  11  15
ATOM     15  C   UNL     1       1.367   9.729  19.428  0.00  0.00    +0.000 C 
BRANCH  15  19
ATOM     16  C   UNL     1      -2.431  11.108  17.887  0.00  0.00    +0.000 A 
ATOM     17  C   UNL     1      -1.694  10.131  17.222  0.00  0.00    +0.000 A 
ATOM     18  C   UNL     1      -0.475   9.685  17.731  0.00  0.00    +0.000 A 
ATOM     19  C   UNL     1       0.038  10.219  18.918  0.00  0.00    +0.000 A 
ATOM     20  C   UNL     1      -0.694  11.218  19.577  0.00  0.00    +0.000 A 
ATOM     21  C   UNL     1      -1.928  11.656  19.070  0.00  0.00    +0.000 A 
BRANCH  16  23
ATOM     22  C   UNL     1      -3.882  10.821  16.032  0.00  0.00    +0.000 C 
ATOM     23  O   UNL     1      -3.590  11.470  17.261  0.00  0.00    +0.000 OA
ENDBRANCH  16  23
ENDBRANCH  15  19
ENDBRANCH  11  15
ENDBRANCH   1  12
BRANCH  10  24
ATOM     24  C   UNL     1       4.785   7.072  17.437  0.00  0.00    +0.000 C 
BRANCH  24  25
ATOM     25  C   UNL     1       6.230   6.703  17.138  0.00  0.00    +0.000 C 
BRANCH  25  26
ATOM     26  C   UNL     1       6.247   5.734  15.978  0.00  0.00    +0.000 A 
ATOM     27  C   UNL     1       5.120   4.989  15.642  0.00  0.00    +0.000 A 
ATOM     28  C   UNL     1       5.182   4.147  14.535  0.00  0.00    +0.000 A 
ATOM     29  C   UNL     1       6.355   4.072  13.792  0.00  0.00    +0.000 A 
ATOM     30  C   UNL     1       7.427   4.848  14.192  0.00  0.00    +0.000 A 
ATOM     31  N   UNL     1       7.400   5.667  15.266  0.00  0.00    +0.000 NA
ENDBRANCH  25  26
ENDBRANCH  24  25
ENDBRANCH  10  24
TORSDOF 7
ENDMDL
MODEL 6
REMARK VINA RESULT:      -8.5      1.398      1.708
REMARK  Name = 
REMARK  8 active torsions:
REMARK  status: ('A' for Active; 'I' for Inactive)
REMARK    1  A    between atoms: C_1  and  O_2
REMARK    2  A    between atoms: O_2  and  C_3
REMARK    3  A    between atoms: C_6  and  C_7
REMARK    4  A    between atoms: C_7  and  N_8
REMARK    5  A    between atoms: C_9  and  C_11
REMARK    6  A    between atoms: N_20  and  C_21
REMARK    7  A    between atoms: C_21  and  C_22
REMARK    8  A    between atoms: C_22  and  C_23
REMARK                            x       y       z     vdW  Elec       q    Type
REMARK                         _______ _______ _______ _____ _____    ______ ____
ROOT
ATOM      1  C   UNL     1       2.722   5.003  17.829  0.00  0.00    +0.000 C 
ATOM      2  C   UNL     1       2.246   4.201  19.001  0.00  0.00    +0.000 A 
ATOM      3  C   UNL     1       1.020   3.651  19.314  0.00  0.00    +0.000 A 
ATOM      4  C   UNL     1       0.905   2.936  20.515  0.00  0.00    +0.000 A 
ATOM      5  C   UNL     1       1.998   2.835  21.399  0.00  0.00    +0.000 A 
ATOM      6  C   UNL     1       3.263   3.278  21.009  0.00  0.00    +0.000 A 
ATOM      7  C   UNL     1       3.362   3.856  19.757  0.00  0.00    +0.000 A 
ATOM      8  C   UNL     1       4.530   3.944  18.841  0.00  0.00    +0.000 C 
ATOM      9  O   UNL     1       5.673   3.640  19.116  0.00  0.00    +0.000 OA
ATOM     10  N   UNL     1       4.027   4.360  17.619  0.00  0.00    +0.000 N 
ENDROOT
BRANCH   1  12
ATOM     11  N   UNL     1       2.248   6.987  19.281  0.00  0.00    +0.000 N 
ATOM     12  C   UNL     1       2.996   6.519  18.212  0.00  0.00    +0.000 C 
ATOM     13  O   UNL     1       3.792   7.228  17.591  0.00  0.00    +0.000 OA
ATOM     14  H   UNL     1       1.563   6.356  19.676  0.00  0.00    +0.000 HD
BRANCH  11  15
ATOM     15  C   UNL     1       2.286   8.300  19.875  0.00  0.00    +0.000 C 
BRANCH  15  19
ATOM     16  C   UNL     1      -1.231  10.634  18.931  0.00  0.00    +0.000 A 
ATOM     17  C   UNL     1      -0.888  10.346  20.250  0.00  0.00    +0.000 A 
ATOM     18  C   UNL     1       0.253   9.601  20.545  0.00  0.00    +0.000 A 
ATOM     19  C   UNL     1       1.072   9.119  19.520  0.00  0.00    +0.000 A 
ATOM     20  C   UNL     1       0.715   9.390  18.191  0.00  0.00    +0.000 A 
ATOM     21  C   UNL     1      -0.427  10.152  17.895  0.00  0.00    +0.000 A 
BRANCH  16  23
ATOM     22  C   UNL     1      -2.577  12.443  19.670  0.00  0.00    +0.000 C 
ATOM     23  O   UNL     1      -2.388  11.346  18.787  0.00  0.00    +0.000 OA
ENDBRANCH  16  23
ENDBRANCH  15  19
ENDBRANCH  11  15
ENDBRANCH   1  12
BRANCH  10  24
ATOM     24  C   UNL     1       4.610   4.445  16.279  0.00  0.00    +0.000 C 
BRANCH  24  25
ATOM     25  C   UNL     1       6.089   4.788  16.186  0.00  0.00    +0.000 C 
BRANCH  25  26
ATOM     26  C   UNL     1       6.530   4.617  14.750  0.00  0.00    +0.000 A 
ATOM     27  C   UNL     1       5.862   3.753  13.886  0.00  0.00    +0.000 A 
ATOM     28  C   UNL     1       6.285   3.672  12.562  0.00  0.00    +0.000 A 
ATOM     29  C   UNL     1       7.354   4.451  12.133  0.00  0.00    +0.000 A 
ATOM     30  C   UNL     1       7.959   5.286  13.054  0.00  0.00    +0.000 A 
ATOM     31  N   UNL     1       7.577   5.379  14.346  0.00  0.00    +0.000 NA
ENDBRANCH  25  26
ENDBRANCH  24  25
ENDBRANCH  10  24
TORSDOF 7
ENDMDL
MODEL 7
REMARK VINA RESULT:      -8.4      2.158      5.153
REMARK  Name = 
REMARK  8 active torsions:
REMARK  status: ('A' for Active; 'I' for Inactive)
REMARK    1  A    between atoms: C_1  and  O_2
REMARK    2  A    between atoms: O_2  and  C_3
REMARK    3  A    between atoms: C_6  and  C_7
REMARK    4  A    between atoms: C_7  and  N_8
REMARK    5  A    between atoms: C_9  and  C_11
REMARK    6  A    between atoms: N_20  and  C_21
REMARK    7  A    between atoms: C_21  and  C_22
REMARK    8  A    between atoms: C_22  and  C_23
REMARK                            x       y       z     vdW  Elec       q    Type
REMARK                         _______ _______ _______ _____ _____    ______ ____
ROOT
ATOM      1  C   UNL     1       4.086   4.583  18.309  0.00  0.00    +0.000 C 
ATOM      2  C   UNL     1       5.400   5.301  18.277  0.00  0.00    +0.000 A 
ATOM      3  C   UNL     1       6.294   5.645  19.269  0.00  0.00    +0.000 A 
ATOM      4  C   UNL     1       7.462   6.326  18.897  0.00  0.00    +0.000 A 
ATOM      5  C   UNL     1       7.682   6.695  17.556  0.00  0.00    +0.000 A 
ATOM      6  C   UNL     1       6.840   6.225  16.547  0.00  0.00    +0.000 A 
ATOM      7  C   UNL     1       5.773   5.440  16.943  0.00  0.00    +0.000 A 
ATOM      8  C   UNL     1       5.034   4.390  16.192  0.00  0.00    +0.000 C 
ATOM      9  O   UNL     1       5.157   4.144  15.010  0.00  0.00    +0.000 OA
ATOM     10  N   UNL     1       4.259   3.724  17.128  0.00  0.00    +0.000 N 
ENDROOT
BRANCH   1  12
ATOM     11  N   UNL     1       3.151   6.902  18.168  0.00  0.00    +0.000 N 
ATOM     12  C   UNL     1       2.865   5.554  18.015  0.00  0.00    +0.000 C 
ATOM     13  O   UNL     1       1.746   5.139  17.699  0.00  0.00    +0.000 OA
ATOM     14  H   UNL     1       4.073   7.141  18.507  0.00  0.00    +0.000 HD
BRANCH  11  15
ATOM     15  C   UNL     1       2.267   8.020  17.956  0.00  0.00    +0.000 C 
BRANCH  15  19
ATOM     16  C   UNL     1       0.858   9.645  21.707  0.00  0.00    +0.000 A 
ATOM     17  C   UNL     1       1.372   8.352  21.629  0.00  0.00    +0.000 A 
ATOM     18  C   UNL     1       1.832   7.840  20.416  0.00  0.00    +0.000 A 
ATOM     19  C   UNL     1       1.779   8.612  19.251  0.00  0.00    +0.000 A 
ATOM     20  C   UNL     1       1.242   9.906  19.327  0.00  0.00    +0.000 A 
ATOM     21  C   UNL     1       0.791  10.426  20.551  0.00  0.00    +0.000 A 
BRANCH  16  23
ATOM     22  C   UNL     1      -0.909  10.510  23.035  0.00  0.00    +0.000 C 
ATOM     23  O   UNL     1       0.416  10.005  22.950  0.00  0.00    +0.000 OA
ENDBRANCH  16  23
ENDBRANCH  15  19
ENDBRANCH  11  15
ENDBRANCH   1  12
BRANCH  10  24
ATOM     24  C   UNL     1       3.473   2.491  17.073  0.00  0.00    +0.000 C 
BRANCH  24  25
ATOM     25  C   UNL     1       3.606   1.530  18.245  0.00  0.00    +0.000 C 
BRANCH  25  26
ATOM     26  C   UNL     1       2.777   2.059  19.394  0.00  0.00    +0.000 A 
ATOM     27  C   UNL     1       3.356   2.365  20.622  0.00  0.00    +0.000 A 
ATOM     28  C   UNL     1       2.550   2.892  21.628  0.00  0.00    +0.000 A 
ATOM     29  C   UNL     1       1.197   3.103  21.385  0.00  0.00    +0.000 A 
ATOM     30  C   UNL     1       0.703   2.776  20.136  0.00  0.00    +0.000 A 
ATOM     31  N   UNL     1       1.458   2.254  19.145  0.00  0.00    +0.000 NA
ENDBRANCH  25  26
ENDBRANCH  24  25
ENDBRANCH  10  24
TORSDOF 7
ENDMDL
MODEL 8
REMARK VINA RESULT:      -8.4      2.154      5.197
REMARK  Name = 
REMARK  8 active torsions:
REMARK  status: ('A' for Active; 'I' for Inactive)
REMARK    1  A    between atoms: C_1  and  O_2
REMARK    2  A    between atoms: O_2  and  C_3
REMARK    3  A    between atoms: C_6  and  C_7
REMARK    4  A    between atoms: C_7  and  N_8
REMARK    5  A    between atoms: C_9  and  C_11
REMARK    6  A    between atoms: N_20  and  C_21
REMARK    7  A    between atoms: C_21  and  C_22
REMARK    8  A    between atoms: C_22  and  C_23
REMARK                            x       y       z     vdW  Elec       q    Type
REMARK                         _______ _______ _______ _____ _____    ______ ____
ROOT
ATOM      1  C   UNL     1       4.084   4.667  18.273  0.00  0.00    +0.000 C 
ATOM      2  C   UNL     1       5.421   5.341  18.248  0.00  0.00    +0.000 A 
ATOM      3  C   UNL     1       6.322   5.654  19.245  0.00  0.00    +0.000 A 
ATOM      4  C   UNL     1       7.514   6.296  18.880  0.00  0.00    +0.000 A 
ATOM      5  C   UNL     1       7.752   6.661  17.540  0.00  0.00    +0.000 A 
ATOM      6  C   UNL     1       6.899   6.221  16.527  0.00  0.00    +0.000 A 
ATOM      7  C   UNL     1       5.804   5.471  16.917  0.00  0.00    +0.000 A 
ATOM      8  C   UNL     1       5.034   4.448  16.160  0.00  0.00    +0.000 C 
ATOM      9  O   UNL     1       5.154   4.200  14.978  0.00  0.00    +0.000 OA
ATOM     10  N   UNL     1       4.233   3.806  17.091  0.00  0.00    +0.000 N 
ENDROOT
BRANCH   1  12
ATOM     11  N   UNL     1       3.235   7.017  18.109  0.00  0.00    +0.000 N 
ATOM     12  C   UNL     1       2.897   5.679  17.976  0.00  0.00    +0.000 C 
ATOM     13  O   UNL     1       1.761   5.302  17.675  0.00  0.00    +0.000 OA
ATOM     14  H   UNL     1       4.167   7.227  18.438  0.00  0.00    +0.000 HD
BRANCH  11  15
ATOM     15  C   UNL     1       2.390   8.164  17.889  0.00  0.00    +0.000 C 
BRANCH  15  19
ATOM     16  C   UNL     1       0.671   9.727  21.537  0.00  0.00    +0.000 A 
ATOM     17  C   UNL     1       0.693  10.484  20.367  0.00  0.00    +0.000 A 
ATOM     18  C   UNL     1       1.240   9.968  19.193  0.00  0.00    +0.000 A 
ATOM     19  C   UNL     1       1.789   8.681  19.169  0.00  0.00    +0.000 A 
ATOM     20  C   UNL     1       1.786   7.928  20.353  0.00  0.00    +0.000 A 
ATOM     21  C   UNL     1       1.222   8.443  21.531  0.00  0.00    +0.000 A 
BRANCH  16  23
ATOM     22  C   UNL     1      -0.733  11.460  22.346  0.00  0.00    +0.000 C 
ATOM     23  O   UNL     1       0.132  10.367  22.617  0.00  0.00    +0.000 OA
ENDBRANCH  16  23
ENDBRANCH  15  19
ENDBRANCH  11  15
ENDBRANCH   1  12
BRANCH  10  24
ATOM     24  C   UNL     1       3.408   2.600  17.030  0.00  0.00    +0.000 C 
BRANCH  24  25
ATOM     25  C   UNL     1       3.523   1.620  18.188  0.00  0.00    +0.000 C 
BRANCH  25  26
ATOM     26  C   UNL     1       2.715   2.154  19.349  0.00  0.00    +0.000 A 
ATOM     27  C   UNL     1       1.356   2.428  19.218  0.00  0.00    +0.000 A 
ATOM     28  C   UNL     1       0.654   2.875  20.335  0.00  0.00    +0.000 A 
ATOM     29  C   UNL     1       1.318   3.033  21.547  0.00  0.00    +0.000 A 
ATOM     30  C   UNL     1       2.667   2.735  21.591  0.00  0.00    +0.000 A 
ATOM     31  N   UNL     1       3.376   2.309  20.523  0.00  0.00    +0.000 NA
ENDBRANCH  25  26
ENDBRANCH  24  25
ENDBRANCH  10  24
TORSDOF 7
ENDMDL
MODEL 9
REMARK VINA RESULT:      -8.4      1.796      2.132
REMARK  Name = 
REMARK  8 active torsions:
REMARK  status: ('A' for Active; 'I' for Inactive)
REMARK    1  A    between atoms: C_1  and  O_2
REMARK    2  A    between atoms: O_2  and  C_3
REMARK    3  A    between atoms: C_6  and  C_7
REMARK    4  A    between atoms: C_7  and  N_8
REMARK    5  A    between atoms: C_9  and  C_11
REMARK    6  A    between atoms: N_20  and  C_21
REMARK    7  A    between atoms: C_21  and  C_22
REMARK    8  A    between atoms: C_22  and  C_23
REMARK                            x       y       z     vdW  Elec       q    Type
REMARK                         _______ _______ _______ _____ _____    ______ ____
ROOT
ATOM      1  C   UNL     1       2.856   5.548  17.699  0.00  0.00    +0.000 C 
ATOM      2  C   UNL     1       2.347   4.343  18.429  0.00  0.00    +0.000 A 
ATOM      3  C   UNL     1       1.244   3.537  18.234  0.00  0.00    +0.000 A 
ATOM      4  C   UNL     1       1.052   2.460  19.111  0.00  0.00    +0.000 A 
ATOM      5  C   UNL     1       1.930   2.248  20.192  0.00  0.00    +0.000 A 
ATOM      6  C   UNL     1       3.110   2.985  20.297  0.00  0.00    +0.000 A 
ATOM      7  C   UNL     1       3.330   3.949  19.330  0.00  0.00    +0.000 A 
ATOM      8  C   UNL     1       4.610   4.513  18.825  0.00  0.00    +0.000 C 
ATOM      9  O   UNL     1       5.709   4.319  19.302  0.00  0.00    +0.000 OA
ATOM     10  N   UNL     1       4.288   5.222  17.678  0.00  0.00    +0.000 N 
ENDROOT
BRANCH   1  12
ATOM     11  N   UNL     1       2.673   8.044  17.796  0.00  0.00    +0.000 N 
ATOM     12  C   UNL     1       2.684   6.879  18.548  0.00  0.00    +0.000 C 
ATOM     13  O   UNL     1       2.594   6.877  19.778  0.00  0.00    +0.000 OA
ATOM     14  H   UNL     1       2.833   7.953  16.802  0.00  0.00    +0.000 HD
BRANCH  11  15
ATOM     15  C   UNL     1       2.513   9.396  18.269  0.00  0.00    +0.000 C 
BRANCH  15  19
ATOM     16  C   UNL     1      -1.655  10.461  18.703  0.00  0.00    +0.000 A 
ATOM     17  C   UNL     1      -1.182   9.860  17.540  0.00  0.00    +0.000 A 
ATOM     18  C   UNL     1       0.162   9.512  17.412  0.00  0.00    +0.000 A 
ATOM     19  C   UNL     1       1.065   9.768  18.449  0.00  0.00    +0.000 A 
ATOM     20  C   UNL     1       0.592  10.392  19.613  0.00  0.00    +0.000 A 
ATOM     21  C   UNL     1      -0.764  10.731  19.745  0.00  0.00    +0.000 A 
BRANCH  16  23
ATOM     22  C   UNL     1      -3.328  12.124  18.967  0.00  0.00    +0.000 C 
ATOM     23  O   UNL     1      -2.986  10.776  18.679  0.00  0.00    +0.000 OA
ENDBRANCH  16  23
ENDBRANCH  15  19
ENDBRANCH  11  15
ENDBRANCH   1  12
BRANCH  10  24
ATOM     24  C   UNL     1       5.101   5.831  16.624  0.00  0.00    +0.000 C 
BRANCH  24  25
ATOM     25  C   UNL     1       6.511   5.294  16.436  0.00  0.00    +0.000 C 
BRANCH  25  26
ATOM     26  C   UNL     1       6.674   4.869  14.994  0.00  0.00    +0.000 A 
ATOM     27  C   UNL     1       5.836   3.915  14.423  0.00  0.00    +0.000 A 
ATOM     28  C   UNL     1       6.004   3.599  13.078  0.00  0.00    +0.000 A 
ATOM     29  C   UNL     1       6.994   4.238  12.339  0.00  0.00    +0.000 A 
ATOM     30  C   UNL     1       7.780   5.175  12.982  0.00  0.00    +0.000 A 
ATOM     31  N   UNL     1       7.647   5.497  14.287  0.00  0.00    +0.000 NA
ENDBRANCH  25  26
ENDBRANCH  24  25
ENDBRANCH  10  24
TORSDOF 7
ENDMDL
