MODEL 1
REMARK VINA RESULT:      -8.2      0.000      0.000
REMARK  Name = 
REMARK  8 active torsions:
REMARK  status: ('A' for Active; 'I' for Inactive)
REMARK    1  A    between atoms: C_1  and  O_2
REMARK    2  A    between atoms: O_2  and  C_3
REMARK    3  A    between atoms: C_6  and  N_7
REMARK    4  A    between atoms: C_8  and  C_10
REMARK    5  A    between atoms: N_12  and  C_13
REMARK    6  A    between atoms: C_21  and  C_22
REMARK    7  A    between atoms: C_26  and  O_27
REMARK    8  A    between atoms: O_27  and  C_28
REMARK                            x       y       z     vdW  Elec       q    Type
REMARK                         _______ _______ _______ _____ _____    ______ ____
ROOT
ATOM      1  C   UNL     1       1.139   9.184  19.696  0.00  0.00    +0.000 A 
ATOM      2  N   UNL     1       1.397   8.975  21.004  0.00  0.00    +0.000 NA
ATOM      3  N   UNL     1       0.478   9.756  21.629  0.00  0.00    +0.000 N 
ATOM      4  C   UNL     1      -0.014   9.370  22.934  0.00  0.00    +0.000 C 
ATOM      5  C   UNL     1      -0.121  10.660  20.788  0.00  0.00    +0.000 A 
ATOM      6  C   UNL     1       0.060  10.104  19.540  0.00  0.00    +0.000 A 
ATOM      7  C   UNL     1      -0.697  10.437  18.311  0.00  0.00    +0.000 C 
ATOM      8  S   UNL     1      -2.205  11.450  18.589  0.00  0.00    +0.000 S 
ATOM      9  C   UNL     1      -1.941  12.215  20.195  0.00  0.00    +0.000 A 
ATOM     10  C   UNL     1      -2.782  13.288  20.527  0.00  0.00    +0.000 A 
ATOM     11  C   UNL     1      -2.637  13.975  21.742  0.00  0.00    +0.000 A 
ATOM     12  C   UNL     1      -1.628  13.607  22.631  0.00  0.00    +0.000 A 
ATOM     13  C   UNL     1      -1.410  14.358  23.915  0.00  0.00    +0.000 C 
ATOM     14  C   UNL     1      -0.795  12.518  22.306  0.00  0.00    +0.000 A 
ATOM     15  C   UNL     1      -0.973  11.791  21.122  0.00  0.00    +0.000 A 
ENDROOT
BRANCH   1  17
ATOM     16  N   UNL     1       2.357   7.258  18.928  0.00  0.00    +0.000 N 
ATOM     17  C   UNL     1       1.874   8.526  18.608  0.00  0.00    +0.000 C 
ATOM     18  O   UNL     1       2.033   9.091  17.531  0.00  0.00    +0.000 OA
ATOM     19  H   UNL     1       2.123   6.952  19.870  0.00  0.00    +0.000 HD
BRANCH  16  23
ATOM     20  C   UNL     1       4.711   4.596  16.595  0.00  0.00    +0.000 A 
ATOM     21  C   UNL     1       5.030   5.955  16.657  0.00  0.00    +0.000 A 
ATOM     22  C   UNL     1       4.266   6.844  17.415  0.00  0.00    +0.000 A 
ATOM     23  C   UNL     1       3.139   6.410  18.109  0.00  0.00    +0.000 A 
ATOM     24  C   UNL     1       2.779   5.063  17.992  0.00  0.00    +0.000 A 
ATOM     25  C   UNL     1       3.542   4.150  17.232  0.00  0.00    +0.000 A 
BRANCH  20  27
ATOM     26  C   UNL     1       6.117   4.227  14.726  0.00  0.00    +0.000 C 
ATOM     27  O   UNL     1       5.499   3.714  15.910  0.00  0.00    +0.000 OA
ENDBRANCH  20  27
BRANCH  25  28
ATOM     28  O   UNL     1       3.010   2.886  17.247  0.00  0.00    +0.000 OA
ATOM     29  C   UNL     1       3.343   2.011  18.316  0.00  0.00    +0.000 C 
ENDBRANCH  25  28
ENDBRANCH  16  23
ENDBRANCH   1  17
TORSDOF 4
ENDMDL
MODEL 2
REMARK VINA RESULT:      -8.2      0.943      1.896
REMARK  Name = 
REMARK  8 active torsions:
REMARK  status: ('A' for Active; 'I' for Inactive)
REMARK    1  A    between atoms: C_1  and  O_2
REMARK    2  A    between atoms: O_2  and  C_3
REMARK    3  A    between atoms: C_6  and  N_7
REMARK    4  A    between atoms: C_8  and  C_10
REMARK    5  A    between atoms: N_12  and  C_13
REMARK    6  A    between atoms: C_21  and  C_22
REMARK    7  A    between atoms: C_26  and  O_27
REMARK    8  A    between atoms: O_27  and  C_28
REMARK                            x       y       z     vdW  Elec       q    Type
REMARK                         _______ _______ _______ _____ _____    ______ ____
ROOT
ATOM      1  C   UNL     1       1.349   8.888  19.529  0.00  0.00    +0.000 A 
ATOM      2  N   UNL     1       1.542   8.676  20.847  0.00  0.00    +0.000 NA
ATOM      3  N   UNL     1       0.596   9.458  21.429  0.00  0.00    +0.000 N 
ATOM      4  C   UNL     1       0.040   9.070  22.708  0.00  0.00    +0.000 C 
ATOM      5  C   UNL     1       0.041  10.366  20.562  0.00  0.00    +0.000 A 
ATOM      6  C   UNL     1       0.280   9.812  19.323  0.00  0.00    +0.000 A 
ATOM      7  C   UNL     1      -0.415  10.150  18.059  0.00  0.00    +0.000 C 
ATOM      8  S   UNL     1      -1.932  11.166  18.267  0.00  0.00    +0.000 S 
ATOM      9  C   UNL     1      -1.743  11.927  19.885  0.00  0.00    +0.000 A 
ATOM     10  C   UNL     1      -2.596  13.002  20.179  0.00  0.00    +0.000 A 
ATOM     11  C   UNL     1      -2.509  13.686  21.401  0.00  0.00    +0.000 A 
ATOM     12  C   UNL     1      -1.545  13.313  22.337  0.00  0.00    +0.000 A 
ATOM     13  C   UNL     1      -1.388  14.061  23.631  0.00  0.00    +0.000 C 
ATOM     14  C   UNL     1      -0.700  12.223  22.050  0.00  0.00    +0.000 A 
ATOM     15  C   UNL     1      -0.823  11.498  20.857  0.00  0.00    +0.000 A 
ENDROOT
BRANCH   1  17
ATOM     16  N   UNL     1       2.650   6.988  18.840  0.00  0.00    +0.000 N 
ATOM     17  C   UNL     1       2.133   8.231  18.477  0.00  0.00    +0.000 C 
ATOM     18  O   UNL     1       2.301   8.775  17.391  0.00  0.00    +0.000 OA
ATOM     19  H   UNL     1       2.403   6.697  19.783  0.00  0.00    +0.000 HD
BRANCH  16  23
ATOM     20  C   UNL     1       5.167   4.596  16.387  0.00  0.00    +0.000 A 
ATOM     21  C   UNL     1       3.975   4.076  16.897  0.00  0.00    +0.000 A 
ATOM     22  C   UNL     1       3.137   4.847  17.707  0.00  0.00    +0.000 A 
ATOM     23  C   UNL     1       3.482   6.149  18.061  0.00  0.00    +0.000 A 
ATOM     24  C   UNL     1       4.708   6.646  17.608  0.00  0.00    +0.000 A 
ATOM     25  C   UNL     1       5.565   5.882  16.786  0.00  0.00    +0.000 A 
BRANCH  20  27
ATOM     26  C   UNL     1       5.812   4.173  14.148  0.00  0.00    +0.000 C 
ATOM     27  O   UNL     1       5.952   3.866  15.538  0.00  0.00    +0.000 OA
ENDBRANCH  20  27
BRANCH  25  28
ATOM     28  O   UNL     1       6.715   6.556  16.462  0.00  0.00    +0.000 OA
ATOM     29  C   UNL     1       7.436   7.221  17.489  0.00  0.00    +0.000 C 
ENDBRANCH  25  28
ENDBRANCH  16  23
ENDBRANCH   1  17
TORSDOF 4
ENDMDL
MODEL 3
REMARK VINA RESULT:      -8.0      1.198      1.677
REMARK  Name = 
REMARK  8 active torsions:
REMARK  status: ('A' for Active; 'I' for Inactive)
REMARK    1  A    between atoms: C_1  and  O_2
REMARK    2  A    between atoms: O_2  and  C_3
REMARK    3  A    between atoms: C_6  and  N_7
REMARK    4  A    between atoms: C_8  and  C_10
REMARK    5  A    between atoms: N_12  and  C_13
REMARK    6  A    between atoms: C_21  and  C_22
REMARK    7  A    between atoms: C_26  and  O_27
REMARK    8  A    between atoms: O_27  and  C_28
REMARK                            x       y       z     vdW  Elec       q    Type
REMARK                         _______ _______ _______ _____ _____    ______ ____
ROOT
ATOM      1  C   UNL     1       1.162   8.985  20.278  0.00  0.00    +0.000 A 
ATOM      2  N   UNL     1       1.312   8.850  21.612  0.00  0.00    +0.000 NA
ATOM      3  N   UNL     1       0.404   9.727  22.116  0.00  0.00    +0.000 N 
ATOM      4  C   UNL     1      -0.204   9.461  23.403  0.00  0.00    +0.000 C 
ATOM      5  C   UNL     1      -0.072  10.607  21.178  0.00  0.00    +0.000 A 
ATOM      6  C   UNL     1       0.159   9.958  19.984  0.00  0.00    +0.000 A 
ATOM      7  C   UNL     1      -0.485  10.254  18.683  0.00  0.00    +0.000 C 
ATOM      8  S   UNL     1      -1.938  11.374  18.784  0.00  0.00    +0.000 S 
ATOM      9  C   UNL     1      -1.737  12.228  20.353  0.00  0.00    +0.000 A 
ATOM     10  C   UNL     1      -2.526  13.372  20.553  0.00  0.00    +0.000 A 
ATOM     11  C   UNL     1      -2.422  14.129  21.730  0.00  0.00    +0.000 A 
ATOM     12  C   UNL     1      -1.506  13.760  22.714  0.00  0.00    +0.000 A 
ATOM     13  C   UNL     1      -1.330  14.581  23.960  0.00  0.00    +0.000 C 
ATOM     14  C   UNL     1      -0.726  12.602  22.521  0.00  0.00    +0.000 A 
ATOM     15  C   UNL     1      -0.868  11.809  21.375  0.00  0.00    +0.000 A 
ENDROOT
BRANCH   1  17
ATOM     16  N   UNL     1       2.237   6.914  19.699  0.00  0.00    +0.000 N 
ATOM     17  C   UNL     1       1.926   8.211  19.292  0.00  0.00    +0.000 C 
ATOM     18  O   UNL     1       2.250   8.712  18.221  0.00  0.00    +0.000 OA
ATOM     19  H   UNL     1       1.880   6.674  20.621  0.00  0.00    +0.000 HD
BRANCH  16  23
ATOM     20  C   UNL     1       4.663   4.156  17.559  0.00  0.00    +0.000 A 
ATOM     21  C   UNL     1       3.324   4.342  17.207  0.00  0.00    +0.000 A 
ATOM     22  C   UNL     1       2.511   5.241  17.901  0.00  0.00    +0.000 A 
ATOM     23  C   UNL     1       3.001   5.958  18.990  0.00  0.00    +0.000 A 
ATOM     24  C   UNL     1       4.322   5.722  19.386  0.00  0.00    +0.000 A 
ATOM     25  C   UNL     1       5.158   4.819  18.694  0.00  0.00    +0.000 A 
BRANCH  20  27
ATOM     26  C   UNL     1       5.966   3.863  15.603  0.00  0.00    +0.000 C 
ATOM     27  O   UNL     1       5.476   3.329  16.836  0.00  0.00    +0.000 OA
ENDBRANCH  20  27
BRANCH  25  28
ATOM     28  O   UNL     1       6.409   4.733  19.250  0.00  0.00    +0.000 OA
ATOM     29  C   UNL     1       7.447   5.560  18.742  0.00  0.00    +0.000 C 
ENDBRANCH  25  28
ENDBRANCH  16  23
ENDBRANCH   1  17
TORSDOF 4
ENDMDL
MODEL 4
REMARK VINA RESULT:      -7.8      2.243      3.198
REMARK  Name = 
REMARK  8 active torsions:
REMARK  status: ('A' for Active; 'I' for Inactive)
REMARK    1  A    between atoms: C_1  and  O_2
REMARK    2  A    between atoms: O_2  and  C_3
REMARK    3  A    between atoms: C_6  and  N_7
REMARK    4  A    between atoms: C_8  and  C_10
REMARK    5  A    between atoms: N_12  and  C_13
REMARK    6  A    between atoms: C_21  and  C_22
REMARK    7  A    between atoms: C_26  and  O_27
REMARK    8  A    between atoms: O_27  and  C_28
REMARK                            x       y       z     vdW  Elec       q    Type
REMARK                         _______ _______ _______ _____ _____    ______ ____
ROOT
ATOM      1  C   UNL     1       1.457   9.259  19.310  0.00  0.00    +0.000 A 
ATOM      2  N   UNL     1       1.632  10.359  18.549  0.00  0.00    +0.000 NA
ATOM      3  N   UNL     1       1.031  11.337  19.276  0.00  0.00    +0.000 N 
ATOM      4  C   UNL     1       1.512  12.698  19.172  0.00  0.00    +0.000 C 
ATOM      5  C   UNL     1       0.236  10.848  20.282  0.00  0.00    +0.000 A 
ATOM      6  C   UNL     1       0.737   9.583  20.499  0.00  0.00    +0.000 A 
ATOM      7  C   UNL     1       0.527   8.749  21.706  0.00  0.00    +0.000 C 
ATOM      8  S   UNL     1      -0.204   9.641  23.137  0.00  0.00    +0.000 S 
ATOM      9  C   UNL     1      -0.984  11.089  22.411  0.00  0.00    +0.000 A 
ATOM     10  C   UNL     1      -1.891  11.789  23.222  0.00  0.00    +0.000 A 
ATOM     11  C   UNL     1      -2.578  12.914  22.741  0.00  0.00    +0.000 A 
ATOM     12  C   UNL     1      -2.381  13.337  21.427  0.00  0.00    +0.000 A 
ATOM     13  C   UNL     1      -3.144  14.503  20.863  0.00  0.00    +0.000 C 
ATOM     14  C   UNL     1      -1.459  12.645  20.617  0.00  0.00    +0.000 A 
ATOM     15  C   UNL     1      -0.725  11.558  21.112  0.00  0.00    +0.000 A 
ENDROOT
BRANCH   1  17
ATOM     16  N   UNL     1       2.190   7.086  20.032  0.00  0.00    +0.000 N 
ATOM     17  C   UNL     1       1.963   7.930  18.946  0.00  0.00    +0.000 C 
ATOM     18  O   UNL     1       2.165   7.639  17.771  0.00  0.00    +0.000 OA
ATOM     19  H   UNL     1       1.962   7.502  20.933  0.00  0.00    +0.000 HD
BRANCH  16  23
ATOM     20  C   UNL     1       3.831   3.173  19.767  0.00  0.00    +0.000 A 
ATOM     21  C   UNL     1       2.577   3.377  20.347  0.00  0.00    +0.000 A 
ATOM     22  C   UNL     1       2.023   4.656  20.446  0.00  0.00    +0.000 A 
ATOM     23  C   UNL     1       2.721   5.775  19.999  0.00  0.00    +0.000 A 
ATOM     24  C   UNL     1       4.006   5.580  19.481  0.00  0.00    +0.000 A 
ATOM     25  C   UNL     1       4.579   4.295  19.371  0.00  0.00    +0.000 A 
BRANCH  20  27
ATOM     26  C   UNL     1       3.841   1.182  18.485  0.00  0.00    +0.000 C 
ATOM     27  O   UNL     1       4.341   1.916  19.607  0.00  0.00    +0.000 OA
ENDBRANCH  20  27
BRANCH  25  28
ATOM     28  O   UNL     1       5.845   4.330  18.844  0.00  0.00    +0.000 OA
ATOM     29  C   UNL     1       6.712   5.394  19.207  0.00  0.00    +0.000 C 
ENDBRANCH  25  28
ENDBRANCH  16  23
ENDBRANCH   1  17
TORSDOF 4
ENDMDL
MODEL 5
REMARK VINA RESULT:      -7.7      1.973      3.073
REMARK  Name = 
REMARK  8 active torsions:
REMARK  status: ('A' for Active; 'I' for Inactive)
REMARK    1  A    between atoms: C_1  and  O_2
REMARK    2  A    between atoms: O_2  and  C_3
REMARK    3  A    between atoms: C_6  and  N_7
REMARK    4  A    between atoms: C_8  and  C_10
REMARK    5  A    between atoms: N_12  and  C_13
REMARK    6  A    between atoms: C_21  and  C_22
REMARK    7  A    between atoms: C_26  and  O_27
REMARK    8  A    between atoms: O_27  and  C_28
REMARK                            x       y       z     vdW  Elec       q    Type
REMARK                         _______ _______ _______ _____ _____    ______ ____
ROOT
ATOM      1  C   UNL     1       1.484   9.075  19.426  0.00  0.00    +0.000 A 
ATOM      2  N   UNL     1       1.412  10.067  18.515  0.00  0.00    +0.000 NA
ATOM      3  N   UNL     1       0.692  11.025  19.157  0.00  0.00    +0.000 N 
ATOM      4  C   UNL     1       0.915  12.418  18.834  0.00  0.00    +0.000 C 
ATOM      5  C   UNL     1       0.062  10.560  20.283  0.00  0.00    +0.000 A 
ATOM      6  C   UNL     1       0.793   9.442  20.621  0.00  0.00    +0.000 A 
ATOM      7  C   UNL     1       0.812   8.768  21.940  0.00  0.00    +0.000 C 
ATOM      8  S   UNL     1       0.025   9.722  23.299  0.00  0.00    +0.000 S 
ATOM      9  C   UNL     1      -1.046  10.898  22.460  0.00  0.00    +0.000 A 
ATOM     10  C   UNL     1      -2.010  11.545  23.248  0.00  0.00    +0.000 A 
ATOM     11  C   UNL     1      -2.916  12.457  22.684  0.00  0.00    +0.000 A 
ATOM     12  C   UNL     1      -2.881  12.712  21.314  0.00  0.00    +0.000 A 
ATOM     13  C   UNL     1      -3.874  13.639  20.670  0.00  0.00    +0.000 C 
ATOM     14  C   UNL     1      -1.902  12.076  20.526  0.00  0.00    +0.000 A 
ATOM     15  C   UNL     1      -0.957  11.211  21.093  0.00  0.00    +0.000 A 
ENDROOT
BRANCH   1  17
ATOM     16  N   UNL     1       3.072   7.837  18.113  0.00  0.00    +0.000 N 
ATOM     17  C   UNL     1       2.196   7.812  19.197  0.00  0.00    +0.000 C 
ATOM     18  O   UNL     1       1.993   6.841  19.919  0.00  0.00    +0.000 OA
ATOM     19  H   UNL     1       3.110   8.734  17.633  0.00  0.00    +0.000 HD
BRANCH  16  23
ATOM     20  C   UNL     1       5.469   4.716  16.505  0.00  0.00    +0.000 A 
ATOM     21  C   UNL     1       4.146   4.471  16.879  0.00  0.00    +0.000 A 
ATOM     22  C   UNL     1       3.344   5.483  17.412  0.00  0.00    +0.000 A 
ATOM     23  C   UNL     1       3.851   6.764  17.620  0.00  0.00    +0.000 A 
ATOM     24  C   UNL     1       5.196   6.993  17.310  0.00  0.00    +0.000 A 
ATOM     25  C   UNL     1       6.019   5.982  16.767  0.00  0.00    +0.000 A 
BRANCH  20  27
ATOM     26  C   UNL     1       6.344   3.820  14.494  0.00  0.00    +0.000 C 
ATOM     27  O   UNL     1       6.231   3.744  15.919  0.00  0.00    +0.000 OA
ENDBRANCH  20  27
BRANCH  25  28
ATOM     28  O   UNL     1       7.300   6.415  16.543  0.00  0.00    +0.000 OA
ATOM     29  C   UNL     1       7.815   7.479  17.332  0.00  0.00    +0.000 C 
ENDBRANCH  25  28
ENDBRANCH  16  23
ENDBRANCH   1  17
TORSDOF 4
ENDMDL
MODEL 6
REMARK VINA RESULT:      -7.7      3.056      9.776
REMARK  Name = 
REMARK  8 active torsions:
REMARK  status: ('A' for Active; 'I' for Inactive)
REMARK    1  A    between atoms: C_1  and  O_2
REMARK    2  A    between atoms: O_2  and  C_3
REMARK    3  A    between atoms: C_6  and  N_7
REMARK    4  A    between atoms: C_8  and  C_10
REMARK    5  A    between atoms: N_12  and  C_13
REMARK    6  A    between atoms: C_21  and  C_22
REMARK    7  A    between atoms: C_26  and  O_27
REMARK    8  A    between atoms: O_27  and  C_28
REMARK                            x       y       z     vdW  Elec       q    Type
REMARK                         _______ _______ _______ _____ _____    ______ ____
ROOT
ATOM      1  C   UNL     1       2.875   5.197  18.753  0.00  0.00    +0.000 A 
ATOM      2  N   UNL     1       2.349   4.063  18.246  0.00  0.00    +0.000 NA
ATOM      3  N   UNL     1       3.303   3.642  17.376  0.00  0.00    +0.000 N 
ATOM      4  C   UNL     1       3.451   2.226  17.113  0.00  0.00    +0.000 C 
ATOM      5  C   UNL     1       4.239   4.605  17.094  0.00  0.00    +0.000 A 
ATOM      6  C   UNL     1       4.154   5.458  18.173  0.00  0.00    +0.000 A 
ATOM      7  C   UNL     1       5.173   6.447  18.595  0.00  0.00    +0.000 C 
ATOM      8  S   UNL     1       6.805   6.265  17.771  0.00  0.00    +0.000 S 
ATOM      9  C   UNL     1       6.452   5.325  16.280  0.00  0.00    +0.000 A 
ATOM     10  C   UNL     1       7.452   5.307  15.295  0.00  0.00    +0.000 A 
ATOM     11  C   UNL     1       7.263   4.629  14.081  0.00  0.00    +0.000 A 
ATOM     12  C   UNL     1       6.056   3.980  13.829  0.00  0.00    +0.000 A 
ATOM     13  C   UNL     1       5.800   3.294  12.516  0.00  0.00    +0.000 C 
ATOM     14  C   UNL     1       5.057   3.984  14.823  0.00  0.00    +0.000 A 
ATOM     15  C   UNL     1       5.263   4.608  16.061  0.00  0.00    +0.000 A 
ENDROOT
BRANCH   1  17
ATOM     16  N   UNL     1       2.015   7.347  19.399  0.00  0.00    +0.000 N 
ATOM     17  C   UNL     1       2.209   6.018  19.772  0.00  0.00    +0.000 C 
ATOM     18  O   UNL     1       1.881   5.531  20.849  0.00  0.00    +0.000 OA
ATOM     19  H   UNL     1       2.351   7.568  18.464  0.00  0.00    +0.000 HD
BRANCH  16  23
ATOM     20  C   UNL     1       0.412  10.567  21.665  0.00  0.00    +0.000 A 
ATOM     21  C   UNL     1       0.904   9.428  22.305  0.00  0.00    +0.000 A 
ATOM     22  C   UNL     1       1.432   8.358  21.576  0.00  0.00    +0.000 A 
ATOM     23  C   UNL     1       1.452   8.381  20.184  0.00  0.00    +0.000 A 
ATOM     24  C   UNL     1       0.896   9.492  19.540  0.00  0.00    +0.000 A 
ATOM     25  C   UNL     1       0.362  10.582  20.261  0.00  0.00    +0.000 A 
BRANCH  20  27
ATOM     26  C   UNL     1      -1.358  11.515  22.920  0.00  0.00    +0.000 C 
ATOM     27  O   UNL     1      -0.039  11.642  22.379  0.00  0.00    +0.000 OA
ENDBRANCH  20  27
BRANCH  25  28
ATOM     28  O   UNL     1      -0.135  11.559  19.438  0.00  0.00    +0.000 OA
ATOM     29  C   UNL     1      -1.389  11.354  18.804  0.00  0.00    +0.000 C 
ENDBRANCH  25  28
ENDBRANCH  16  23
ENDBRANCH   1  17
TORSDOF 4
ENDMDL
MODEL 7
REMARK VINA RESULT:      -7.7      2.149      2.887
REMARK  Name = 
REMARK  8 active torsions:
REMARK  status: ('A' for Active; 'I' for Inactive)
REMARK    1  A    between atoms: C_1  and  O_2
REMARK    2  A    between atoms: O_2  and  C_3
REMARK    3  A    between atoms: C_6  and  N_7
REMARK    4  A    between atoms: C_8  and  C_10
REMARK    5  A    between atoms: N_12  and  C_13
REMARK    6  A    between atoms: C_21  and  C_22
REMARK    7  A    between atoms: C_26  and  O_27
REMARK    8  A    between atoms: O_27  and  C_28
REMARK                            x       y       z     vdW  Elec       q    Type
REMARK                         _______ _______ _______ _____ _____    ______ ____
ROOT
ATOM      1  C   UNL     1       1.348   9.726  19.192  0.00  0.00    +0.000 A 
ATOM      2  N   UNL     1       1.581  10.890  18.551  0.00  0.00    +0.000 NA
ATOM      3  N   UNL     1       0.983  11.810  19.352  0.00  0.00    +0.000 N 
ATOM      4  C   UNL     1       1.507  13.159  19.400  0.00  0.00    +0.000 C 
ATOM      5  C   UNL     1       0.140  11.251  20.278  0.00  0.00    +0.000 A 
ATOM      6  C   UNL     1       0.596   9.955  20.384  0.00  0.00    +0.000 A 
ATOM      7  C   UNL     1       0.320   9.013  21.494  0.00  0.00    +0.000 C 
ATOM      8  S   UNL     1      -0.434   9.783  22.983  0.00  0.00    +0.000 S 
ATOM      9  C   UNL     1      -1.147  11.319  22.380  0.00  0.00    +0.000 A 
ATOM     10  C   UNL     1      -2.061  11.964  23.228  0.00  0.00    +0.000 A 
ATOM     11  C   UNL     1      -2.698  13.153  22.839  0.00  0.00    +0.000 A 
ATOM     12  C   UNL     1      -2.443  13.697  21.581  0.00  0.00    +0.000 A 
ATOM     13  C   UNL     1      -3.152  14.936  21.112  0.00  0.00    +0.000 C 
ATOM     14  C   UNL     1      -1.513  13.059  20.736  0.00  0.00    +0.000 A 
ATOM     15  C   UNL     1      -0.829  11.906  21.144  0.00  0.00    +0.000 A 
ENDROOT
BRANCH   1  17
ATOM     16  N   UNL     1       2.129   7.517  19.729  0.00  0.00    +0.000 N 
ATOM     17  C   UNL     1       1.828   8.424  18.714  0.00  0.00    +0.000 C 
ATOM     18  O   UNL     1       1.949   8.206  17.513  0.00  0.00    +0.000 OA
ATOM     19  H   UNL     1       1.962   7.876  20.666  0.00  0.00    +0.000 HD
BRANCH  16  23
ATOM     20  C   UNL     1       3.674   3.567  19.445  0.00  0.00    +0.000 A 
ATOM     21  C   UNL     1       4.402   4.649  18.946  0.00  0.00    +0.000 A 
ATOM     22  C   UNL     1       3.909   5.954  19.027  0.00  0.00    +0.000 A 
ATOM     23  C   UNL     1       2.657   6.213  19.579  0.00  0.00    +0.000 A 
ATOM     24  C   UNL     1       1.897   5.123  20.016  0.00  0.00    +0.000 A 
ATOM     25  C   UNL     1       2.382   3.799  19.944  0.00  0.00    +0.000 A 
BRANCH  20  27
ATOM     26  C   UNL     1       3.698   1.448  18.387  0.00  0.00    +0.000 C 
ATOM     27  O   UNL     1       4.186   2.300  19.427  0.00  0.00    +0.000 OA
ENDBRANCH  20  27
BRANCH  25  28
ATOM     28  O   UNL     1       1.477   2.884  20.420  0.00  0.00    +0.000 OA
ATOM     29  C   UNL     1       1.494   2.552  21.801  0.00  0.00    +0.000 C 
ENDBRANCH  25  28
ENDBRANCH  16  23
ENDBRANCH   1  17
TORSDOF 4
ENDMDL
MODEL 8
REMARK VINA RESULT:      -7.4      1.796      2.399
REMARK  Name = 
REMARK  8 active torsions:
REMARK  status: ('A' for Active; 'I' for Inactive)
REMARK    1  A    between atoms: C_1  and  O_2
REMARK    2  A    between atoms: O_2  and  C_3
REMARK    3  A    between atoms: C_6  and  N_7
REMARK    4  A    between atoms: C_8  and  C_10
REMARK    5  A    between atoms: N_12  and  C_13
REMARK    6  A    between atoms: C_21  and  C_22
REMARK    7  A    between atoms: C_26  and  O_27
REMARK    8  A    between atoms: O_27  and  C_28
REMARK                            x       y       z     vdW  Elec       q    Type
REMARK                         _______ _______ _______ _____ _____    ______ ____
ROOT
ATOM      1  C   UNL     1       1.549   9.164  19.271  0.00  0.00    +0.000 A 
ATOM      2  N   UNL     1       1.504  10.218  18.431  0.00  0.00    +0.000 NA
ATOM      3  N   UNL     1       0.808  11.147  19.137  0.00  0.00    +0.000 N 
ATOM      4  C   UNL     1       1.068  12.553  18.911  0.00  0.00    +0.000 C 
ATOM      5  C   UNL     1       0.164  10.622  20.228  0.00  0.00    +0.000 A 
ATOM      6  C   UNL     1       0.866   9.465  20.488  0.00  0.00    +0.000 A 
ATOM      7  C   UNL     1       0.864   8.701  21.758  0.00  0.00    +0.000 C 
ATOM      8  S   UNL     1       0.099   9.579  23.179  0.00  0.00    +0.000 S 
ATOM      9  C   UNL     1      -0.939  10.837  22.423  0.00  0.00    +0.000 A 
ATOM     10  C   UNL     1      -1.888  11.453  23.253  0.00  0.00    +0.000 A 
ATOM     11  C   UNL     1      -2.769  12.424  22.754  0.00  0.00    +0.000 A 
ATOM     12  C   UNL     1      -2.725  12.773  21.405  0.00  0.00    +0.000 A 
ATOM     13  C   UNL     1      -3.692  13.767  20.826  0.00  0.00    +0.000 C 
ATOM     14  C   UNL     1      -1.761  12.168  20.574  0.00  0.00    +0.000 A 
ATOM     15  C   UNL     1      -0.839  11.241  21.081  0.00  0.00    +0.000 A 
ENDROOT
BRANCH   1  17
ATOM     16  N   UNL     1       3.016   7.947  17.806  0.00  0.00    +0.000 N 
ATOM     17  C   UNL     1       2.229   7.901  18.956  0.00  0.00    +0.000 C 
ATOM     18  O   UNL     1       2.076   6.915  19.668  0.00  0.00    +0.000 OA
ATOM     19  H   UNL     1       3.023   8.855  17.346  0.00  0.00    +0.000 HD
BRANCH  16  23
ATOM     20  C   UNL     1       5.229   4.680  16.224  0.00  0.00    +0.000 A 
ATOM     21  C   UNL     1       5.467   5.981  15.773  0.00  0.00    +0.000 A 
ATOM     22  C   UNL     1       4.747   7.066  16.279  0.00  0.00    +0.000 A 
ATOM     23  C   UNL     1       3.743   6.881  17.226  0.00  0.00    +0.000 A 
ATOM     24  C   UNL     1       3.457   5.571  17.627  0.00  0.00    +0.000 A 
ATOM     25  C   UNL     1       4.177   4.464  17.128  0.00  0.00    +0.000 A 
BRANCH  20  27
ATOM     26  C   UNL     1       6.367   3.681  14.403  0.00  0.00    +0.000 C 
ATOM     27  O   UNL     1       5.981   3.629  15.780  0.00  0.00    +0.000 OA
ENDBRANCH  20  27
BRANCH  25  28
ATOM     28  O   UNL     1       3.731   3.275  17.647  0.00  0.00    +0.000 OA
ATOM     29  C   UNL     1       2.769   3.297  18.691  0.00  0.00    +0.000 C 
ENDBRANCH  25  28
ENDBRANCH  16  23
ENDBRANCH   1  17
TORSDOF 4
ENDMDL
MODEL 9
REMARK VINA RESULT:      -7.2      1.818      2.911
REMARK  Name = 
REMARK  8 active torsions:
REMARK  status: ('A' for Active; 'I' for Inactive)
REMARK    1  A    between atoms: C_1  and  O_2
REMARK    2  A    between atoms: O_2  and  C_3
REMARK    3  A    between atoms: C_6  and  N_7
REMARK    4  A    between atoms: C_8  and  C_10
REMARK    5  A    between atoms: N_12  and  C_13
REMARK    6  A    between atoms: C_21  and  C_22
REMARK    7  A    between atoms: C_26  and  O_27
REMARK    8  A    between atoms: O_27  and  C_28
REMARK                            x       y       z     vdW  Elec       q    Type
REMARK                         _______ _______ _______ _____ _____    ______ ____
ROOT
ATOM      1  C   UNL     1       1.175  10.138  19.241  0.00  0.00    +0.000 A 
ATOM      2  N   UNL     1       1.511  11.336  18.718  0.00  0.00    +0.000 NA
ATOM      3  N   UNL     1       0.968  12.219  19.596  0.00  0.00    +0.000 N 
ATOM      4  C   UNL     1       1.592  13.512  19.781  0.00  0.00    +0.000 C 
ATOM      5  C   UNL     1       0.064  11.642  20.452  0.00  0.00    +0.000 A 
ATOM      6  C   UNL     1       0.418  10.311  20.439  0.00  0.00    +0.000 A 
ATOM      7  C   UNL     1       0.047   9.292  21.449  0.00  0.00    +0.000 C 
ATOM      8  S   UNL     1      -0.679   9.974  22.994  0.00  0.00    +0.000 S 
ATOM      9  C   UNL     1      -1.258  11.611  22.532  0.00  0.00    +0.000 A 
ATOM     10  C   UNL     1      -2.138  12.243  23.425  0.00  0.00    +0.000 A 
ATOM     11  C   UNL     1      -2.674  13.509  23.143  0.00  0.00    +0.000 A 
ATOM     12  C   UNL     1      -2.352  14.148  21.947  0.00  0.00    +0.000 A 
ATOM     13  C   UNL     1      -2.954  15.478  21.589  0.00  0.00    +0.000 C 
ATOM     14  C   UNL     1      -1.455  13.523  21.058  0.00  0.00    +0.000 A 
ATOM     15  C   UNL     1      -0.870  12.286  21.362  0.00  0.00    +0.000 A 
ENDROOT
BRANCH   1  17
ATOM     16  N   UNL     1       2.120   7.949  19.551  0.00  0.00    +0.000 N 
ATOM     17  C   UNL     1       1.565   8.854  18.646  0.00  0.00    +0.000 C 
ATOM     18  O   UNL     1       1.407   8.647  17.448  0.00  0.00    +0.000 OA
ATOM     19  H   UNL     1       2.168   8.297  20.506  0.00  0.00    +0.000 HD
BRANCH  16  23
ATOM     20  C   UNL     1       3.605   4.099  18.528  0.00  0.00    +0.000 A 
ATOM     21  C   UNL     1       2.866   4.285  19.699  0.00  0.00    +0.000 A 
ATOM     22  C   UNL     1       2.373   5.543  20.053  0.00  0.00    +0.000 A 
ATOM     23  C   UNL     1       2.632   6.662  19.265  0.00  0.00    +0.000 A 
ATOM     24  C   UNL     1       3.431   6.490  18.129  0.00  0.00    +0.000 A 
ATOM     25  C   UNL     1       3.934   5.225  17.755  0.00  0.00    +0.000 A 
BRANCH  20  27
ATOM     26  C   UNL     1       3.109   1.788  18.391  0.00  0.00    +0.000 C 
ATOM     27  O   UNL     1       4.028   2.857  18.147  0.00  0.00    +0.000 OA
ENDBRANCH  20  27
BRANCH  25  28
ATOM     28  O   UNL     1       4.696   5.282  16.616  0.00  0.00    +0.000 OA
ATOM     29  C   UNL     1       5.151   6.546  16.154  0.00  0.00    +0.000 C 
ENDBRANCH  25  28
ENDBRANCH  16  23
ENDBRANCH   1  17
TORSDOF 4
ENDMDL
