MODEL 1
REMARK VINA RESULT:      -7.3      0.000      0.000
REMARK  Name = 
REMARK  6 active torsions:
REMARK  status: ('A' for Active; 'I' for Inactive)
REMARK    1  A    between atoms: C_1  and  O_2
REMARK    2  A    between atoms: O_2  and  C_3
REMARK    3  A    between atoms: N_10  and  C_11
REMARK    4  A    between atoms: N_10  and  C_12
REMARK    5  A    between atoms: C_20  and  O_21
REMARK    6  A    between atoms: O_21  and  C_22
REMARK                            x       y       z     vdW  Elec       q    Type
REMARK                         _______ _______ _______ _____ _____    ______ ____
ROOT
ATOM      1  C   UNL     1       6.899   5.072  14.366  0.00  0.00    +0.000 A 
ATOM      2  C   UNL     1       7.440   5.521  15.584  0.00  0.00    +0.000 A 
ATOM      3  C   UNL     1       6.830   5.224  16.811  0.00  0.00    +0.000 A 
ATOM      4  N   UNL     1       7.361   5.713  17.962  0.00  0.00    +0.000 NA
ATOM      5  C   UNL     1       6.793   5.447  19.163  0.00  0.00    +0.000 A 
ATOM      6  N   UNL     1       5.712   4.627  19.239  0.00  0.00    +0.000 NA
ATOM      7  C   UNL     1       5.134   4.074  18.133  0.00  0.00    +0.000 A 
ATOM      8  N   UNL     1       4.092   3.090  18.327  0.00  0.00    +0.000 N 
ATOM      9  C   UNL     1       4.068   1.879  17.505  0.00  0.00    +0.000 C 
ATOM     10  C   UNL     1       5.671   4.422  16.853  0.00  0.00    +0.000 A 
ATOM     11  C   UNL     1       5.101   4.024  15.633  0.00  0.00    +0.000 A 
ATOM     12  C   UNL     1       5.679   4.323  14.394  0.00  0.00    +0.000 A 
ENDROOT
BRANCH   8  13
ATOM     13  C   UNL     1       3.125   3.201  19.398  0.00  0.00    +0.000 A 
ATOM     14  C   UNL     1       1.913   3.903  19.215  0.00  0.00    +0.000 A 
ATOM     15  C   UNL     1       0.952   3.948  20.234  0.00  0.00    +0.000 A 
ATOM     16  C   UNL     1       1.187   3.313  21.454  0.00  0.00    +0.000 A 
ATOM     17  C   UNL     1       2.380   2.631  21.663  0.00  0.00    +0.000 A 
ATOM     18  C   UNL     1       3.336   2.567  20.650  0.00  0.00    +0.000 A 
ENDBRANCH   8  13
BRANCH   1  20
ATOM     19  C   UNL     1       8.932   5.711  13.108  0.00  0.00    +0.000 C 
ATOM     20  O   UNL     1       7.590   5.429  13.246  0.00  0.00    +0.000 OA
ENDBRANCH   1  20
BRANCH  12  21
ATOM     21  O   UNL     1       4.985   3.847  13.321  0.00  0.00    +0.000 OA
ATOM     22  C   UNL     1       5.416   3.193  12.188  0.00  0.00    +0.000 C 
ENDBRANCH  12  21
TORSDOF 3
ENDMDL
MODEL 2
REMARK VINA RESULT:      -7.1      0.057      1.032
REMARK  Name = 
REMARK  6 active torsions:
REMARK  status: ('A' for Active; 'I' for Inactive)
REMARK    1  A    between atoms: C_1  and  O_2
REMARK    2  A    between atoms: O_2  and  C_3
REMARK    3  A    between atoms: N_10  and  C_11
REMARK    4  A    between atoms: N_10  and  C_12
REMARK    5  A    between atoms: C_20  and  O_21
REMARK    6  A    between atoms: O_21  and  C_22
REMARK                            x       y       z     vdW  Elec       q    Type
REMARK                         _______ _______ _______ _____ _____    ______ ____
ROOT
ATOM      1  C   UNL     1       6.890   5.092  14.370  0.00  0.00    +0.000 A 
ATOM      2  C   UNL     1       7.412   5.541  15.597  0.00  0.00    +0.000 A 
ATOM      3  C   UNL     1       6.797   5.224  16.816  0.00  0.00    +0.000 A 
ATOM      4  N   UNL     1       7.308   5.715  17.975  0.00  0.00    +0.000 NA
ATOM      5  C   UNL     1       6.734   5.429  19.169  0.00  0.00    +0.000 A 
ATOM      6  N   UNL     1       5.667   4.589  19.229  0.00  0.00    +0.000 NA
ATOM      7  C   UNL     1       5.109   4.035  18.113  0.00  0.00    +0.000 A 
ATOM      8  N   UNL     1       4.083   3.032  18.290  0.00  0.00    +0.000 N 
ATOM      9  C   UNL     1       4.088   1.827  17.459  0.00  0.00    +0.000 C 
ATOM     10  C   UNL     1       5.651   4.402  16.840  0.00  0.00    +0.000 A 
ATOM     11  C   UNL     1       5.100   4.003  15.613  0.00  0.00    +0.000 A 
ATOM     12  C   UNL     1       5.684   4.322  14.381  0.00  0.00    +0.000 A 
ENDROOT
BRANCH   8  13
ATOM     13  C   UNL     1       3.105   3.117  19.353  0.00  0.00    +0.000 A 
ATOM     14  C   UNL     1       3.326   2.486  20.598  0.00  0.00    +0.000 A 
ATOM     15  C   UNL     1       2.408   2.630  21.646  0.00  0.00    +0.000 A 
ATOM     16  C   UNL     1       1.249   3.387  21.470  0.00  0.00    +0.000 A 
ATOM     17  C   UNL     1       1.002   4.003  20.248  0.00  0.00    +0.000 A 
ATOM     18  C   UNL     1       1.918   3.879  19.204  0.00  0.00    +0.000 A 
ENDBRANCH   8  13
BRANCH   1  20
ATOM     19  C   UNL     1       8.940   5.685  13.114  0.00  0.00    +0.000 C 
ATOM     20  O   UNL     1       7.585   5.469  13.260  0.00  0.00    +0.000 OA
ENDBRANCH   1  20
BRANCH  12  21
ATOM     21  O   UNL     1       5.009   3.841  13.299  0.00  0.00    +0.000 OA
ATOM     22  C   UNL     1       5.453   3.149  12.194  0.00  0.00    +0.000 C 
ENDBRANCH  12  21
TORSDOF 3
ENDMDL
MODEL 3
REMARK VINA RESULT:      -6.7      4.047      5.329
REMARK  Name = 
REMARK  6 active torsions:
REMARK  status: ('A' for Active; 'I' for Inactive)
REMARK    1  A    between atoms: C_1  and  O_2
REMARK    2  A    between atoms: O_2  and  C_3
REMARK    3  A    between atoms: N_10  and  C_11
REMARK    4  A    between atoms: N_10  and  C_12
REMARK    5  A    between atoms: C_20  and  O_21
REMARK    6  A    between atoms: O_21  and  C_22
REMARK                            x       y       z     vdW  Elec       q    Type
REMARK                         _______ _______ _______ _____ _____    ______ ____
ROOT
ATOM      1  C   UNL     1       5.699   4.956  17.576  0.00  0.00    +0.000 A 
ATOM      2  C   UNL     1       4.778   4.198  18.321  0.00  0.00    +0.000 A 
ATOM      3  C   UNL     1       3.699   4.799  18.984  0.00  0.00    +0.000 A 
ATOM      4  N   UNL     1       2.857   4.037  19.729  0.00  0.00    +0.000 NA
ATOM      5  C   UNL     1       1.807   4.589  20.384  0.00  0.00    +0.000 A 
ATOM      6  N   UNL     1       1.542   5.915  20.251  0.00  0.00    +0.000 NA
ATOM      7  C   UNL     1       2.324   6.746  19.501  0.00  0.00    +0.000 A 
ATOM      8  N   UNL     1       1.872   8.103  19.291  0.00  0.00    +0.000 N 
ATOM      9  C   UNL     1       1.988   8.715  17.967  0.00  0.00    +0.000 C 
ATOM     10  C   UNL     1       3.488   6.189  18.880  0.00  0.00    +0.000 A 
ATOM     11  C   UNL     1       4.440   6.950  18.184  0.00  0.00    +0.000 A 
ATOM     12  C   UNL     1       5.536   6.377  17.529  0.00  0.00    +0.000 A 
ENDROOT
BRANCH   8  13
ATOM     13  C   UNL     1       1.190   8.851  20.326  0.00  0.00    +0.000 A 
ATOM     14  C   UNL     1       0.210   9.816  20.000  0.00  0.00    +0.000 A 
ATOM     15  C   UNL     1      -0.495  10.486  21.008  0.00  0.00    +0.000 A 
ATOM     16  C   UNL     1      -0.227  10.223  22.352  0.00  0.00    +0.000 A 
ATOM     17  C   UNL     1       0.745   9.290  22.696  0.00  0.00    +0.000 A 
ATOM     18  C   UNL     1       1.441   8.605  21.700  0.00  0.00    +0.000 A 
ENDBRANCH   8  13
BRANCH   1  20
ATOM     19  C   UNL     1       7.060   4.204  15.651  0.00  0.00    +0.000 C 
ATOM     20  O   UNL     1       6.701   4.248  16.981  0.00  0.00    +0.000 OA
ENDBRANCH   1  20
BRANCH  12  21
ATOM     21  O   UNL     1       6.348   7.275  16.902  0.00  0.00    +0.000 OA
ATOM     22  C   UNL     1       7.508   7.887  17.321  0.00  0.00    +0.000 C 
ENDBRANCH  12  21
TORSDOF 3
ENDMDL
MODEL 4
REMARK VINA RESULT:      -6.6      3.983      5.360
REMARK  Name = 
REMARK  6 active torsions:
REMARK  status: ('A' for Active; 'I' for Inactive)
REMARK    1  A    between atoms: C_1  and  O_2
REMARK    2  A    between atoms: O_2  and  C_3
REMARK    3  A    between atoms: N_10  and  C_11
REMARK    4  A    between atoms: N_10  and  C_12
REMARK    5  A    between atoms: C_20  and  O_21
REMARK    6  A    between atoms: O_21  and  C_22
REMARK                            x       y       z     vdW  Elec       q    Type
REMARK                         _______ _______ _______ _____ _____    ______ ____
ROOT
ATOM      1  C   UNL     1       5.686   4.936  17.332  0.00  0.00    +0.000 A 
ATOM      2  C   UNL     1       4.721   4.155  17.993  0.00  0.00    +0.000 A 
ATOM      3  C   UNL     1       3.640   4.741  18.667  0.00  0.00    +0.000 A 
ATOM      4  N   UNL     1       2.754   3.954  19.331  0.00  0.00    +0.000 NA
ATOM      5  C   UNL     1       1.702   4.490  19.995  0.00  0.00    +0.000 A 
ATOM      6  N   UNL     1       1.480   5.830  19.952  0.00  0.00    +0.000 NA
ATOM      7  C   UNL     1       2.308   6.688  19.287  0.00  0.00    +0.000 A 
ATOM      8  N   UNL     1       1.904   8.070  19.165  0.00  0.00    +0.000 N 
ATOM      9  C   UNL     1       2.078   8.773  17.893  0.00  0.00    +0.000 C 
ATOM     10  C   UNL     1       3.474   6.141  18.660  0.00  0.00    +0.000 A 
ATOM     11  C   UNL     1       4.469   6.920  18.049  0.00  0.00    +0.000 A 
ATOM     12  C   UNL     1       5.567   6.361  17.385  0.00  0.00    +0.000 A 
ENDROOT
BRANCH   8  13
ATOM     13  C   UNL     1       1.213   8.762  20.232  0.00  0.00    +0.000 A 
ATOM     14  C   UNL     1       1.522   8.504  21.587  0.00  0.00    +0.000 A 
ATOM     15  C   UNL     1       0.898   9.226  22.612  0.00  0.00    +0.000 A 
ATOM     16  C   UNL     1      -0.053  10.202  22.311  0.00  0.00    +0.000 A 
ATOM     17  C   UNL     1      -0.385  10.461  20.986  0.00  0.00    +0.000 A 
ATOM     18  C   UNL     1       0.242   9.759  19.957  0.00  0.00    +0.000 A 
ENDBRANCH   8  13
BRANCH   1  20
ATOM     19  C   UNL     1       6.916   4.068  15.367  0.00  0.00    +0.000 C 
ATOM     20  O   UNL     1       6.684   4.242  16.715  0.00  0.00    +0.000 OA
ENDBRANCH   1  20
BRANCH  12  21
ATOM     21  O   UNL     1       6.423   7.276  16.848  0.00  0.00    +0.000 OA
ATOM     22  C   UNL     1       7.542   7.881  17.376  0.00  0.00    +0.000 C 
ENDBRANCH  12  21
TORSDOF 3
ENDMDL
MODEL 5
REMARK VINA RESULT:      -6.5      3.727      5.033
REMARK  Name = 
REMARK  6 active torsions:
REMARK  status: ('A' for Active; 'I' for Inactive)
REMARK    1  A    between atoms: C_1  and  O_2
REMARK    2  A    between atoms: O_2  and  C_3
REMARK    3  A    between atoms: N_10  and  C_11
REMARK    4  A    between atoms: N_10  and  C_12
REMARK    5  A    between atoms: C_20  and  O_21
REMARK    6  A    between atoms: O_21  and  C_22
REMARK                            x       y       z     vdW  Elec       q    Type
REMARK                         _______ _______ _______ _____ _____    ______ ____
ROOT
ATOM      1  C   UNL     1       6.124   5.294  16.370  0.00  0.00    +0.000 A 
ATOM      2  C   UNL     1       5.026   4.454  16.626  0.00  0.00    +0.000 A 
ATOM      3  C   UNL     1       3.883   4.924  17.288  0.00  0.00    +0.000 A 
ATOM      4  N   UNL     1       2.861   4.069  17.555  0.00  0.00    +0.000 NA
ATOM      5  C   UNL     1       1.745   4.491  18.196  0.00  0.00    +0.000 A 
ATOM      6  N   UNL     1       1.603   5.801  18.527  0.00  0.00    +0.000 NA
ATOM      7  C   UNL     1       2.572   6.729  18.273  0.00  0.00    +0.000 A 
ATOM      8  N   UNL     1       2.265   8.121  18.516  0.00  0.00    +0.000 N 
ATOM      9  C   UNL     1       2.678   9.140  17.550  0.00  0.00    +0.000 C 
ATOM     10  C   UNL     1       3.793   6.276  17.678  0.00  0.00    +0.000 A 
ATOM     11  C   UNL     1       4.913   7.096  17.472  0.00  0.00    +0.000 A 
ATOM     12  C   UNL     1       6.073   6.648  16.831  0.00  0.00    +0.000 A 
ENDROOT
BRANCH   8  13
ATOM     13  C   UNL     1       1.448   8.540  19.634  0.00  0.00    +0.000 A 
ATOM     14  C   UNL     1       1.599   7.946  20.908  0.00  0.00    +0.000 A 
ATOM     15  C   UNL     1       0.854   8.404  22.002  0.00  0.00    +0.000 A 
ATOM     16  C   UNL     1      -0.064   9.443  21.847  0.00  0.00    +0.000 A 
ATOM     17  C   UNL     1      -0.241  10.030  20.599  0.00  0.00    +0.000 A 
ATOM     18  C   UNL     1       0.507   9.593  19.507  0.00  0.00    +0.000 A 
ENDBRANCH   8  13
BRANCH   1  20
ATOM     19  C   UNL     1       7.388   4.589  14.361  0.00  0.00    +0.000 C 
ATOM     20  O   UNL     1       7.172   4.713  15.717  0.00  0.00    +0.000 OA
ENDBRANCH   1  20
BRANCH  12  21
ATOM     21  O   UNL     1       7.052   7.590  16.717  0.00  0.00    +0.000 OA
ATOM     22  C   UNL     1       7.802   8.230  17.678  0.00  0.00    +0.000 C 
ENDBRANCH  12  21
TORSDOF 3
ENDMDL
MODEL 6
REMARK VINA RESULT:      -6.5      3.609      7.005
REMARK  Name = 
REMARK  6 active torsions:
REMARK  status: ('A' for Active; 'I' for Inactive)
REMARK    1  A    between atoms: C_1  and  O_2
REMARK    2  A    between atoms: O_2  and  C_3
REMARK    3  A    between atoms: N_10  and  C_11
REMARK    4  A    between atoms: N_10  and  C_12
REMARK    5  A    between atoms: C_20  and  O_21
REMARK    6  A    between atoms: O_21  and  C_22
REMARK                            x       y       z     vdW  Elec       q    Type
REMARK                         _______ _______ _______ _____ _____    ______ ____
ROOT
ATOM      1  C   UNL     1       1.801   6.969  20.212  0.00  0.00    +0.000 A 
ATOM      2  C   UNL     1       2.141   5.612  20.361  0.00  0.00    +0.000 A 
ATOM      3  C   UNL     1       3.005   4.970  19.463  0.00  0.00    +0.000 A 
ATOM      4  N   UNL     1       3.275   3.647  19.617  0.00  0.00    +0.000 NA
ATOM      5  C   UNL     1       4.103   2.998  18.763  0.00  0.00    +0.000 A 
ATOM      6  N   UNL     1       4.731   3.681  17.771  0.00  0.00    +0.000 NA
ATOM      7  C   UNL     1       4.535   5.016  17.563  0.00  0.00    +0.000 A 
ATOM      8  N   UNL     1       5.366   5.685  16.588  0.00  0.00    +0.000 N 
ATOM      9  C   UNL     1       5.923   7.006  16.885  0.00  0.00    +0.000 C 
ATOM     10  C   UNL     1       3.592   5.692  18.403  0.00  0.00    +0.000 A 
ATOM     11  C   UNL     1       3.205   7.029  18.223  0.00  0.00    +0.000 A 
ATOM     12  C   UNL     1       2.330   7.689  19.094  0.00  0.00    +0.000 A 
ENDROOT
BRANCH   8  13
ATOM     13  C   UNL     1       5.774   5.039  15.359  0.00  0.00    +0.000 A 
ATOM     14  C   UNL     1       4.843   4.333  14.564  0.00  0.00    +0.000 A 
ATOM     15  C   UNL     1       5.230   3.769  13.342  0.00  0.00    +0.000 A 
ATOM     16  C   UNL     1       6.548   3.880  12.898  0.00  0.00    +0.000 A 
ATOM     17  C   UNL     1       7.485   4.555  13.673  0.00  0.00    +0.000 A 
ATOM     18  C   UNL     1       7.107   5.134  14.883  0.00  0.00    +0.000 A 
ENDBRANCH   8  13
BRANCH   1  20
ATOM     19  C   UNL     1       0.995   8.689  21.799  0.00  0.00    +0.000 C 
ATOM     20  O   UNL     1       0.953   7.471  21.154  0.00  0.00    +0.000 OA
ENDBRANCH   1  20
BRANCH  12  21
ATOM     21  O   UNL     1       2.078   8.986  18.760  0.00  0.00    +0.000 OA
ATOM     22  C   UNL     1       1.138   9.533  17.916  0.00  0.00    +0.000 C 
ENDBRANCH  12  21
TORSDOF 3
ENDMDL
MODEL 7
REMARK VINA RESULT:      -6.5      6.038      7.790
REMARK  Name = 
REMARK  6 active torsions:
REMARK  status: ('A' for Active; 'I' for Inactive)
REMARK    1  A    between atoms: C_1  and  O_2
REMARK    2  A    between atoms: O_2  and  C_3
REMARK    3  A    between atoms: N_10  and  C_11
REMARK    4  A    between atoms: N_10  and  C_12
REMARK    5  A    between atoms: C_20  and  O_21
REMARK    6  A    between atoms: O_21  and  C_22
REMARK                            x       y       z     vdW  Elec       q    Type
REMARK                         _______ _______ _______ _____ _____    ______ ____
ROOT
ATOM      1  C   UNL     1       2.964   5.499  19.008  0.00  0.00    +0.000 A 
ATOM      2  C   UNL     1       2.968   6.597  18.129  0.00  0.00    +0.000 A 
ATOM      3  C   UNL     1       2.346   7.807  18.464  0.00  0.00    +0.000 A 
ATOM      4  N   UNL     1       2.334   8.829  17.569  0.00  0.00    +0.000 NA
ATOM      5  C   UNL     1       1.738  10.010  17.861  0.00  0.00    +0.000 A 
ATOM      6  N   UNL     1       1.193  10.212  19.090  0.00  0.00    +0.000 NA
ATOM      7  C   UNL     1       1.184   9.246  20.055  0.00  0.00    +0.000 A 
ATOM      8  N   UNL     1       0.727   9.607  21.378  0.00  0.00    +0.000 N 
ATOM      9  C   UNL     1       1.452   9.130  22.557  0.00  0.00    +0.000 C 
ATOM     10  C   UNL     1       1.731   7.965  19.723  0.00  0.00    +0.000 A 
ATOM     11  C   UNL     1       1.679   6.850  20.575  0.00  0.00    +0.000 A 
ATOM     12  C   UNL     1       2.276   5.625  20.257  0.00  0.00    +0.000 A 
ENDROOT
BRANCH   8  13
ATOM     13  C   UNL     1      -0.365  10.534  21.583  0.00  0.00    +0.000 A 
ATOM     14  C   UNL     1      -0.910  10.742  22.870  0.00  0.00    +0.000 A 
ATOM     15  C   UNL     1      -1.921  11.691  23.073  0.00  0.00    +0.000 A 
ATOM     16  C   UNL     1      -2.417  12.434  22.002  0.00  0.00    +0.000 A 
ATOM     17  C   UNL     1      -1.907  12.233  20.724  0.00  0.00    +0.000 A 
ATOM     18  C   UNL     1      -0.890  11.303  20.514  0.00  0.00    +0.000 A 
ENDBRANCH   8  13
BRANCH   1  20
ATOM     19  C   UNL     1       3.307   3.584  17.478  0.00  0.00    +0.000 C 
ATOM     20  O   UNL     1       3.607   4.383  18.561  0.00  0.00    +0.000 OA
ENDBRANCH   1  20
BRANCH  12  21
ATOM     21  O   UNL     1       2.126   4.663  21.210  0.00  0.00    +0.000 OA
ATOM     22  C   UNL     1       1.579   3.401  21.139  0.00  0.00    +0.000 C 
ENDBRANCH  12  21
TORSDOF 3
ENDMDL
MODEL 8
REMARK VINA RESULT:      -6.5      6.026      7.741
REMARK  Name = 
REMARK  6 active torsions:
REMARK  status: ('A' for Active; 'I' for Inactive)
REMARK    1  A    between atoms: C_1  and  O_2
REMARK    2  A    between atoms: O_2  and  C_3
REMARK    3  A    between atoms: N_10  and  C_11
REMARK    4  A    between atoms: N_10  and  C_12
REMARK    5  A    between atoms: C_20  and  O_21
REMARK    6  A    between atoms: O_21  and  C_22
REMARK                            x       y       z     vdW  Elec       q    Type
REMARK                         _______ _______ _______ _____ _____    ______ ____
ROOT
ATOM      1  C   UNL     1       2.905   5.476  19.004  0.00  0.00    +0.000 A 
ATOM      2  C   UNL     1       2.949   6.573  18.125  0.00  0.00    +0.000 A 
ATOM      3  C   UNL     1       2.356   7.800  18.454  0.00  0.00    +0.000 A 
ATOM      4  N   UNL     1       2.383   8.822  17.559  0.00  0.00    +0.000 NA
ATOM      5  C   UNL     1       1.815  10.018  17.845  0.00  0.00    +0.000 A 
ATOM      6  N   UNL     1       1.262  10.235  19.067  0.00  0.00    +0.000 NA
ATOM      7  C   UNL     1       1.216   9.270  20.032  0.00  0.00    +0.000 A 
ATOM      8  N   UNL     1       0.754   9.642  21.350  0.00  0.00    +0.000 N 
ATOM      9  C   UNL     1       1.451   9.146  22.537  0.00  0.00    +0.000 C 
ATOM     10  C   UNL     1       1.732   7.974  19.706  0.00  0.00    +0.000 A 
ATOM     11  C   UNL     1       1.639   6.861  20.557  0.00  0.00    +0.000 A 
ATOM     12  C   UNL     1       2.206   5.620  20.245  0.00  0.00    +0.000 A 
ENDROOT
BRANCH   8  13
ATOM     13  C   UNL     1      -0.315  10.599  21.543  0.00  0.00    +0.000 A 
ATOM     14  C   UNL     1      -0.881  11.288  20.447  0.00  0.00    +0.000 A 
ATOM     15  C   UNL     1      -1.961  12.161  20.633  0.00  0.00    +0.000 A 
ATOM     16  C   UNL     1      -2.484  12.377  21.909  0.00  0.00    +0.000 A 
ATOM     17  C   UNL     1      -1.931  11.722  23.004  0.00  0.00    +0.000 A 
ATOM     18  C   UNL     1      -0.866  10.839  22.827  0.00  0.00    +0.000 A 
ENDBRANCH   8  13
BRANCH   1  20
ATOM     19  C   UNL     1       4.763   3.844  18.898  0.00  0.00    +0.000 C 
ATOM     20  O   UNL     1       3.522   4.342  18.564  0.00  0.00    +0.000 OA
ENDBRANCH   1  20
BRANCH  12  21
ATOM     21  O   UNL     1       2.019   4.662  21.196  0.00  0.00    +0.000 OA
ATOM     22  C   UNL     1       1.502   3.389  21.103  0.00  0.00    +0.000 C 
ENDBRANCH  12  21
TORSDOF 3
ENDMDL
MODEL 9
REMARK VINA RESULT:      -6.4      3.321      7.000
REMARK  Name = 
REMARK  6 active torsions:
REMARK  status: ('A' for Active; 'I' for Inactive)
REMARK    1  A    between atoms: C_1  and  O_2
REMARK    2  A    between atoms: O_2  and  C_3
REMARK    3  A    between atoms: N_10  and  C_11
REMARK    4  A    between atoms: N_10  and  C_12
REMARK    5  A    between atoms: C_20  and  O_21
REMARK    6  A    between atoms: O_21  and  C_22
REMARK                            x       y       z     vdW  Elec       q    Type
REMARK                         _______ _______ _______ _____ _____    ______ ____
ROOT
ATOM      1  C   UNL     1       2.082   6.440  19.815  0.00  0.00    +0.000 A 
ATOM      2  C   UNL     1       2.308   5.053  19.780  0.00  0.00    +0.000 A 
ATOM      3  C   UNL     1       3.116   4.466  18.796  0.00  0.00    +0.000 A 
ATOM      4  N   UNL     1       3.274   3.117  18.771  0.00  0.00    +0.000 NA
ATOM      5  C   UNL     1       4.045   2.520  17.831  0.00  0.00    +0.000 A 
ATOM      6  N   UNL     1       4.728   3.274  16.930  0.00  0.00    +0.000 NA
ATOM      7  C   UNL     1       4.643   4.636  16.902  0.00  0.00    +0.000 A 
ATOM      8  N   UNL     1       5.528   5.358  16.015  0.00  0.00    +0.000 N 
ATOM      9  C   UNL     1       6.193   6.577  16.477  0.00  0.00    +0.000 C 
ATOM     10  C   UNL     1       3.760   5.270  17.834  0.00  0.00    +0.000 A 
ATOM     11  C   UNL     1       3.486   6.647  17.836  0.00  0.00    +0.000 A 
ATOM     12  C   UNL     1       2.669   7.256  18.796  0.00  0.00    +0.000 A 
ENDROOT
BRANCH   8  13
ATOM     13  C   UNL     1       5.880   4.848  14.707  0.00  0.00    +0.000 A 
ATOM     14  C   UNL     1       7.139   5.131  14.131  0.00  0.00    +0.000 A 
ATOM     15  C   UNL     1       7.500   4.578  12.895  0.00  0.00    +0.000 A 
ATOM     16  C   UNL     1       6.613   3.752  12.205  0.00  0.00    +0.000 A 
ATOM     17  C   UNL     1       5.362   3.474  12.745  0.00  0.00    +0.000 A 
ATOM     18  C   UNL     1       4.999   4.006  13.982  0.00  0.00    +0.000 A 
ENDBRANCH   8  13
BRANCH   1  20
ATOM     19  C   UNL     1       1.102   8.166  21.296  0.00  0.00    +0.000 C 
ATOM     20  O   UNL     1       1.278   6.882  20.825  0.00  0.00    +0.000 OA
ENDBRANCH   1  20
BRANCH  12  21
ATOM     21  O   UNL     1       2.526   8.602  18.640  0.00  0.00    +0.000 OA
ATOM     22  C   UNL     1       1.689   9.331  17.825  0.00  0.00    +0.000 C 
ENDBRANCH  12  21
TORSDOF 3
ENDMDL
