MODEL 1
REMARK VINA RESULT:      -6.9      0.000      0.000
REMARK  Name = 
REMARK  10 active torsions:
REMARK  status: ('A' for Active; 'I' for Inactive)
REMARK    1  A    between atoms: C_1  and  C_2
REMARK    2  A    between atoms: C_2  and  C_3
REMARK    3  A    between atoms: C_3  and  N_4
REMARK    4  A    between atoms: N_4  and  C_5
REMARK    5  A    between atoms: N_4  and  C_8
REMARK    6  A    between atoms: C_5  and  C_6
REMARK    7  A    between atoms: C_6  and  C_7
REMARK    8  A    between atoms: C_8  and  C_9
REMARK    9  A    between atoms: C_9  and  C_10
REMARK   10  A    between atoms: C_12  and  O_13
REMARK                            x       y       z     vdW  Elec       q    Type
REMARK                         _______ _______ _______ _____ _____    ______ ____
ROOT
ATOM      1  C   UNL     1       4.906   5.664  18.040  0.00  0.00    +0.000 A 
ATOM      2  C   UNL     1       5.636   5.701  19.248  0.00  0.00    +0.000 A 
ATOM      3  C   UNL     1       6.998   5.413  19.281  0.00  0.00    +0.000 A 
ATOM      4  C   UNL     1       7.697   5.060  18.135  0.00  0.00    +0.000 A 
ATOM      5  C   UNL     1       6.973   4.984  16.945  0.00  0.00    +0.000 A 
ATOM      6  N   UNL     1       7.396   4.631  15.682  0.00  0.00    +0.000 N 
ATOM      7  C   UNL     1       6.346   4.668  14.804  0.00  0.00    +0.000 A 
ATOM      8  C   UNL     1       5.232   5.071  15.504  0.00  0.00    +0.000 A 
ATOM      9  C   UNL     1       5.604   5.272  16.865  0.00  0.00    +0.000 A 
ATOM     10  H   UNL     1       8.344   4.370  15.450  0.00  0.00    +0.000 HD
ENDROOT
BRANCH   3  11
ATOM     11  O   UNL     1       7.702   5.469  20.451  0.00  0.00    +0.000 OA
ATOM     12  H   UNL     1       8.643   5.348  20.250  0.00  0.00    +0.000 HD
ENDBRANCH   3  11
BRANCH   1  13
ATOM     13  C   UNL     1       3.431   6.033  18.049  0.00  0.00    +0.000 C 
BRANCH  13  14
ATOM     14  C   UNL     1       2.706   5.528  19.316  0.00  0.00    +0.000 C 
BRANCH  14  15
ATOM     15  N   UNL     1       2.146   4.154  19.251  0.00  0.00    +0.000 NA
BRANCH  15  16
ATOM     16  C   UNL     1       1.071   4.036  20.259  0.00  0.00    +0.000 C 
BRANCH  16  18
ATOM     17  C   UNL     1       2.720   2.569  21.557  0.00  0.00    +0.000 C 
ATOM     18  C   UNL     1       1.281   3.029  21.401  0.00  0.00    +0.000 C 
ENDBRANCH  16  18
ENDBRANCH  15  16
BRANCH  15  19
ATOM     19  C   UNL     1       1.725   3.762  17.893  0.00  0.00    +0.000 C 
BRANCH  19  20
ATOM     20  C   UNL     1       2.618   2.733  17.186  0.00  0.00    +0.000 C 
ATOM     21  C   UNL     1       3.332   1.832  18.183  0.00  0.00    +0.000 C 
ENDBRANCH  19  20
ENDBRANCH  15  19
ENDBRANCH  14  15
ENDBRANCH  13  14
ENDBRANCH   1  13
TORSDOF 8
ENDMDL
MODEL 2
REMARK VINA RESULT:      -6.8      1.031      2.654
REMARK  Name = 
REMARK  10 active torsions:
REMARK  status: ('A' for Active; 'I' for Inactive)
REMARK    1  A    between atoms: C_1  and  C_2
REMARK    2  A    between atoms: C_2  and  C_3
REMARK    3  A    between atoms: C_3  and  N_4
REMARK    4  A    between atoms: N_4  and  C_5
REMARK    5  A    between atoms: N_4  and  C_8
REMARK    6  A    between atoms: C_5  and  C_6
REMARK    7  A    between atoms: C_6  and  C_7
REMARK    8  A    between atoms: C_8  and  C_9
REMARK    9  A    between atoms: C_9  and  C_10
REMARK   10  A    between atoms: C_12  and  O_13
REMARK                            x       y       z     vdW  Elec       q    Type
REMARK                         _______ _______ _______ _____ _____    ______ ____
ROOT
ATOM      1  C   UNL     1       5.019   4.103  17.493  0.00  0.00    +0.000 A 
ATOM      2  C   UNL     1       5.577   4.437  18.746  0.00  0.00    +0.000 A 
ATOM      3  C   UNL     1       6.778   5.135  18.842  0.00  0.00    +0.000 A 
ATOM      4  C   UNL     1       7.491   5.519  17.714  0.00  0.00    +0.000 A 
ATOM      5  C   UNL     1       6.965   5.156  16.474  0.00  0.00    +0.000 A 
ATOM      6  N   UNL     1       7.470   5.373  15.211  0.00  0.00    +0.000 N 
ATOM      7  C   UNL     1       6.638   4.828  14.269  0.00  0.00    +0.000 A 
ATOM      8  C   UNL     1       5.568   4.270  14.931  0.00  0.00    +0.000 A 
ATOM      9  C   UNL     1       5.757   4.461  16.332  0.00  0.00    +0.000 A 
ATOM     10  H   UNL     1       8.337   5.852  15.018  0.00  0.00    +0.000 HD
ENDROOT
BRANCH   3  11
ATOM     11  O   UNL     1       7.302   5.471  20.058  0.00  0.00    +0.000 OA
ATOM     12  H   UNL     1       6.570   5.647  20.672  0.00  0.00    +0.000 HD
ENDBRANCH   3  11
BRANCH   1  13
ATOM     13  C   UNL     1       3.681   3.381  17.440  0.00  0.00    +0.000 C 
BRANCH  13  14
ATOM     14  C   UNL     1       2.494   4.321  17.745  0.00  0.00    +0.000 C 
BRANCH  14  15
ATOM     15  N   UNL     1       2.280   4.670  19.173  0.00  0.00    +0.000 NA
BRANCH  15  16
ATOM     16  C   UNL     1       2.249   6.143  19.298  0.00  0.00    +0.000 C 
BRANCH  16  18
ATOM     17  C   UNL     1       2.323   8.393  18.077  0.00  0.00    +0.000 C 
ATOM     18  C   UNL     1       2.833   6.963  18.137  0.00  0.00    +0.000 C 
ENDBRANCH  16  18
ENDBRANCH  15  16
BRANCH  15  19
ATOM     19  C   UNL     1       1.105   4.004  19.764  0.00  0.00    +0.000 C 
BRANCH  19  20
ATOM     20  C   UNL     1       1.340   3.292  21.103  0.00  0.00    +0.000 C 
ATOM     21  C   UNL     1       2.749   2.726  21.196  0.00  0.00    +0.000 C 
ENDBRANCH  19  20
ENDBRANCH  15  19
ENDBRANCH  14  15
ENDBRANCH  13  14
ENDBRANCH   1  13
TORSDOF 8
ENDMDL
MODEL 3
REMARK VINA RESULT:      -6.8      0.814      1.148
REMARK  Name = 
REMARK  10 active torsions:
REMARK  status: ('A' for Active; 'I' for Inactive)
REMARK    1  A    between atoms: C_1  and  C_2
REMARK    2  A    between atoms: C_2  and  C_3
REMARK    3  A    between atoms: C_3  and  N_4
REMARK    4  A    between atoms: N_4  and  C_5
REMARK    5  A    between atoms: N_4  and  C_8
REMARK    6  A    between atoms: C_5  and  C_6
REMARK    7  A    between atoms: C_6  and  C_7
REMARK    8  A    between atoms: C_8  and  C_9
REMARK    9  A    between atoms: C_9  and  C_10
REMARK   10  A    between atoms: C_12  and  O_13
REMARK                            x       y       z     vdW  Elec       q    Type
REMARK                         _______ _______ _______ _____ _____    ______ ____
ROOT
ATOM      1  C   UNL     1       4.899   5.504  17.936  0.00  0.00    +0.000 A 
ATOM      2  C   UNL     1       5.607   5.550  19.156  0.00  0.00    +0.000 A 
ATOM      3  C   UNL     1       6.985   5.360  19.203  0.00  0.00    +0.000 A 
ATOM      4  C   UNL     1       7.725   5.100  18.056  0.00  0.00    +0.000 A 
ATOM      5  C   UNL     1       7.024   5.013  16.853  0.00  0.00    +0.000 A 
ATOM      6  N   UNL     1       7.490   4.737  15.586  0.00  0.00    +0.000 N 
ATOM      7  C   UNL     1       6.453   4.729  14.693  0.00  0.00    +0.000 A 
ATOM      8  C   UNL     1       5.302   5.026  15.387  0.00  0.00    +0.000 A 
ATOM      9  C   UNL     1       5.640   5.205  16.761  0.00  0.00    +0.000 A 
ATOM     10  H   UNL     1       8.457   4.553  15.361  0.00  0.00    +0.000 HD
ENDROOT
BRANCH   3  11
ATOM     11  O   UNL     1       7.667   5.426  20.385  0.00  0.00    +0.000 OA
ATOM     12  H   UNL     1       8.597   5.625  20.194  0.00  0.00    +0.000 HD
ENDBRANCH   3  11
BRANCH   1  13
ATOM     13  C   UNL     1       3.400   5.764  17.933  0.00  0.00    +0.000 C 
BRANCH  13  14
ATOM     14  C   UNL     1       2.590   4.529  17.485  0.00  0.00    +0.000 C 
BRANCH  14  15
ATOM     15  N   UNL     1       2.409   3.457  18.497  0.00  0.00    +0.000 NA
BRANCH  15  16
ATOM     16  C   UNL     1       1.082   3.623  19.127  0.00  0.00    +0.000 C 
BRANCH  16  18
ATOM     17  C   UNL     1       2.234   4.536  21.224  0.00  0.00    +0.000 C 
ATOM     18  C   UNL     1       1.041   3.787  20.655  0.00  0.00    +0.000 C 
ENDBRANCH  16  18
ENDBRANCH  15  16
BRANCH  15  19
ATOM     19  C   UNL     1       2.639   2.104  17.957  0.00  0.00    +0.000 C 
BRANCH  19  20
ATOM     20  C   UNL     1       3.875   1.369  18.495  0.00  0.00    +0.000 C 
ATOM     21  C   UNL     1       4.412   2.027  19.758  0.00  0.00    +0.000 C 
ENDBRANCH  19  20
ENDBRANCH  15  19
ENDBRANCH  14  15
ENDBRANCH  13  14
ENDBRANCH   1  13
TORSDOF 8
ENDMDL
MODEL 4
REMARK VINA RESULT:      -6.5      1.085      2.151
REMARK  Name = 
REMARK  10 active torsions:
REMARK  status: ('A' for Active; 'I' for Inactive)
REMARK    1  A    between atoms: C_1  and  C_2
REMARK    2  A    between atoms: C_2  and  C_3
REMARK    3  A    between atoms: C_3  and  N_4
REMARK    4  A    between atoms: N_4  and  C_5
REMARK    5  A    between atoms: N_4  and  C_8
REMARK    6  A    between atoms: C_5  and  C_6
REMARK    7  A    between atoms: C_6  and  C_7
REMARK    8  A    between atoms: C_8  and  C_9
REMARK    9  A    between atoms: C_9  and  C_10
REMARK   10  A    between atoms: C_12  and  O_13
REMARK                            x       y       z     vdW  Elec       q    Type
REMARK                         _______ _______ _______ _____ _____    ______ ____
ROOT
ATOM      1  C   UNL     1       4.976   4.084  17.203  0.00  0.00    +0.000 A 
ATOM      2  C   UNL     1       5.457   4.390  18.495  0.00  0.00    +0.000 A 
ATOM      3  C   UNL     1       6.675   5.039  18.680  0.00  0.00    +0.000 A 
ATOM      4  C   UNL     1       7.480   5.400  17.607  0.00  0.00    +0.000 A 
ATOM      5  C   UNL     1       7.028   5.064  16.331  0.00  0.00    +0.000 A 
ATOM      6  N   UNL     1       7.628   5.267  15.107  0.00  0.00    +0.000 N 
ATOM      7  C   UNL     1       6.844   4.760  14.106  0.00  0.00    +0.000 A 
ATOM      8  C   UNL     1       5.709   4.241  14.688  0.00  0.00    +0.000 A 
ATOM      9  C   UNL     1       5.807   4.418  16.099  0.00  0.00    +0.000 A 
ATOM     10  H   UNL     1       8.525   5.712  14.979  0.00  0.00    +0.000 HD
ENDROOT
BRANCH   3  11
ATOM     11  O   UNL     1       7.125   5.349  19.932  0.00  0.00    +0.000 OA
ATOM     12  H   UNL     1       8.045   5.049  20.012  0.00  0.00    +0.000 HD
ENDBRANCH   3  11
BRANCH   1  13
ATOM     13  C   UNL     1       3.618   3.416  17.052  0.00  0.00    +0.000 C 
BRANCH  13  14
ATOM     14  C   UNL     1       2.854   3.328  18.391  0.00  0.00    +0.000 C 
BRANCH  14  15
ATOM     15  N   UNL     1       1.638   4.173  18.512  0.00  0.00    +0.000 NA
BRANCH  15  16
ATOM     16  C   UNL     1       0.899   3.763  19.726  0.00  0.00    +0.000 C 
BRANCH  16  18
ATOM     17  C   UNL     1       2.128   3.159  21.891  0.00  0.00    +0.000 C 
ATOM     18  C   UNL     1       1.522   2.656  20.592  0.00  0.00    +0.000 C 
ENDBRANCH  16  18
ENDBRANCH  15  16
BRANCH  15  19
ATOM     19  C   UNL     1       1.927   5.618  18.458  0.00  0.00    +0.000 C 
BRANCH  19  20
ATOM     20  C   UNL     1       2.644   6.204  19.682  0.00  0.00    +0.000 C 
ATOM     21  C   UNL     1       1.889   7.393  20.257  0.00  0.00    +0.000 C 
ENDBRANCH  19  20
ENDBRANCH  15  19
ENDBRANCH  14  15
ENDBRANCH  13  14
ENDBRANCH   1  13
TORSDOF 8
ENDMDL
MODEL 5
REMARK VINA RESULT:      -6.5      2.011      5.709
REMARK  Name = 
REMARK  10 active torsions:
REMARK  status: ('A' for Active; 'I' for Inactive)
REMARK    1  A    between atoms: C_1  and  C_2
REMARK    2  A    between atoms: C_2  and  C_3
REMARK    3  A    between atoms: C_3  and  N_4
REMARK    4  A    between atoms: N_4  and  C_5
REMARK    5  A    between atoms: N_4  and  C_8
REMARK    6  A    between atoms: C_5  and  C_6
REMARK    7  A    between atoms: C_6  and  C_7
REMARK    8  A    between atoms: C_8  and  C_9
REMARK    9  A    between atoms: C_9  and  C_10
REMARK   10  A    between atoms: C_12  and  O_13
REMARK                            x       y       z     vdW  Elec       q    Type
REMARK                         _______ _______ _______ _____ _____    ______ ____
ROOT
ATOM      1  C   UNL     1       2.999   5.108  18.364  0.00  0.00    +0.000 A 
ATOM      2  C   UNL     1       2.966   6.293  19.131  0.00  0.00    +0.000 A 
ATOM      3  C   UNL     1       2.136   6.415  20.242  0.00  0.00    +0.000 A 
ATOM      4  C   UNL     1       1.290   5.386  20.637  0.00  0.00    +0.000 A 
ATOM      5  C   UNL     1       1.290   4.228  19.860  0.00  0.00    +0.000 A 
ATOM      6  N   UNL     1       0.539   3.081  19.998  0.00  0.00    +0.000 N 
ATOM      7  C   UNL     1       0.842   2.195  18.998  0.00  0.00    +0.000 A 
ATOM      8  C   UNL     1       1.818   2.768  18.215  0.00  0.00    +0.000 A 
ATOM      9  C   UNL     1       2.114   4.061  18.740  0.00  0.00    +0.000 A 
ATOM     10  H   UNL     1      -0.144   2.930  20.726  0.00  0.00    +0.000 HD
ENDROOT
BRANCH   3  11
ATOM     11  O   UNL     1       2.123   7.558  20.990  0.00  0.00    +0.000 OA
ATOM     12  H   UNL     1       2.982   7.646  21.434  0.00  0.00    +0.000 HD
ENDBRANCH   3  11
BRANCH   1  13
ATOM     13  C   UNL     1       3.958   5.007  17.188  0.00  0.00    +0.000 C 
BRANCH  13  14
ATOM     14  C   UNL     1       4.769   6.304  16.978  0.00  0.00    +0.000 C 
BRANCH  14  15
ATOM     15  N   UNL     1       5.868   6.239  15.980  0.00  0.00    +0.000 NA
BRANCH  15  16
ATOM     16  C   UNL     1       7.121   5.891  16.684  0.00  0.00    +0.000 C 
BRANCH  16  18
ATOM     17  C   UNL     1       7.786   5.821  19.156  0.00  0.00    +0.000 C 
ATOM     18  C   UNL     1       7.465   6.689  17.951  0.00  0.00    +0.000 C 
ENDBRANCH  16  18
ENDBRANCH  15  16
BRANCH  15  19
ATOM     19  C   UNL     1       5.567   5.352  14.841  0.00  0.00    +0.000 C 
BRANCH  19  20
ATOM     20  C   UNL     1       6.738   4.507  14.322  0.00  0.00    +0.000 C 
ATOM     21  C   UNL     1       6.374   3.772  13.041  0.00  0.00    +0.000 C 
ENDBRANCH  19  20
ENDBRANCH  15  19
ENDBRANCH  14  15
ENDBRANCH  13  14
ENDBRANCH   1  13
TORSDOF 8
ENDMDL
MODEL 6
REMARK VINA RESULT:      -6.5      1.557      2.674
REMARK  Name = 
REMARK  10 active torsions:
REMARK  status: ('A' for Active; 'I' for Inactive)
REMARK    1  A    between atoms: C_1  and  C_2
REMARK    2  A    between atoms: C_2  and  C_3
REMARK    3  A    between atoms: C_3  and  N_4
REMARK    4  A    between atoms: N_4  and  C_5
REMARK    5  A    between atoms: N_4  and  C_8
REMARK    6  A    between atoms: C_5  and  C_6
REMARK    7  A    between atoms: C_6  and  C_7
REMARK    8  A    between atoms: C_8  and  C_9
REMARK    9  A    between atoms: C_9  and  C_10
REMARK   10  A    between atoms: C_12  and  O_13
REMARK                            x       y       z     vdW  Elec       q    Type
REMARK                         _______ _______ _______ _____ _____    ______ ____
ROOT
ATOM      1  C   UNL     1       4.943   4.643  17.905  0.00  0.00    +0.000 A 
ATOM      2  C   UNL     1       5.626   4.883  19.116  0.00  0.00    +0.000 A 
ATOM      3  C   UNL     1       6.953   5.305  19.129  0.00  0.00    +0.000 A 
ATOM      4  C   UNL     1       7.671   5.492  17.955  0.00  0.00    +0.000 A 
ATOM      5  C   UNL     1       7.012   5.217  16.756  0.00  0.00    +0.000 A 
ATOM      6  N   UNL     1       7.483   5.282  15.462  0.00  0.00    +0.000 N 
ATOM      7  C   UNL     1       6.504   4.906  14.583  0.00  0.00    +0.000 A 
ATOM      8  C   UNL     1       5.376   4.613  15.316  0.00  0.00    +0.000 A 
ATOM      9  C   UNL     1       5.677   4.799  16.697  0.00  0.00    +0.000 A 
ATOM     10  H   UNL     1       8.422   5.555  15.211  0.00  0.00    +0.000 HD
ENDROOT
BRANCH   3  11
ATOM     11  O   UNL     1       7.602   5.554  20.305  0.00  0.00    +0.000 OA
ATOM     12  H   UNL     1       6.977   5.423  21.036  0.00  0.00    +0.000 HD
ENDBRANCH   3  11
BRANCH   1  13
ATOM     13  C   UNL     1       3.480   4.229  17.943  0.00  0.00    +0.000 C 
BRANCH  13  14
ATOM     14  C   UNL     1       2.542   5.413  18.267  0.00  0.00    +0.000 C 
BRANCH  14  15
ATOM     15  N   UNL     1       2.460   5.816  19.694  0.00  0.00    +0.000 NA
BRANCH  15  16
ATOM     16  C   UNL     1       2.144   7.259  19.758  0.00  0.00    +0.000 C 
BRANCH  16  18
ATOM     17  C   UNL     1       0.958   9.218  20.904  0.00  0.00    +0.000 C 
ATOM     18  C   UNL     1       1.376   7.760  20.991  0.00  0.00    +0.000 C 
ENDBRANCH  16  18
ENDBRANCH  15  16
BRANCH  15  19
ATOM     19  C   UNL     1       1.540   4.976  20.483  0.00  0.00    +0.000 C 
BRANCH  19  20
ATOM     20  C   UNL     1       2.200   3.972  21.437  0.00  0.00    +0.000 C 
ATOM     21  C   UNL     1       1.445   2.652  21.472  0.00  0.00    +0.000 C 
ENDBRANCH  19  20
ENDBRANCH  15  19
ENDBRANCH  14  15
ENDBRANCH  13  14
ENDBRANCH   1  13
TORSDOF 8
ENDMDL
MODEL 7
REMARK VINA RESULT:      -6.5      1.047      2.137
REMARK  Name = 
REMARK  10 active torsions:
REMARK  status: ('A' for Active; 'I' for Inactive)
REMARK    1  A    between atoms: C_1  and  C_2
REMARK    2  A    between atoms: C_2  and  C_3
REMARK    3  A    between atoms: C_3  and  N_4
REMARK    4  A    between atoms: N_4  and  C_5
REMARK    5  A    between atoms: N_4  and  C_8
REMARK    6  A    between atoms: C_5  and  C_6
REMARK    7  A    between atoms: C_6  and  C_7
REMARK    8  A    between atoms: C_8  and  C_9
REMARK    9  A    between atoms: C_9  and  C_10
REMARK   10  A    between atoms: C_12  and  O_13
REMARK                            x       y       z     vdW  Elec       q    Type
REMARK                         _______ _______ _______ _____ _____    ______ ____
ROOT
ATOM      1  C   UNL     1       5.158   4.122  17.661  0.00  0.00    +0.000 A 
ATOM      2  C   UNL     1       5.745   4.504  18.887  0.00  0.00    +0.000 A 
ATOM      3  C   UNL     1       6.918   5.252  18.928  0.00  0.00    +0.000 A 
ATOM      4  C   UNL     1       7.575   5.643  17.768  0.00  0.00    +0.000 A 
ATOM      5  C   UNL     1       7.021   5.235  16.554  0.00  0.00    +0.000 A 
ATOM      6  N   UNL     1       7.472   5.448  15.270  0.00  0.00    +0.000 N 
ATOM      7  C   UNL     1       6.631   4.851  14.369  0.00  0.00    +0.000 A 
ATOM      8  C   UNL     1       5.610   4.262  15.079  0.00  0.00    +0.000 A 
ATOM      9  C   UNL     1       5.839   4.489  16.468  0.00  0.00    +0.000 A 
ATOM     10  H   UNL     1       8.311   5.959  15.037  0.00  0.00    +0.000 HD
ENDROOT
BRANCH   3  11
ATOM     11  O   UNL     1       7.470   5.634  20.118  0.00  0.00    +0.000 OA
ATOM     12  H   UNL     1       7.128   5.054  20.817  0.00  0.00    +0.000 HD
ENDBRANCH   3  11
BRANCH   1  13
ATOM     13  C   UNL     1       3.851   3.346  17.670  0.00  0.00    +0.000 C 
BRANCH  13  14
ATOM     14  C   UNL     1       2.617   4.270  17.579  0.00  0.00    +0.000 C 
BRANCH  14  15
ATOM     15  N   UNL     1       2.080   4.779  18.867  0.00  0.00    +0.000 NA
BRANCH  15  16
ATOM     16  C   UNL     1       2.440   3.824  19.937  0.00  0.00    +0.000 C 
BRANCH  16  18
ATOM     17  C   UNL     1       1.473   2.432  21.857  0.00  0.00    +0.000 C 
ATOM     18  C   UNL     1       1.545   3.794  21.186  0.00  0.00    +0.000 C 
ENDBRANCH  16  18
ENDBRANCH  15  16
BRANCH  15  19
ATOM     19  C   UNL     1       2.485   6.167  19.157  0.00  0.00    +0.000 C 
BRANCH  19  20
ATOM     20  C   UNL     1       2.462   7.134  17.965  0.00  0.00    +0.000 C 
ATOM     21  C   UNL     1       3.866   7.570  17.571  0.00  0.00    +0.000 C 
ENDBRANCH  19  20
ENDBRANCH  15  19
ENDBRANCH  14  15
ENDBRANCH  13  14
ENDBRANCH   1  13
TORSDOF 8
ENDMDL
MODEL 8
REMARK VINA RESULT:      -6.4      1.347      2.734
REMARK  Name = 
REMARK  10 active torsions:
REMARK  status: ('A' for Active; 'I' for Inactive)
REMARK    1  A    between atoms: C_1  and  C_2
REMARK    2  A    between atoms: C_2  and  C_3
REMARK    3  A    between atoms: C_3  and  N_4
REMARK    4  A    between atoms: N_4  and  C_5
REMARK    5  A    between atoms: N_4  and  C_8
REMARK    6  A    between atoms: C_5  and  C_6
REMARK    7  A    between atoms: C_6  and  C_7
REMARK    8  A    between atoms: C_8  and  C_9
REMARK    9  A    between atoms: C_9  and  C_10
REMARK   10  A    between atoms: C_12  and  O_13
REMARK                            x       y       z     vdW  Elec       q    Type
REMARK                         _______ _______ _______ _____ _____    ______ ____
ROOT
ATOM      1  C   UNL     1       5.775   4.648  18.410  0.00  0.00    +0.000 A 
ATOM      2  C   UNL     1       6.704   5.440  19.119  0.00  0.00    +0.000 A 
ATOM      3  C   UNL     1       7.551   6.328  18.461  0.00  0.00    +0.000 A 
ATOM      4  C   UNL     1       7.534   6.464  17.079  0.00  0.00    +0.000 A 
ATOM      5  C   UNL     1       6.645   5.655  16.371  0.00  0.00    +0.000 A 
ATOM      6  N   UNL     1       6.442   5.558  15.011  0.00  0.00    +0.000 N 
ATOM      7  C   UNL     1       5.484   4.618  14.743  0.00  0.00    +0.000 A 
ATOM      8  C   UNL     1       5.045   4.115  15.946  0.00  0.00    +0.000 A 
ATOM      9  C   UNL     1       5.771   4.755  16.993  0.00  0.00    +0.000 A 
ATOM     10  H   UNL     1       6.944   6.096  14.320  0.00  0.00    +0.000 HD
ENDROOT
BRANCH   3  11
ATOM     11  O   UNL     1       8.435   7.105  19.156  0.00  0.00    +0.000 OA
ATOM     12  H   UNL     1       8.901   7.679  18.527  0.00  0.00    +0.000 HD
ENDBRANCH   3  11
BRANCH   1  13
ATOM     13  C   UNL     1       4.839   3.728  19.179  0.00  0.00    +0.000 C 
BRANCH  13  14
ATOM     14  C   UNL     1       3.352   4.049  18.916  0.00  0.00    +0.000 C 
BRANCH  14  15
ATOM     15  N   UNL     1       2.652   4.834  19.964  0.00  0.00    +0.000 NA
BRANCH  15  16
ATOM     16  C   UNL     1       2.810   6.273  19.658  0.00  0.00    +0.000 C 
BRANCH  16  18
ATOM     17  C   UNL     1       3.578   7.564  17.584  0.00  0.00    +0.000 C 
ATOM     18  C   UNL     1       2.483   6.730  18.228  0.00  0.00    +0.000 C 
ENDBRANCH  16  18
ENDBRANCH  15  16
BRANCH  15  19
ATOM     19  C   UNL     1       1.249   4.424  20.158  0.00  0.00    +0.000 C 
BRANCH  19  20
ATOM     20  C   UNL     1       1.029   2.961  20.565  0.00  0.00    +0.000 C 
ATOM     21  C   UNL     1       1.797   2.609  21.831  0.00  0.00    +0.000 C 
ENDBRANCH  19  20
ENDBRANCH  15  19
ENDBRANCH  14  15
ENDBRANCH  13  14
ENDBRANCH   1  13
TORSDOF 8
ENDMDL
MODEL 9
REMARK VINA RESULT:      -6.4      1.451      2.147
REMARK  Name = 
REMARK  10 active torsions:
REMARK  status: ('A' for Active; 'I' for Inactive)
REMARK    1  A    between atoms: C_1  and  C_2
REMARK    2  A    between atoms: C_2  and  C_3
REMARK    3  A    between atoms: C_3  and  N_4
REMARK    4  A    between atoms: N_4  and  C_5
REMARK    5  A    between atoms: N_4  and  C_8
REMARK    6  A    between atoms: C_5  and  C_6
REMARK    7  A    between atoms: C_6  and  C_7
REMARK    8  A    between atoms: C_8  and  C_9
REMARK    9  A    between atoms: C_9  and  C_10
REMARK   10  A    between atoms: C_12  and  O_13
REMARK                            x       y       z     vdW  Elec       q    Type
REMARK                         _______ _______ _______ _____ _____    ______ ____
ROOT
ATOM      1  C   UNL     1       5.868   4.710  18.388  0.00  0.00    +0.000 A 
ATOM      2  C   UNL     1       6.790   5.517  19.089  0.00  0.00    +0.000 A 
ATOM      3  C   UNL     1       7.620   6.415  18.424  0.00  0.00    +0.000 A 
ATOM      4  C   UNL     1       7.592   6.548  17.042  0.00  0.00    +0.000 A 
ATOM      5  C   UNL     1       6.711   5.725  16.340  0.00  0.00    +0.000 A 
ATOM      6  N   UNL     1       6.501   5.622  14.982  0.00  0.00    +0.000 N 
ATOM      7  C   UNL     1       5.554   4.668  14.722  0.00  0.00    +0.000 A 
ATOM      8  C   UNL     1       5.130   4.161  15.929  0.00  0.00    +0.000 A 
ATOM      9  C   UNL     1       5.854   4.814  16.970  0.00  0.00    +0.000 A 
ATOM     10  H   UNL     1       6.991   6.166  14.287  0.00  0.00    +0.000 HD
ENDROOT
BRANCH   3  11
ATOM     11  O   UNL     1       8.497   7.206  19.111  0.00  0.00    +0.000 OA
ATOM     12  H   UNL     1       8.230   7.224  20.044  0.00  0.00    +0.000 HD
ENDBRANCH   3  11
BRANCH   1  13
ATOM     13  C   UNL     1       4.950   3.778  19.164  0.00  0.00    +0.000 C 
BRANCH  13  14
ATOM     14  C   UNL     1       3.751   4.522  19.791  0.00  0.00    +0.000 C 
BRANCH  14  15
ATOM     15  N   UNL     1       2.454   4.397  19.079  0.00  0.00    +0.000 NA
BRANCH  15  16
ATOM     16  C   UNL     1       1.365   4.403  20.080  0.00  0.00    +0.000 C 
BRANCH  16  18
ATOM     17  C   UNL     1       1.597   2.539  21.821  0.00  0.00    +0.000 C 
ATOM     18  C   UNL     1       0.866   3.041  20.588  0.00  0.00    +0.000 C 
ENDBRANCH  16  18
ENDBRANCH  15  16
BRANCH  15  19
ATOM     19  C   UNL     1       2.278   5.400  18.012  0.00  0.00    +0.000 C 
BRANCH  19  20
ATOM     20  C   UNL     1       2.496   6.862  18.425  0.00  0.00    +0.000 C 
ATOM     21  C   UNL     1       3.565   7.531  17.573  0.00  0.00    +0.000 C 
ENDBRANCH  19  20
ENDBRANCH  15  19
ENDBRANCH  14  15
ENDBRANCH  13  14
ENDBRANCH   1  13
TORSDOF 8
ENDMDL
