MODEL 1
REMARK VINA RESULT:      -8.6      0.000      0.000
REMARK  Name = 
REMARK  6 active torsions:
REMARK  status: ('A' for Active; 'I' for Inactive)
REMARK    1  A    between atoms: C_7  and  O_8
REMARK    2  A    between atoms: O_8  and  C_9
REMARK    3  A    between atoms: C_9  and  C_10
REMARK    4  A    between atoms: C_10  and  C_11
REMARK    5  A    between atoms: C_11  and  N_12
REMARK    6  A    between atoms: N_15  and  C_16
REMARK                            x       y       z     vdW  Elec       q    Type
REMARK                         _______ _______ _______ _____ _____    ______ ____
ROOT
ATOM      1  C   UNL     1       1.100   3.676  19.713  0.00  0.00    +0.000 C 
ENDROOT
BRANCH   1   2
ATOM      2  C   UNL     1       1.449   4.564  20.900  0.00  0.00    +0.000 C 
BRANCH   2   3
ATOM      3  O   UNL     1       2.466   5.464  20.452  0.00  0.00    +0.000 OA
BRANCH   3  10
ATOM      4  O   UNL     1      -0.084  12.593  20.073  0.00  0.00    +0.000 OA
ATOM      5  C   UNL     1       0.200  11.413  20.277  0.00  0.00    +0.000 A 
ATOM      6  C   UNL     1      -0.107  10.779  21.583  0.00  0.00    +0.000 A 
ATOM      7  C   UNL     1       0.204   9.498  21.826  0.00  0.00    +0.000 A 
ATOM      8  C   UNL     1       0.905   8.717  20.809  0.00  0.00    +0.000 A 
ATOM      9  C   UNL     1       1.336   7.408  21.049  0.00  0.00    +0.000 A 
ATOM     10  C   UNL     1       2.058   6.710  20.074  0.00  0.00    +0.000 A 
ATOM     11  C   UNL     1       2.319   7.307  18.839  0.00  0.00    +0.000 A 
ATOM     12  C   UNL     1       1.872   8.596  18.596  0.00  0.00    +0.000 A 
ATOM     13  F   UNL     1       2.136   9.167  17.409  0.00  0.00    +0.000 F 
ATOM     14  C   UNL     1       1.186   9.307  19.570  0.00  0.00    +0.000 A 
ATOM     15  N   UNL     1       0.798  10.629  19.336  0.00  0.00    +0.000 N 
ATOM     16  H   UNL     1       1.017  11.062  18.444  0.00  0.00    +0.000 HD
ENDBRANCH   3  10
ENDBRANCH   2   3
ENDBRANCH   1   2
BRANCH   1  17
ATOM     17  C   UNL     1       1.599   2.239  19.870  0.00  0.00    +0.000 C 
BRANCH  17  18
ATOM     18  N   UNL     1       2.539   1.827  18.825  0.00  0.00    +0.000 NA
ATOM     19  C   UNL     1       2.439   2.615  17.569  0.00  0.00    +0.000 C 
ATOM     20  C   UNL     1       3.086   4.023  17.564  0.00  0.00    +0.000 C 
ATOM     21  N   UNL     1       4.455   3.926  18.071  0.00  0.00    +0.000 N 
ATOM     22  C   UNL     1       4.585   3.275  19.380  0.00  0.00    +0.000 C 
ATOM     23  C   UNL     1       3.940   1.873  19.317  0.00  0.00    +0.000 C 
BRANCH  21  24
ATOM     24  C   UNL     1       5.484   4.702  17.568  0.00  0.00    +0.000 A 
ATOM     25  C   UNL     1       6.094   5.709  18.349  0.00  0.00    +0.000 A 
ATOM     26  C   UNL     1       7.122   6.506  17.859  0.00  0.00    +0.000 A 
ATOM     27  C   UNL     1       7.572   6.352  16.554  0.00  0.00    +0.000 A 
ATOM     28  C   UNL     1       6.956   5.388  15.738  0.00  0.00    +0.000 A 
ATOM     29  S   UNL     1       7.323   5.068  14.081  0.00  0.00    +0.000 S 
ATOM     30  C   UNL     1       6.130   3.863  13.968  0.00  0.00    +0.000 A 
ATOM     31  C   UNL     1       5.458   3.706  15.152  0.00  0.00    +0.000 A 
ATOM     32  C   UNL     1       5.931   4.564  16.212  0.00  0.00    +0.000 A 
ENDBRANCH  21  24
ENDBRANCH  17  18
ENDBRANCH   1  17
TORSDOF 6
ENDMDL
MODEL 2
REMARK VINA RESULT:      -8.6      6.416      8.544
REMARK  Name = 
REMARK  6 active torsions:
REMARK  status: ('A' for Active; 'I' for Inactive)
REMARK    1  A    between atoms: C_7  and  O_8
REMARK    2  A    between atoms: O_8  and  C_9
REMARK    3  A    between atoms: C_9  and  C_10
REMARK    4  A    between atoms: C_10  and  C_11
REMARK    5  A    between atoms: C_11  and  N_12
REMARK    6  A    between atoms: N_15  and  C_16
REMARK                            x       y       z     vdW  Elec       q    Type
REMARK                         _______ _______ _______ _____ _____    ______ ____
ROOT
ATOM      1  C   UNL     1       8.190   8.328  18.368  0.00  0.00    +0.000 C 
ENDROOT
BRANCH   1   2
ATOM      2  C   UNL     1       8.631   9.755  18.067  0.00  0.00    +0.000 C 
BRANCH   2   3
ATOM      3  O   UNL     1       9.346  10.213  19.218  0.00  0.00    +0.000 OA
BRANCH   3  10
ATOM      4  O   UNL     1      12.333  17.074  20.425  0.00  0.00    +0.000 OA
ATOM      5  C   UNL     1      11.719  16.009  20.365  0.00  0.00    +0.000 A 
ATOM      6  C   UNL     1      10.890  15.552  21.509  0.00  0.00    +0.000 A 
ATOM      7  C   UNL     1      10.223  14.391  21.465  0.00  0.00    +0.000 A 
ATOM      8  C   UNL     1      10.347  13.527  20.293  0.00  0.00    +0.000 A 
ATOM      9  C   UNL     1       9.748  12.265  20.239  0.00  0.00    +0.000 A 
ATOM     10  C   UNL     1       9.938  11.438  19.125  0.00  0.00    +0.000 A 
ATOM     11  C   UNL     1      10.698  11.888  18.043  0.00  0.00    +0.000 A 
ATOM     12  C   UNL     1      11.273  13.149  18.091  0.00  0.00    +0.000 A 
ATOM     13  F   UNL     1      12.011  13.571  17.051  0.00  0.00    +0.000 F 
ATOM     14  C   UNL     1      11.118  13.960  19.206  0.00  0.00    +0.000 A 
ATOM     15  N   UNL     1      11.756  15.201  19.268  0.00  0.00    +0.000 N 
ATOM     16  H   UNL     1      12.328  15.507  18.488  0.00  0.00    +0.000 HD
ENDBRANCH   3  10
ENDBRANCH   2   3
ENDBRANCH   1   2
BRANCH   1  17
ATOM     17  C   UNL     1       7.487   7.654  17.190  0.00  0.00    +0.000 C 
BRANCH  17  18
ATOM     18  N   UNL     1       7.635   6.197  17.173  0.00  0.00    +0.000 NA
ATOM     19  C   UNL     1       7.509   5.557  18.508  0.00  0.00    +0.000 C 
ATOM     20  C   UNL     1       6.078   5.382  19.077  0.00  0.00    +0.000 C 
ATOM     21  N   UNL     1       5.229   4.759  18.061  0.00  0.00    +0.000 N 
ATOM     22  C   UNL     1       5.216   5.443  16.763  0.00  0.00    +0.000 C 
ATOM     23  C   UNL     1       6.664   5.571  16.240  0.00  0.00    +0.000 C 
BRANCH  21  24
ATOM     24  C   UNL     1       4.238   3.850  18.386  0.00  0.00    +0.000 A 
ATOM     25  C   UNL     1       4.237   2.543  17.850  0.00  0.00    +0.000 A 
ATOM     26  C   UNL     1       3.246   1.617  18.155  0.00  0.00    +0.000 A 
ATOM     27  C   UNL     1       2.191   1.964  18.991  0.00  0.00    +0.000 A 
ATOM     28  C   UNL     1       2.141   3.271  19.505  0.00  0.00    +0.000 A 
ATOM     29  S   UNL     1       0.901   3.923  20.515  0.00  0.00    +0.000 S 
ATOM     30  C   UNL     1       1.645   5.450  20.576  0.00  0.00    +0.000 A 
ATOM     31  C   UNL     1       2.803   5.476  19.843  0.00  0.00    +0.000 A 
ATOM     32  C   UNL     1       3.133   4.214  19.226  0.00  0.00    +0.000 A 
ENDBRANCH  21  24
ENDBRANCH  17  18
ENDBRANCH   1  17
TORSDOF 6
ENDMDL
MODEL 3
REMARK VINA RESULT:      -8.5      3.568      8.339
REMARK  Name = 
REMARK  6 active torsions:
REMARK  status: ('A' for Active; 'I' for Inactive)
REMARK    1  A    between atoms: C_7  and  O_8
REMARK    2  A    between atoms: O_8  and  C_9
REMARK    3  A    between atoms: C_9  and  C_10
REMARK    4  A    between atoms: C_10  and  C_11
REMARK    5  A    between atoms: C_11  and  N_12
REMARK    6  A    between atoms: N_15  and  C_16
REMARK                            x       y       z     vdW  Elec       q    Type
REMARK                         _______ _______ _______ _____ _____    ______ ____
ROOT
ATOM      1  C   UNL     1       2.099   5.028  19.496  0.00  0.00    +0.000 C 
ENDROOT
BRANCH   1   2
ATOM      2  C   UNL     1       2.635   3.720  18.926  0.00  0.00    +0.000 C 
BRANCH   2   3
ATOM      3  O   UNL     1       3.995   3.614  19.356  0.00  0.00    +0.000 OA
BRANCH   3  10
ATOM      4  O   UNL     1       8.134   5.666  13.346  0.00  0.00    +0.000 OA
ATOM      5  C   UNL     1       7.404   5.185  14.212  0.00  0.00    +0.000 A 
ATOM      6  C   UNL     1       6.284   4.285  13.837  0.00  0.00    +0.000 A 
ATOM      7  C   UNL     1       5.472   3.760  14.766  0.00  0.00    +0.000 A 
ATOM      8  C   UNL     1       5.655   4.113  16.172  0.00  0.00    +0.000 A 
ATOM      9  C   UNL     1       4.777   3.667  17.166  0.00  0.00    +0.000 A 
ATOM     10  C   UNL     1       4.947   4.075  18.495  0.00  0.00    +0.000 A 
ATOM     11  C   UNL     1       6.020   4.899  18.840  0.00  0.00    +0.000 A 
ATOM     12  C   UNL     1       6.900   5.322  17.856  0.00  0.00    +0.000 A 
ATOM     13  F   UNL     1       7.923   6.123  18.195  0.00  0.00    +0.000 F 
ATOM     14  C   UNL     1       6.719   4.951  16.532  0.00  0.00    +0.000 A 
ATOM     15  N   UNL     1       7.575   5.437  15.540  0.00  0.00    +0.000 N 
ATOM     16  H   UNL     1       8.335   6.058  15.799  0.00  0.00    +0.000 HD
ENDBRANCH   3  10
ENDBRANCH   2   3
ENDBRANCH   1   2
BRANCH   1  17
ATOM     17  C   UNL     1       1.992   6.140  18.452  0.00  0.00    +0.000 C 
BRANCH  17  18
ATOM     18  N   UNL     1       2.680   7.374  18.837  0.00  0.00    +0.000 NA
ATOM     19  C   UNL     1       2.616   8.451  17.816  0.00  0.00    +0.000 C 
ATOM     20  C   UNL     1       1.291   9.249  17.711  0.00  0.00    +0.000 C 
ATOM     21  N   UNL     1       0.894   9.701  19.045  0.00  0.00    +0.000 N 
ATOM     22  C   UNL     1       0.810   8.641  20.057  0.00  0.00    +0.000 C 
ATOM     23  C   UNL     1       2.161   7.896  20.127  0.00  0.00    +0.000 C 
BRANCH  21  24
ATOM     24  C   UNL     1       0.285  10.924  19.258  0.00  0.00    +0.000 A 
ATOM     25  C   UNL     1      -1.061  11.012  19.679  0.00  0.00    +0.000 A 
ATOM     26  C   UNL     1      -1.695  12.231  19.890  0.00  0.00    +0.000 A 
ATOM     27  C   UNL     1      -1.020  13.424  19.661  0.00  0.00    +0.000 A 
ATOM     28  C   UNL     1       0.306  13.370  19.200  0.00  0.00    +0.000 A 
ATOM     29  S   UNL     1       1.305  14.723  18.807  0.00  0.00    +0.000 S 
ATOM     30  C   UNL     1       2.606  13.730  18.349  0.00  0.00    +0.000 A 
ATOM     31  C   UNL     1       2.296  12.401  18.479  0.00  0.00    +0.000 A 
ATOM     32  C   UNL     1       0.970  12.158  18.996  0.00  0.00    +0.000 A 
ENDBRANCH  21  24
ENDBRANCH  17  18
ENDBRANCH   1  17
TORSDOF 6
ENDMDL
MODEL 4
REMARK VINA RESULT:      -8.3      3.662      8.381
REMARK  Name = 
REMARK  6 active torsions:
REMARK  status: ('A' for Active; 'I' for Inactive)
REMARK    1  A    between atoms: C_7  and  O_8
REMARK    2  A    between atoms: O_8  and  C_9
REMARK    3  A    between atoms: C_9  and  C_10
REMARK    4  A    between atoms: C_10  and  C_11
REMARK    5  A    between atoms: C_11  and  N_12
REMARK    6  A    between atoms: N_15  and  C_16
REMARK                            x       y       z     vdW  Elec       q    Type
REMARK                         _______ _______ _______ _____ _____    ______ ____
ROOT
ATOM      1  C   UNL     1       1.853   4.522  19.545  0.00  0.00    +0.000 C 
ENDROOT
BRANCH   1   2
ATOM      2  C   UNL     1       2.864   3.471  19.103  0.00  0.00    +0.000 C 
BRANCH   2   3
ATOM      3  O   UNL     1       4.134   3.887  19.612  0.00  0.00    +0.000 OA
BRANCH   3  10
ATOM      4  O   UNL     1       8.058   5.630  13.365  0.00  0.00    +0.000 OA
ATOM      5  C   UNL     1       7.358   5.194  14.278  0.00  0.00    +0.000 A 
ATOM      6  C   UNL     1       6.220   4.286  13.988  0.00  0.00    +0.000 A 
ATOM      7  C   UNL     1       5.441   3.810  14.969  0.00  0.00    +0.000 A 
ATOM      8  C   UNL     1       5.677   4.226  16.350  0.00  0.00    +0.000 A 
ATOM      9  C   UNL     1       4.835   3.833  17.395  0.00  0.00    +0.000 A 
ATOM     10  C   UNL     1       5.056   4.300  18.696  0.00  0.00    +0.000 A 
ATOM     11  C   UNL     1       6.145   5.132  18.963  0.00  0.00    +0.000 A 
ATOM     12  C   UNL     1       6.991   5.503  17.929  0.00  0.00    +0.000 A 
ATOM     13  F   UNL     1       8.030   6.312  18.192  0.00  0.00    +0.000 F 
ATOM     14  C   UNL     1       6.758   5.073  16.631  0.00  0.00    +0.000 A 
ATOM     15  N   UNL     1       7.579   5.506  15.587  0.00  0.00    +0.000 N 
ATOM     16  H   UNL     1       8.352   6.133  15.788  0.00  0.00    +0.000 HD
ENDBRANCH   3  10
ENDBRANCH   2   3
ENDBRANCH   1   2
BRANCH   1  17
ATOM     17  C   UNL     1       1.795   5.730  18.609  0.00  0.00    +0.000 C 
BRANCH  17  18
ATOM     18  N   UNL     1       2.651   6.841  19.031  0.00  0.00    +0.000 NA
ATOM     19  C   UNL     1       2.697   7.974  18.070  0.00  0.00    +0.000 C 
ATOM     20  C   UNL     1       1.487   8.941  18.057  0.00  0.00    +0.000 C 
ATOM     21  N   UNL     1       1.194   9.365  19.427  0.00  0.00    +0.000 N 
ATOM     22  C   UNL     1       1.003   8.270  20.385  0.00  0.00    +0.000 C 
ATOM     23  C   UNL     1       2.246   7.353  20.365  0.00  0.00    +0.000 C 
BRANCH  21  24
ATOM     24  C   UNL     1       0.758  10.643  19.726  0.00  0.00    +0.000 A 
ATOM     25  C   UNL     1       1.053  11.736  18.881  0.00  0.00    +0.000 A 
ATOM     26  C   UNL     1       0.633  13.030  19.167  0.00  0.00    +0.000 A 
ATOM     27  C   UNL     1      -0.080  13.298  20.329  0.00  0.00    +0.000 A 
ATOM     28  C   UNL     1      -0.351  12.239  21.212  0.00  0.00    +0.000 A 
ATOM     29  S   UNL     1      -1.173  12.358  22.726  0.00  0.00    +0.000 S 
ATOM     30  C   UNL     1      -0.996  10.697  23.043  0.00  0.00    +0.000 A 
ATOM     31  C   UNL     1      -0.322  10.061  22.033  0.00  0.00    +0.000 A 
ATOM     32  C   UNL     1       0.046  10.927  20.939  0.00  0.00    +0.000 A 
ENDBRANCH  21  24
ENDBRANCH  17  18
ENDBRANCH   1  17
TORSDOF 6
ENDMDL
MODEL 5
REMARK VINA RESULT:      -8.3      5.890      8.310
REMARK  Name = 
REMARK  6 active torsions:
REMARK  status: ('A' for Active; 'I' for Inactive)
REMARK    1  A    between atoms: C_7  and  O_8
REMARK    2  A    between atoms: O_8  and  C_9
REMARK    3  A    between atoms: C_9  and  C_10
REMARK    4  A    between atoms: C_10  and  C_11
REMARK    5  A    between atoms: C_11  and  N_12
REMARK    6  A    between atoms: N_15  and  C_16
REMARK                            x       y       z     vdW  Elec       q    Type
REMARK                         _______ _______ _______ _____ _____    ______ ____
ROOT
ATOM      1  C   UNL     1       8.029   8.263  17.120  0.00  0.00    +0.000 C 
ENDROOT
BRANCH   1   2
ATOM      2  C   UNL     1       7.882   9.536  17.944  0.00  0.00    +0.000 C 
BRANCH   2   3
ATOM      3  O   UNL     1       8.930   9.516  18.918  0.00  0.00    +0.000 OA
BRANCH   3  10
ATOM      4  O   UNL     1      12.151  16.377  18.815  0.00  0.00    +0.000 OA
ATOM      5  C   UNL     1      11.725  15.232  18.667  0.00  0.00    +0.000 A 
ATOM      6  C   UNL     1      11.715  14.600  17.323  0.00  0.00    +0.000 A 
ATOM      7  C   UNL     1      11.245  13.358  17.142  0.00  0.00    +0.000 A 
ATOM      8  C   UNL     1      10.685  12.621  18.273  0.00  0.00    +0.000 A 
ATOM      9  C   UNL     1      10.097  11.362  18.117  0.00  0.00    +0.000 A 
ATOM     10  C   UNL     1       9.516  10.712  19.212  0.00  0.00    +0.000 A 
ATOM     11  C   UNL     1       9.555  11.303  20.477  0.00  0.00    +0.000 A 
ATOM     12  C   UNL     1      10.158  12.542  20.632  0.00  0.00    +0.000 A 
ATOM     13  F   UNL     1      10.183  13.109  21.849  0.00  0.00    +0.000 F 
ATOM     14  C   UNL     1      10.705  13.209  19.546  0.00  0.00    +0.000 A 
ATOM     15  N   UNL     1      11.251  14.485  19.703  0.00  0.00    +0.000 N 
ATOM     16  H   UNL     1      11.250  14.917  20.622  0.00  0.00    +0.000 HD
ENDBRANCH   3  10
ENDBRANCH   2   3
ENDBRANCH   1   2
BRANCH   1  17
ATOM     17  C   UNL     1       7.970   6.990  17.965  0.00  0.00    +0.000 C 
BRANCH  17  18
ATOM     18  N   UNL     1       7.129   5.940  17.387  0.00  0.00    +0.000 NA
ATOM     19  C   UNL     1       6.891   4.783  18.289  0.00  0.00    +0.000 C 
ATOM     20  C   UNL     1       5.845   4.969  19.417  0.00  0.00    +0.000 C 
ATOM     21  N   UNL     1       4.612   5.512  18.845  0.00  0.00    +0.000 N 
ATOM     22  C   UNL     1       4.783   6.738  18.058  0.00  0.00    +0.000 C 
ATOM     23  C   UNL     1       5.821   6.486  16.942  0.00  0.00    +0.000 C 
BRANCH  21  24
ATOM     24  C   UNL     1       3.361   5.142  19.306  0.00  0.00    +0.000 A 
ATOM     25  C   UNL     1       2.682   5.908  20.280  0.00  0.00    +0.000 A 
ATOM     26  C   UNL     1       1.428   5.550  20.764  0.00  0.00    +0.000 A 
ATOM     27  C   UNL     1       0.805   4.391  20.316  0.00  0.00    +0.000 A 
ATOM     28  C   UNL     1       1.475   3.585  19.380  0.00  0.00    +0.000 A 
ATOM     29  S   UNL     1       0.909   2.088  18.733  0.00  0.00    +0.000 S 
ATOM     30  C   UNL     1       2.308   1.874  17.793  0.00  0.00    +0.000 A 
ATOM     31  C   UNL     1       3.194   2.905  17.966  0.00  0.00    +0.000 A 
ATOM     32  C   UNL     1       2.728   3.932  18.867  0.00  0.00    +0.000 A 
ENDBRANCH  21  24
ENDBRANCH  17  18
ENDBRANCH   1  17
TORSDOF 6
ENDMDL
MODEL 6
REMARK VINA RESULT:      -8.3      3.767      8.514
REMARK  Name = 
REMARK  6 active torsions:
REMARK  status: ('A' for Active; 'I' for Inactive)
REMARK    1  A    between atoms: C_7  and  O_8
REMARK    2  A    between atoms: O_8  and  C_9
REMARK    3  A    between atoms: C_9  and  C_10
REMARK    4  A    between atoms: C_10  and  C_11
REMARK    5  A    between atoms: C_11  and  N_12
REMARK    6  A    between atoms: N_15  and  C_16
REMARK                            x       y       z     vdW  Elec       q    Type
REMARK                         _______ _______ _______ _____ _____    ______ ____
ROOT
ATOM      1  C   UNL     1       2.273   4.866  19.589  0.00  0.00    +0.000 C 
ENDROOT
BRANCH   1   2
ATOM      2  C   UNL     1       3.720   4.569  19.967  0.00  0.00    +0.000 C 
BRANCH   2   3
ATOM      3  O   UNL     1       4.219   3.658  18.984  0.00  0.00    +0.000 OA
BRANCH   3  10
ATOM      4  O   UNL     1       8.193   5.730  12.871  0.00  0.00    +0.000 OA
ATOM      5  C   UNL     1       7.503   5.235  13.761  0.00  0.00    +0.000 A 
ATOM      6  C   UNL     1       6.466   4.223  13.437  0.00  0.00    +0.000 A 
ATOM      7  C   UNL     1       5.699   3.681  14.393  0.00  0.00    +0.000 A 
ATOM      8  C   UNL     1       5.844   4.124  15.778  0.00  0.00    +0.000 A 
ATOM      9  C   UNL     1       5.004   3.659  16.794  0.00  0.00    +0.000 A 
ATOM     10  C   UNL     1       5.132   4.151  18.099  0.00  0.00    +0.000 A 
ATOM     11  C   UNL     1       6.128   5.082  18.399  0.00  0.00    +0.000 A 
ATOM     12  C   UNL     1       6.973   5.525  17.393  0.00  0.00    +0.000 A 
ATOM     13  F   UNL     1       7.922   6.429  17.687  0.00  0.00    +0.000 F 
ATOM     14  C   UNL     1       6.830   5.069  16.091  0.00  0.00    +0.000 A 
ATOM     15  N   UNL     1       7.646   5.572  15.074  0.00  0.00    +0.000 N 
ATOM     16  H   UNL     1       8.349   6.270  15.298  0.00  0.00    +0.000 HD
ENDBRANCH   3  10
ENDBRANCH   2   3
ENDBRANCH   1   2
BRANCH   1  17
ATOM     17  C   UNL     1       2.139   5.991  18.562  0.00  0.00    +0.000 C 
BRANCH  17  18
ATOM     18  N   UNL     1       2.689   7.270  19.017  0.00  0.00    +0.000 NA
ATOM     19  C   UNL     1       2.650   8.348  17.995  0.00  0.00    +0.000 C 
ATOM     20  C   UNL     1       1.287   9.045  17.754  0.00  0.00    +0.000 C 
ATOM     21  N   UNL     1       0.722   9.455  19.039  0.00  0.00    +0.000 N 
ATOM     22  C   UNL     1       0.613   8.384  20.037  0.00  0.00    +0.000 C 
ATOM     23  C   UNL     1       2.002   7.741  20.246  0.00  0.00    +0.000 C 
BRANCH  21  24
ATOM     24  C   UNL     1       0.003  10.628  19.188  0.00  0.00    +0.000 A 
ATOM     25  C   UNL     1       0.532  11.728  19.900  0.00  0.00    +0.000 A 
ATOM     26  C   UNL     1      -0.176  12.912  20.069  0.00  0.00    +0.000 A 
ATOM     27  C   UNL     1      -1.461  13.043  19.557  0.00  0.00    +0.000 A 
ATOM     28  C   UNL     1      -2.032  11.951  18.882  0.00  0.00    +0.000 A 
ATOM     29  S   UNL     1      -3.623  11.882  18.216  0.00  0.00    +0.000 S 
ATOM     30  C   UNL     1      -3.416  10.281  17.683  0.00  0.00    +0.000 A 
ATOM     31  C   UNL     1      -2.175   9.799  18.006  0.00  0.00    +0.000 A 
ATOM     32  C   UNL     1      -1.334  10.756  18.685  0.00  0.00    +0.000 A 
ENDBRANCH  21  24
ENDBRANCH  17  18
ENDBRANCH   1  17
TORSDOF 6
ENDMDL
MODEL 7
REMARK VINA RESULT:      -8.3      6.462      8.735
REMARK  Name = 
REMARK  6 active torsions:
REMARK  status: ('A' for Active; 'I' for Inactive)
REMARK    1  A    between atoms: C_7  and  O_8
REMARK    2  A    between atoms: O_8  and  C_9
REMARK    3  A    between atoms: C_9  and  C_10
REMARK    4  A    between atoms: C_10  and  C_11
REMARK    5  A    between atoms: C_11  and  N_12
REMARK    6  A    between atoms: N_15  and  C_16
REMARK                            x       y       z     vdW  Elec       q    Type
REMARK                         _______ _______ _______ _____ _____    ______ ____
ROOT
ATOM      1  C   UNL     1       7.944   8.967  17.694  0.00  0.00    +0.000 C 
ENDROOT
BRANCH   1   2
ATOM      2  C   UNL     1       8.835   9.754  18.647  0.00  0.00    +0.000 C 
BRANCH   2   3
ATOM      3  O   UNL     1       9.618  10.636  17.838  0.00  0.00    +0.000 OA
BRANCH   3  10
ATOM      4  O   UNL     1      11.545  17.809  19.356  0.00  0.00    +0.000 OA
ATOM      5  C   UNL     1      11.326  16.671  18.942  0.00  0.00    +0.000 A 
ATOM      6  C   UNL     1      11.367  16.378  17.487  0.00  0.00    +0.000 A 
ATOM      7  C   UNL     1      11.120  15.147  17.018  0.00  0.00    +0.000 A 
ATOM      8  C   UNL     1      10.755  14.077  17.944  0.00  0.00    +0.000 A 
ATOM      9  C   UNL     1      10.396  12.802  17.496  0.00  0.00    +0.000 A 
ATOM     10  C   UNL     1       9.993  11.818  18.407  0.00  0.00    +0.000 A 
ATOM     11  C   UNL     1       9.984  12.097  19.775  0.00  0.00    +0.000 A 
ATOM     12  C   UNL     1      10.360  13.355  20.218  0.00  0.00    +0.000 A 
ATOM     13  F   UNL     1      10.339  13.619  21.535  0.00  0.00    +0.000 F 
ATOM     14  C   UNL     1      10.728  14.346  19.319  0.00  0.00    +0.000 A 
ATOM     15  N   UNL     1      11.042  15.629  19.773  0.00  0.00    +0.000 N 
ATOM     16  H   UNL     1      11.005  15.828  20.768  0.00  0.00    +0.000 HD
ENDBRANCH   3  10
ENDBRANCH   2   3
ENDBRANCH   1   2
BRANCH   1  17
ATOM     17  C   UNL     1       7.916   7.468  17.996  0.00  0.00    +0.000 C 
BRANCH  17  18
ATOM     18  N   UNL     1       7.273   6.671  16.949  0.00  0.00    +0.000 NA
ATOM     19  C   UNL     1       7.420   5.203  17.125  0.00  0.00    +0.000 C 
ATOM     20  C   UNL     1       6.506   4.521  18.175  0.00  0.00    +0.000 C 
ATOM     21  N   UNL     1       5.121   4.935  17.949  0.00  0.00    +0.000 N 
ATOM     22  C   UNL     1       4.908   6.386  17.907  0.00  0.00    +0.000 C 
ATOM     23  C   UNL     1       5.830   7.005  16.833  0.00  0.00    +0.000 C 
BRANCH  21  24
ATOM     24  C   UNL     1       4.054   4.074  18.140  0.00  0.00    +0.000 A 
ATOM     25  C   UNL     1       3.885   2.924  17.337  0.00  0.00    +0.000 A 
ATOM     26  C   UNL     1       2.816   2.052  17.506  0.00  0.00    +0.000 A 
ATOM     27  C   UNL     1       1.848   2.303  18.470  0.00  0.00    +0.000 A 
ATOM     28  C   UNL     1       1.964   3.463  19.255  0.00  0.00    +0.000 A 
ATOM     29  S   UNL     1       0.853   3.989  20.468  0.00  0.00    +0.000 S 
ATOM     30  C   UNL     1       1.760   5.387  20.804  0.00  0.00    +0.000 A 
ATOM     31  C   UNL     1       2.876   5.465  20.013  0.00  0.00    +0.000 A 
ATOM     32  C   UNL     1       3.038   4.346  19.116  0.00  0.00    +0.000 A 
ENDBRANCH  21  24
ENDBRANCH  17  18
ENDBRANCH   1  17
TORSDOF 6
ENDMDL
MODEL 8
REMARK VINA RESULT:      -8.2      3.301      6.329
REMARK  Name = 
REMARK  6 active torsions:
REMARK  status: ('A' for Active; 'I' for Inactive)
REMARK    1  A    between atoms: C_7  and  O_8
REMARK    2  A    between atoms: O_8  and  C_9
REMARK    3  A    between atoms: C_9  and  C_10
REMARK    4  A    between atoms: C_10  and  C_11
REMARK    5  A    between atoms: C_11  and  N_12
REMARK    6  A    between atoms: N_15  and  C_16
REMARK                            x       y       z     vdW  Elec       q    Type
REMARK                         _______ _______ _______ _____ _____    ______ ____
ROOT
ATOM      1  C   UNL     1       2.668   2.119  18.834  0.00  0.00    +0.000 C 
ENDROOT
BRANCH   1   2
ATOM      2  C   UNL     1       4.153   2.137  18.490  0.00  0.00    +0.000 C 
BRANCH   2   3
ATOM      3  O   UNL     1       4.258   2.670  17.167  0.00  0.00    +0.000 OA
BRANCH   3  10
ATOM      4  O   UNL     1       8.462   8.958  17.664  0.00  0.00    +0.000 OA
ATOM      5  C   UNL     1       7.818   7.915  17.772  0.00  0.00    +0.000 A 
ATOM      6  C   UNL     1       8.109   6.960  18.871  0.00  0.00    +0.000 A 
ATOM      7  C   UNL     1       7.425   5.814  18.997  0.00  0.00    +0.000 A 
ATOM      8  C   UNL     1       6.405   5.466  18.011  0.00  0.00    +0.000 A 
ATOM      9  C   UNL     1       5.733   4.240  18.045  0.00  0.00    +0.000 A 
ATOM     10  C   UNL     1       4.805   3.914  17.049  0.00  0.00    +0.000 A 
ATOM     11  C   UNL     1       4.518   4.830  16.035  0.00  0.00    +0.000 A 
ATOM     12  C   UNL     1       5.172   6.053  16.016  0.00  0.00    +0.000 A 
ATOM     13  F   UNL     1       4.899   6.925  15.031  0.00  0.00    +0.000 F 
ATOM     14  C   UNL     1       6.118   6.370  16.979  0.00  0.00    +0.000 A 
ATOM     15  N   UNL     1       6.816   7.578  16.912  0.00  0.00    +0.000 N 
ATOM     16  H   UNL     1       6.620   8.225  16.155  0.00  0.00    +0.000 HD
ENDBRANCH   3  10
ENDBRANCH   2   3
ENDBRANCH   1   2
BRANCH   1  17
ATOM     17  C   UNL     1       2.399   1.918  20.325  0.00  0.00    +0.000 C 
BRANCH  17  18
ATOM     18  N   UNL     1       1.612   2.996  20.930  0.00  0.00    +0.000 NA
ATOM     19  C   UNL     1       2.428   4.078  21.538  0.00  0.00    +0.000 C 
ATOM     20  C   UNL     1       3.062   5.113  20.574  0.00  0.00    +0.000 C 
ATOM     21  N   UNL     1       2.034   5.615  19.662  0.00  0.00    +0.000 N 
ATOM     22  C   UNL     1       1.294   4.578  18.933  0.00  0.00    +0.000 C 
ATOM     23  C   UNL     1       0.672   3.590  19.945  0.00  0.00    +0.000 C 
BRANCH  21  24
ATOM     24  C   UNL     1       2.010   6.929  19.229  0.00  0.00    +0.000 A 
ATOM     25  C   UNL     1       2.626   7.315  18.018  0.00  0.00    +0.000 A 
ATOM     26  C   UNL     1       2.621   8.631  17.570  0.00  0.00    +0.000 A 
ATOM     27  C   UNL     1       2.023   9.631  18.327  0.00  0.00    +0.000 A 
ATOM     28  C   UNL     1       1.440   9.285  19.558  0.00  0.00    +0.000 A 
ATOM     29  S   UNL     1       0.692  10.371  20.673  0.00  0.00    +0.000 S 
ATOM     30  C   UNL     1       0.352   9.127  21.779  0.00  0.00    +0.000 A 
ATOM     31  C   UNL     1       0.800   7.913  21.326  0.00  0.00    +0.000 A 
ATOM     32  C   UNL     1       1.417   7.967  20.023  0.00  0.00    +0.000 A 
ENDBRANCH  21  24
ENDBRANCH  17  18
ENDBRANCH   1  17
TORSDOF 6
ENDMDL
MODEL 9
REMARK VINA RESULT:      -8.2      0.823      1.796
REMARK  Name = 
REMARK  6 active torsions:
REMARK  status: ('A' for Active; 'I' for Inactive)
REMARK    1  A    between atoms: C_7  and  O_8
REMARK    2  A    between atoms: O_8  and  C_9
REMARK    3  A    between atoms: C_9  and  C_10
REMARK    4  A    between atoms: C_10  and  C_11
REMARK    5  A    between atoms: C_11  and  N_12
REMARK    6  A    between atoms: N_15  and  C_16
REMARK                            x       y       z     vdW  Elec       q    Type
REMARK                         _______ _______ _______ _____ _____    ______ ____
ROOT
ATOM      1  C   UNL     1       1.225   3.989  20.127  0.00  0.00    +0.000 C 
ENDROOT
BRANCH   1   2
ATOM      2  C   UNL     1       1.973   4.998  20.989  0.00  0.00    +0.000 C 
BRANCH   2   3
ATOM      3  O   UNL     1       2.709   5.835  20.092  0.00  0.00    +0.000 OA
BRANCH   3  10
ATOM      4  O   UNL     1      -0.422  12.733  20.346  0.00  0.00    +0.000 OA
ATOM      5  C   UNL     1      -0.032  11.571  20.453  0.00  0.00    +0.000 A 
ATOM      6  C   UNL     1      -0.196  10.836  21.732  0.00  0.00    +0.000 A 
ATOM      7  C   UNL     1       0.233   9.574  21.869  0.00  0.00    +0.000 A 
ATOM      8  C   UNL     1       0.922   8.917  20.761  0.00  0.00    +0.000 A 
ATOM      9  C   UNL     1       1.471   7.637  20.887  0.00  0.00    +0.000 A 
ATOM     10  C   UNL     1       2.178   7.062  19.824  0.00  0.00    +0.000 A 
ATOM     11  C   UNL     1       2.304   7.752  18.616  0.00  0.00    +0.000 A 
ATOM     12  C   UNL     1       1.740   9.012  18.487  0.00  0.00    +0.000 A 
ATOM     13  F   UNL     1       1.874   9.673  17.326  0.00  0.00    +0.000 F 
ATOM     14  C   UNL     1       1.068   9.602  19.547  0.00  0.00    +0.000 A 
ATOM     15  N   UNL     1       0.561  10.898  19.426  0.00  0.00    +0.000 N 
ATOM     16  H   UNL     1       0.682  11.401  18.553  0.00  0.00    +0.000 HD
ENDBRANCH   3  10
ENDBRANCH   2   3
ENDBRANCH   1   2
BRANCH   1  17
ATOM     17  C   UNL     1       1.649   2.543  20.388  0.00  0.00    +0.000 C 
BRANCH  17  18
ATOM     18  N   UNL     1       2.165   1.859  19.201  0.00  0.00    +0.000 NA
ATOM     19  C   UNL     1       1.808   2.516  17.916  0.00  0.00    +0.000 C 
ATOM     20  C   UNL     1       2.620   3.774  17.516  0.00  0.00    +0.000 C 
ATOM     21  N   UNL     1       4.049   3.482  17.632  0.00  0.00    +0.000 N 
ATOM     22  C   UNL     1       4.469   2.959  18.937  0.00  0.00    +0.000 C 
ATOM     23  C   UNL     1       3.640   1.700  19.273  0.00  0.00    +0.000 C 
BRANCH  21  24
ATOM     24  C   UNL     1       4.981   4.000  16.751  0.00  0.00    +0.000 A 
ATOM     25  C   UNL     1       5.235   3.385  15.505  0.00  0.00    +0.000 A 
ATOM     26  C   UNL     1       6.174   3.883  14.608  0.00  0.00    +0.000 A 
ATOM     27  C   UNL     1       6.925   5.008  14.928  0.00  0.00    +0.000 A 
ATOM     28  C   UNL     1       6.726   5.617  16.179  0.00  0.00    +0.000 A 
ATOM     29  S   UNL     1       7.583   6.984  16.795  0.00  0.00    +0.000 S 
ATOM     30  C   UNL     1       6.731   6.954  18.265  0.00  0.00    +0.000 A 
ATOM     31  C   UNL     1       5.823   5.928  18.301  0.00  0.00    +0.000 A 
ATOM     32  C   UNL     1       5.778   5.144  17.090  0.00  0.00    +0.000 A 
ENDBRANCH  21  24
ENDBRANCH  17  18
ENDBRANCH   1  17
TORSDOF 6
ENDMDL
