MODEL 1
REMARK VINA RESULT:      -9.0      0.000      0.000
REMARK  Name = 
REMARK  4 active torsions:
REMARK  status: ('A' for Active; 'I' for Inactive)
REMARK    1  A    between atoms: C_1  and  N_2
REMARK    2  A    between atoms: N_13  and  C_14
REMARK    3  A    between atoms: C_17  and  O_18
REMARK    4  A    between atoms: O_18  and  C_19
REMARK                            x       y       z     vdW  Elec       q    Type
REMARK                         _______ _______ _______ _____ _____    ______ ____
ROOT
ATOM      1  C   UNL     1       2.680   2.150  17.298  0.00  0.00    +0.000 C 
ATOM      2  N   UNL     1       3.150   3.506  17.434  0.00  0.00    +0.000 N 
ATOM      3  C   UNL     1       4.527   3.894  17.335  0.00  0.00    +0.000 C 
ATOM      4  C   UNL     1       4.535   5.332  17.894  0.00  0.00    +0.000 C 
ATOM      5  C   UNL     1       5.553   6.092  17.050  0.00  0.00    +0.000 C 
ATOM      6  O   UNL     1       5.272   6.770  16.066  0.00  0.00    +0.000 OA
ATOM      7  N   UNL     1       6.868   5.931  17.419  0.00  0.00    +0.000 N 
ATOM      8  C   UNL     1       7.303   5.560  18.656  0.00  0.00    +0.000 C 
ATOM      9  O   UNL     1       8.468   5.718  19.002  0.00  0.00    +0.000 OA
ATOM     10  N   UNL     1       6.364   5.083  19.518  0.00  0.00    +0.000 N 
ATOM     11  C   UNL     1       5.009   5.218  19.348  0.00  0.00    +0.000 C 
ATOM     12  O   UNL     1       4.269   5.182  20.329  0.00  0.00    +0.000 OA
ATOM     13  N   UNL     1       3.120   5.741  17.804  0.00  0.00    +0.000 N 
ATOM     14  C   UNL     1       2.310   4.605  17.578  0.00  0.00    +0.000 C 
ATOM     15  O   UNL     1       1.093   4.526  17.521  0.00  0.00    +0.000 OA
ATOM     16  H   UNL     1       7.554   6.419  16.854  0.00  0.00    +0.000 HD
ATOM     17  H   UNL     1       6.678   4.968  20.476  0.00  0.00    +0.000 HD
ENDROOT
BRANCH  13  18
ATOM     18  C   UNL     1       2.623   7.004  18.256  0.00  0.00    +0.000 A 
ATOM     19  C   UNL     1       2.614   8.144  17.438  0.00  0.00    +0.000 A 
ATOM     20  C   UNL     1       2.003   9.329  17.853  0.00  0.00    +0.000 A 
ATOM     21  C   UNL     1       1.410   9.352  19.096  0.00  0.00    +0.000 A 
ATOM     22  N   UNL     1       1.468   8.318  19.959  0.00  0.00    +0.000 NA
ATOM     23  C   UNL     1       2.058   7.182  19.515  0.00  0.00    +0.000 A 
BRANCH  21  24
ATOM     24  O   UNL     1       0.686  10.487  19.441  0.00  0.00    +0.000 OA
BRANCH  24  25
ATOM     25  C   UNL     1      -0.558  10.625  18.859  0.00  0.00    +0.000 A 
ATOM     26  C   UNL     1      -1.408  11.596  19.393  0.00  0.00    +0.000 A 
ATOM     27  C   UNL     1      -2.697  11.745  18.878  0.00  0.00    +0.000 A 
ATOM     28  C   UNL     1      -3.120  10.926  17.834  0.00  0.00    +0.000 A 
ATOM     29  F   UNL     1      -4.367  11.045  17.364  0.00  0.00    +0.000 F 
ATOM     30  C   UNL     1      -2.264   9.998  17.259  0.00  0.00    +0.000 A 
ATOM     31  C   UNL     1      -0.970   9.863  17.757  0.00  0.00    +0.000 A 
ENDBRANCH  24  25
ENDBRANCH  21  24
ENDBRANCH  13  18
TORSDOF 3
ENDMDL
MODEL 2
REMARK VINA RESULT:      -8.6      3.610      8.446
REMARK  Name = 
REMARK  4 active torsions:
REMARK  status: ('A' for Active; 'I' for Inactive)
REMARK    1  A    between atoms: C_1  and  N_2
REMARK    2  A    between atoms: N_13  and  C_14
REMARK    3  A    between atoms: C_17  and  O_18
REMARK    4  A    between atoms: O_18  and  C_19
REMARK                            x       y       z     vdW  Elec       q    Type
REMARK                         _______ _______ _______ _____ _____    ______ ____
ROOT
ATOM      1  C   UNL     1      -3.770  12.178  18.047  0.00  0.00    +0.000 C 
ATOM      2  N   UNL     1      -2.718  11.796  18.955  0.00  0.00    +0.000 N 
ATOM      3  C   UNL     1      -2.333  12.557  20.108  0.00  0.00    +0.000 C 
ATOM      4  C   UNL     1      -0.982  11.934  20.514  0.00  0.00    +0.000 C 
ATOM      5  C   UNL     1      -0.965  11.956  22.039  0.00  0.00    +0.000 C 
ATOM      6  O   UNL     1      -1.300  11.014  22.751  0.00  0.00    +0.000 OA
ATOM      7  N   UNL     1      -0.597  13.151  22.612  0.00  0.00    +0.000 N 
ATOM      8  C   UNL     1       0.150  14.120  22.011  0.00  0.00    +0.000 C 
ATOM      9  O   UNL     1       0.684  15.013  22.657  0.00  0.00    +0.000 OA
ATOM     10  N   UNL     1       0.342  14.002  20.668  0.00  0.00    +0.000 N 
ATOM     11  C   UNL     1       0.099  12.861  19.944  0.00  0.00    +0.000 C 
ATOM     12  O   UNL     1       0.697  12.679  18.885  0.00  0.00    +0.000 OA
ATOM     13  N   UNL     1      -0.995  10.621  19.841  0.00  0.00    +0.000 N 
ATOM     14  C   UNL     1      -2.023  10.594  18.871  0.00  0.00    +0.000 C 
ATOM     15  O   UNL     1      -2.299   9.719  18.067  0.00  0.00    +0.000 OA
ATOM     16  H   UNL     1      -0.599  13.181  23.625  0.00  0.00    +0.000 HD
ATOM     17  H   UNL     1       1.028  14.636  20.275  0.00  0.00    +0.000 HD
ENDROOT
BRANCH  13  18
ATOM     18  C   UNL     1       0.088   9.687  19.890  0.00  0.00    +0.000 A 
ATOM     19  C   UNL     1       0.342   8.890  21.017  0.00  0.00    +0.000 A 
ATOM     20  C   UNL     1       1.318   7.892  20.993  0.00  0.00    +0.000 A 
ATOM     21  C   UNL     1       2.035   7.713  19.830  0.00  0.00    +0.000 A 
ATOM     22  N   UNL     1       1.896   8.509  18.749  0.00  0.00    +0.000 NA
ATOM     23  C   UNL     1       0.929   9.457  18.807  0.00  0.00    +0.000 A 
BRANCH  21  24
ATOM     24  O   UNL     1       2.904   6.630  19.771  0.00  0.00    +0.000 OA
BRANCH  24  25
ATOM     25  C   UNL     1       2.335   5.397  19.529  0.00  0.00    +0.000 A 
ATOM     26  C   UNL     1       2.299   4.960  18.203  0.00  0.00    +0.000 A 
ATOM     27  C   UNL     1       1.690   3.742  17.893  0.00  0.00    +0.000 A 
ATOM     28  C   UNL     1       1.127   2.974  18.909  0.00  0.00    +0.000 A 
ATOM     29  F   UNL     1       0.513   1.826  18.607  0.00  0.00    +0.000 F 
ATOM     30  C   UNL     1       1.208   3.373  20.236  0.00  0.00    +0.000 A 
ATOM     31  C   UNL     1       1.835   4.576  20.550  0.00  0.00    +0.000 A 
ENDBRANCH  24  25
ENDBRANCH  21  24
ENDBRANCH  13  18
TORSDOF 3
ENDMDL
MODEL 3
REMARK VINA RESULT:      -8.6      4.968      7.732
REMARK  Name = 
REMARK  4 active torsions:
REMARK  status: ('A' for Active; 'I' for Inactive)
REMARK    1  A    between atoms: C_1  and  N_2
REMARK    2  A    between atoms: N_13  and  C_14
REMARK    3  A    between atoms: C_17  and  O_18
REMARK    4  A    between atoms: O_18  and  C_19
REMARK                            x       y       z     vdW  Elec       q    Type
REMARK                         _______ _______ _______ _____ _____    ______ ____
ROOT
ATOM      1  C   UNL     1       5.570   3.769  14.113  0.00  0.00    +0.000 C 
ATOM      2  N   UNL     1       5.752   4.414  15.389  0.00  0.00    +0.000 N 
ATOM      3  C   UNL     1       4.915   4.190  16.532  0.00  0.00    +0.000 C 
ATOM      4  C   UNL     1       5.294   5.343  17.484  0.00  0.00    +0.000 C 
ATOM      5  C   UNL     1       5.242   4.746  18.887  0.00  0.00    +0.000 C 
ATOM      6  O   UNL     1       6.214   4.297  19.487  0.00  0.00    +0.000 OA
ATOM      7  N   UNL     1       3.991   4.675  19.455  0.00  0.00    +0.000 N 
ATOM      8  C   UNL     1       2.922   5.448  19.115  0.00  0.00    +0.000 C 
ATOM      9  O   UNL     1       1.940   5.542  19.841  0.00  0.00    +0.000 OA
ATOM     10  N   UNL     1       3.032   6.175  17.969  0.00  0.00    +0.000 N 
ATOM     11  C   UNL     1       4.210   6.412  17.306  0.00  0.00    +0.000 C 
ATOM     12  O   UNL     1       4.309   7.403  16.585  0.00  0.00    +0.000 OA
ATOM     13  N   UNL     1       6.604   5.792  16.972  0.00  0.00    +0.000 N 
ATOM     14  C   UNL     1       6.821   5.253  15.684  0.00  0.00    +0.000 C 
ATOM     15  O   UNL     1       7.745   5.453  14.912  0.00  0.00    +0.000 OA
ATOM     16  H   UNL     1       3.944   4.264  20.381  0.00  0.00    +0.000 HD
ATOM     17  H   UNL     1       2.299   6.860  17.823  0.00  0.00    +0.000 HD
ENDROOT
BRANCH  13  18
ATOM     18  C   UNL     1       7.341   6.890  17.519  0.00  0.00    +0.000 A 
ATOM     19  C   UNL     1       7.240   8.192  17.008  0.00  0.00    +0.000 A 
ATOM     20  C   UNL     1       7.864   9.269  17.642  0.00  0.00    +0.000 A 
ATOM     21  C   UNL     1       8.590   9.018  18.785  0.00  0.00    +0.000 A 
ATOM     22  N   UNL     1       8.796   7.776  19.269  0.00  0.00    +0.000 NA
ATOM     23  C   UNL     1       8.163   6.759  18.635  0.00  0.00    +0.000 A 
BRANCH  21  24
ATOM     24  O   UNL     1       9.088  10.112  19.483  0.00  0.00    +0.000 OA
BRANCH  24  25
ATOM     25  C   UNL     1       9.626  11.132  18.726  0.00  0.00    +0.000 A 
ATOM     26  C   UNL     1      10.992  11.063  18.440  0.00  0.00    +0.000 A 
ATOM     27  C   UNL     1      11.601  12.093  17.722  0.00  0.00    +0.000 A 
ATOM     28  C   UNL     1      10.840  13.178  17.294  0.00  0.00    +0.000 A 
ATOM     29  F   UNL     1      11.431  14.182  16.636  0.00  0.00    +0.000 F 
ATOM     30  C   UNL     1       9.473  13.229  17.524  0.00  0.00    +0.000 A 
ATOM     31  C   UNL     1       8.859  12.191  18.221  0.00  0.00    +0.000 A 
ENDBRANCH  24  25
ENDBRANCH  21  24
ENDBRANCH  13  18
TORSDOF 3
ENDMDL
MODEL 4
REMARK VINA RESULT:      -8.4      1.630      2.964
REMARK  Name = 
REMARK  4 active torsions:
REMARK  status: ('A' for Active; 'I' for Inactive)
REMARK    1  A    between atoms: C_1  and  N_2
REMARK    2  A    between atoms: N_13  and  C_14
REMARK    3  A    between atoms: C_17  and  O_18
REMARK    4  A    between atoms: O_18  and  C_19
REMARK                            x       y       z     vdW  Elec       q    Type
REMARK                         _______ _______ _______ _____ _____    ______ ____
ROOT
ATOM      1  C   UNL     1       6.484   4.656  14.343  0.00  0.00    +0.000 C 
ATOM      2  N   UNL     1       5.870   4.948  15.614  0.00  0.00    +0.000 N 
ATOM      3  C   UNL     1       5.999   4.123  16.780  0.00  0.00    +0.000 C 
ATOM      4  C   UNL     1       4.904   4.662  17.723  0.00  0.00    +0.000 C 
ATOM      5  C   UNL     1       5.497   4.578  19.125  0.00  0.00    +0.000 C 
ATOM      6  O   UNL     1       6.060   5.507  19.698  0.00  0.00    +0.000 OA
ATOM      7  N   UNL     1       5.423   3.344  19.729  0.00  0.00    +0.000 N 
ATOM      8  C   UNL     1       4.528   2.364  19.419  0.00  0.00    +0.000 C 
ATOM      9  O   UNL     1       4.322   1.421  20.173  0.00  0.00    +0.000 OA
ATOM     10  N   UNL     1       3.813   2.527  18.272  0.00  0.00    +0.000 N 
ATOM     11  C   UNL     1       3.713   3.706  17.576  0.00  0.00    +0.000 C 
ATOM     12  O   UNL     1       2.738   3.901  16.854  0.00  0.00    +0.000 OA
ATOM     13  N   UNL     1       4.609   6.000  17.175  0.00  0.00    +0.000 N 
ATOM     14  C   UNL     1       5.164   6.117  15.880  0.00  0.00    +0.000 C 
ATOM     15  O   UNL     1       5.071   7.036  15.083  0.00  0.00    +0.000 OA
ATOM     16  H   UNL     1       5.829   3.274  20.654  0.00  0.00    +0.000 HD
ATOM     17  H   UNL     1       3.046   1.876  18.147  0.00  0.00    +0.000 HD
ENDROOT
BRANCH  13  18
ATOM     18  C   UNL     1       3.609   6.876  17.702  0.00  0.00    +0.000 A 
ATOM     19  C   UNL     1       2.936   6.612  18.904  0.00  0.00    +0.000 A 
ATOM     20  C   UNL     1       2.063   7.545  19.467  0.00  0.00    +0.000 A 
ATOM     21  C   UNL     1       1.874   8.738  18.804  0.00  0.00    +0.000 A 
ATOM     22  N   UNL     1       2.422   9.008  17.602  0.00  0.00    +0.000 NA
ATOM     23  C   UNL     1       3.274   8.083  17.096  0.00  0.00    +0.000 A 
BRANCH  21  24
ATOM     24  O   UNL     1       1.115   9.713  19.441  0.00  0.00    +0.000 OA
BRANCH  24  25
ATOM     25  C   UNL     1       0.034  10.207  18.740  0.00  0.00    +0.000 A 
ATOM     26  C   UNL     1      -0.311  11.543  18.958  0.00  0.00    +0.000 A 
ATOM     27  C   UNL     1      -1.427  12.082  18.315  0.00  0.00    +0.000 A 
ATOM     28  C   UNL     1      -2.182  11.284  17.459  0.00  0.00    +0.000 A 
ATOM     29  F   UNL     1      -3.271  11.791  16.871  0.00  0.00    +0.000 F 
ATOM     30  C   UNL     1      -1.815   9.973  17.193  0.00  0.00    +0.000 A 
ATOM     31  C   UNL     1      -0.689   9.439  17.816  0.00  0.00    +0.000 A 
ENDBRANCH  24  25
ENDBRANCH  21  24
ENDBRANCH  13  18
TORSDOF 3
ENDMDL
MODEL 5
REMARK VINA RESULT:      -8.4      3.813      8.494
REMARK  Name = 
REMARK  4 active torsions:
REMARK  status: ('A' for Active; 'I' for Inactive)
REMARK    1  A    between atoms: C_1  and  N_2
REMARK    2  A    between atoms: N_13  and  C_14
REMARK    3  A    between atoms: C_17  and  O_18
REMARK    4  A    between atoms: O_18  and  C_19
REMARK                            x       y       z     vdW  Elec       q    Type
REMARK                         _______ _______ _______ _____ _____    ______ ____
ROOT
ATOM      1  C   UNL     1       1.706  15.237  18.390  0.00  0.00    +0.000 C 
ATOM      2  N   UNL     1       1.067  13.948  18.476  0.00  0.00    +0.000 N 
ATOM      3  C   UNL     1      -0.354  13.754  18.513  0.00  0.00    +0.000 C 
ATOM      4  C   UNL     1      -0.503  12.284  18.957  0.00  0.00    +0.000 C 
ATOM      5  C   UNL     1      -1.703  11.746  18.185  0.00  0.00    +0.000 C 
ATOM      6  O   UNL     1      -1.628  11.130  17.125  0.00  0.00    +0.000 OA
ATOM      7  N   UNL     1      -2.935  12.042  18.720  0.00  0.00    +0.000 N 
ATOM      8  C   UNL     1      -3.177  12.351  20.025  0.00  0.00    +0.000 C 
ATOM      9  O   UNL     1      -4.308  12.316  20.495  0.00  0.00    +0.000 OA
ATOM     10  N   UNL     1      -2.093  12.619  20.803  0.00  0.00    +0.000 N 
ATOM     11  C   UNL     1      -0.796  12.325  20.462  0.00  0.00    +0.000 C 
ATOM     12  O   UNL     1       0.043  12.172  21.347  0.00  0.00    +0.000 OA
ATOM     13  N   UNL     1       0.823  11.704  18.668  0.00  0.00    +0.000 N 
ATOM     14  C   UNL     1       1.755  12.740  18.434  0.00  0.00    +0.000 C 
ATOM     15  O   UNL     1       2.957  12.664  18.238  0.00  0.00    +0.000 OA
ATOM     16  H   UNL     1      -3.739  11.703  18.205  0.00  0.00    +0.000 HD
ATOM     17  H   UNL     1      -2.282  12.685  21.797  0.00  0.00    +0.000 HD
ENDROOT
BRANCH  13  18
ATOM     18  C   UNL     1       1.183  10.350  18.958  0.00  0.00    +0.000 A 
ATOM     19  C   UNL     1       1.778   9.509  18.005  0.00  0.00    +0.000 A 
ATOM     20  C   UNL     1       2.242   8.238  18.350  0.00  0.00    +0.000 A 
ATOM     21  C   UNL     1       2.095   7.826  19.656  0.00  0.00    +0.000 A 
ATOM     22  N   UNL     1       1.450   8.554  20.590  0.00  0.00    +0.000 NA
ATOM     23  C   UNL     1       1.026   9.787  20.221  0.00  0.00    +0.000 A 
BRANCH  21  24
ATOM     24  O   UNL     1       2.684   6.620  20.018  0.00  0.00    +0.000 OA
BRANCH  24  25
ATOM     25  C   UNL     1       2.056   5.472  19.580  0.00  0.00    +0.000 A 
ATOM     26  C   UNL     1       1.359   4.723  20.531  0.00  0.00    +0.000 A 
ATOM     27  C   UNL     1       0.748   3.525  20.155  0.00  0.00    +0.000 A 
ATOM     28  C   UNL     1       0.837   3.091  18.835  0.00  0.00    +0.000 A 
ATOM     29  F   UNL     1       0.282   1.926  18.483  0.00  0.00    +0.000 F 
ATOM     30  C   UNL     1       1.479   3.855  17.871  0.00  0.00    +0.000 A 
ATOM     31  C   UNL     1       2.070   5.062  18.240  0.00  0.00    +0.000 A 
ENDBRANCH  24  25
ENDBRANCH  21  24
ENDBRANCH  13  18
TORSDOF 3
ENDMDL
MODEL 6
REMARK VINA RESULT:      -8.4      0.767      1.115
REMARK  Name = 
REMARK  4 active torsions:
REMARK  status: ('A' for Active; 'I' for Inactive)
REMARK    1  A    between atoms: C_1  and  N_2
REMARK    2  A    between atoms: N_13  and  C_14
REMARK    3  A    between atoms: C_17  and  O_18
REMARK    4  A    between atoms: O_18  and  C_19
REMARK                            x       y       z     vdW  Elec       q    Type
REMARK                         _______ _______ _______ _____ _____    ______ ____
ROOT
ATOM      1  C   UNL     1       2.938   1.906  17.357  0.00  0.00    +0.000 C 
ATOM      2  N   UNL     1       3.269   3.305  17.468  0.00  0.00    +0.000 N 
ATOM      3  C   UNL     1       4.596   3.831  17.337  0.00  0.00    +0.000 C 
ATOM      4  C   UNL     1       4.466   5.269  17.879  0.00  0.00    +0.000 C 
ATOM      5  C   UNL     1       5.384   6.119  17.006  0.00  0.00    +0.000 C 
ATOM      6  O   UNL     1       5.015   6.752  16.021  0.00  0.00    +0.000 OA
ATOM      7  N   UNL     1       6.716   6.099  17.350  0.00  0.00    +0.000 N 
ATOM      8  C   UNL     1       7.211   5.791  18.582  0.00  0.00    +0.000 C 
ATOM      9  O   UNL     1       8.359   6.072  18.902  0.00  0.00    +0.000 OA
ATOM     10  N   UNL     1       6.343   5.231  19.468  0.00  0.00    +0.000 N 
ATOM     11  C   UNL     1       4.978   5.223  19.325  0.00  0.00    +0.000 C 
ATOM     12  O   UNL     1       4.265   5.124  20.321  0.00  0.00    +0.000 OA
ATOM     13  N   UNL     1       3.015   5.529  17.815  0.00  0.00    +0.000 N 
ATOM     14  C   UNL     1       2.322   4.313  17.618  0.00  0.00    +0.000 C 
ATOM     15  O   UNL     1       1.120   4.108  17.587  0.00  0.00    +0.000 OA
ATOM     16  H   UNL     1       7.336   6.647  16.766  0.00  0.00    +0.000 HD
ATOM     17  H   UNL     1       6.685   5.161  20.420  0.00  0.00    +0.000 HD
ENDROOT
BRANCH  13  18
ATOM     18  C   UNL     1       2.399   6.740  18.263  0.00  0.00    +0.000 A 
ATOM     19  C   UNL     1       1.933   6.906  19.576  0.00  0.00    +0.000 A 
ATOM     20  C   UNL     1       1.461   8.140  20.026  0.00  0.00    +0.000 A 
ATOM     21  C   UNL     1       1.458   9.196  19.142  0.00  0.00    +0.000 A 
ATOM     22  N   UNL     1       1.808   9.072  17.845  0.00  0.00    +0.000 NA
ATOM     23  C   UNL     1       2.274   7.863  17.450  0.00  0.00    +0.000 A 
BRANCH  21  24
ATOM     24  O   UNL     1       1.118  10.449  19.638  0.00  0.00    +0.000 OA
BRANCH  24  25
ATOM     25  C   UNL     1      -0.163  10.890  19.374  0.00  0.00    +0.000 A 
ATOM     26  C   UNL     1      -0.668  11.908  20.187  0.00  0.00    +0.000 A 
ATOM     27  C   UNL     1      -1.976  12.357  19.998  0.00  0.00    +0.000 A 
ATOM     28  C   UNL     1      -2.763  11.789  19.000  0.00  0.00    +0.000 A 
ATOM     29  F   UNL     1      -4.028  12.195  18.843  0.00  0.00    +0.000 F 
ATOM     30  C   UNL     1      -2.252  10.817  18.152  0.00  0.00    +0.000 A 
ATOM     31  C   UNL     1      -0.940  10.383  18.323  0.00  0.00    +0.000 A 
ENDBRANCH  24  25
ENDBRANCH  21  24
ENDBRANCH  13  18
TORSDOF 3
ENDMDL
MODEL 7
REMARK VINA RESULT:      -8.3      1.890      2.396
REMARK  Name = 
REMARK  4 active torsions:
REMARK  status: ('A' for Active; 'I' for Inactive)
REMARK    1  A    between atoms: C_1  and  N_2
REMARK    2  A    between atoms: N_13  and  C_14
REMARK    3  A    between atoms: C_17  and  O_18
REMARK    4  A    between atoms: O_18  and  C_19
REMARK                            x       y       z     vdW  Elec       q    Type
REMARK                         _______ _______ _______ _____ _____    ______ ____
ROOT
ATOM      1  C   UNL     1       3.754   1.794  21.363  0.00  0.00    +0.000 C 
ATOM      2  N   UNL     1       3.720   2.796  20.328  0.00  0.00    +0.000 N 
ATOM      3  C   UNL     1       4.517   2.751  19.137  0.00  0.00    +0.000 C 
ATOM      4  C   UNL     1       4.382   4.176  18.561  0.00  0.00    +0.000 C 
ATOM      5  C   UNL     1       4.343   4.002  17.047  0.00  0.00    +0.000 C 
ATOM      6  O   UNL     1       3.312   3.933  16.383  0.00  0.00    +0.000 OA
ATOM      7  N   UNL     1       5.565   3.859  16.433  0.00  0.00    +0.000 N 
ATOM      8  C   UNL     1       6.757   4.288  16.935  0.00  0.00    +0.000 C 
ATOM      9  O   UNL     1       7.751   4.397  16.227  0.00  0.00    +0.000 OA
ATOM     10  N   UNL     1       6.771   4.668  18.242  0.00  0.00    +0.000 N 
ATOM     11  C   UNL     1       5.649   4.926  18.991  0.00  0.00    +0.000 C 
ATOM     12  O   UNL     1       5.730   5.672  19.964  0.00  0.00    +0.000 OA
ATOM     13  N   UNL     1       3.176   4.701  19.230  0.00  0.00    +0.000 N 
ATOM     14  C   UNL     1       2.838   3.871  20.322  0.00  0.00    +0.000 C 
ATOM     15  O   UNL     1       1.957   4.015  21.154  0.00  0.00    +0.000 OA
ATOM     16  H   UNL     1       5.548   3.726  15.429  0.00  0.00    +0.000 HD
ATOM     17  H   UNL     1       7.619   5.133  18.546  0.00  0.00    +0.000 HD
ENDROOT
BRANCH  13  18
ATOM     18  C   UNL     1       2.672   6.027  19.042  0.00  0.00    +0.000 A 
ATOM     19  C   UNL     1       2.115   6.775  20.090  0.00  0.00    +0.000 A 
ATOM     20  C   UNL     1       1.755   8.113  19.913  0.00  0.00    +0.000 A 
ATOM     21  C   UNL     1       1.956   8.681  18.675  0.00  0.00    +0.000 A 
ATOM     22  N   UNL     1       2.402   7.985  17.609  0.00  0.00    +0.000 NA
ATOM     23  C   UNL     1       2.754   6.695  17.823  0.00  0.00    +0.000 A 
BRANCH  21  24
ATOM     24  O   UNL     1       1.725  10.046  18.549  0.00  0.00    +0.000 OA
BRANCH  24  25
ATOM     25  C   UNL     1       0.417  10.464  18.684  0.00  0.00    +0.000 A 
ATOM     26  C   UNL     1      -0.513   9.955  17.775  0.00  0.00    +0.000 A 
ATOM     27  C   UNL     1      -1.841  10.383  17.832  0.00  0.00    +0.000 A 
ATOM     28  C   UNL     1      -2.225  11.310  18.797  0.00  0.00    +0.000 A 
ATOM     29  F   UNL     1      -3.489  11.746  18.828  0.00  0.00    +0.000 F 
ATOM     30  C   UNL     1      -1.321  11.780  19.739  0.00  0.00    +0.000 A 
ATOM     31  C   UNL     1      -0.001  11.337  19.699  0.00  0.00    +0.000 A 
ENDBRANCH  24  25
ENDBRANCH  21  24
ENDBRANCH  13  18
TORSDOF 3
ENDMDL
MODEL 8
REMARK VINA RESULT:      -8.2      2.313      2.734
REMARK  Name = 
REMARK  4 active torsions:
REMARK  status: ('A' for Active; 'I' for Inactive)
REMARK    1  A    between atoms: C_1  and  N_2
REMARK    2  A    between atoms: N_13  and  C_14
REMARK    3  A    between atoms: C_17  and  O_18
REMARK    4  A    between atoms: O_18  and  C_19
REMARK                            x       y       z     vdW  Elec       q    Type
REMARK                         _______ _______ _______ _____ _____    ______ ____
ROOT
ATOM      1  C   UNL     1       2.680   2.052  17.408  0.00  0.00    +0.000 C 
ATOM      2  N   UNL     1       3.127   3.419  17.509  0.00  0.00    +0.000 N 
ATOM      3  C   UNL     1       4.494   3.831  17.378  0.00  0.00    +0.000 C 
ATOM      4  C   UNL     1       4.484   5.279  17.909  0.00  0.00    +0.000 C 
ATOM      5  C   UNL     1       5.473   6.041  17.032  0.00  0.00    +0.000 C 
ATOM      6  O   UNL     1       5.161   6.694  16.041  0.00  0.00    +0.000 OA
ATOM      7  N   UNL     1       6.797   5.912  17.380  0.00  0.00    +0.000 N 
ATOM      8  C   UNL     1       7.261   5.573  18.616  0.00  0.00    +0.000 C 
ATOM      9  O   UNL     1       8.429   5.759  18.937  0.00  0.00    +0.000 OA
ATOM     10  N   UNL     1       6.347   5.095  19.504  0.00  0.00    +0.000 N 
ATOM     11  C   UNL     1       4.987   5.202  19.356  0.00  0.00    +0.000 C 
ATOM     12  O   UNL     1       4.266   5.172  20.351  0.00  0.00    +0.000 OA
ATOM     13  N   UNL     1       3.060   5.659  17.837  0.00  0.00    +0.000 N 
ATOM     14  C   UNL     1       2.268   4.504  17.648  0.00  0.00    +0.000 C 
ATOM     15  O   UNL     1       1.053   4.401  17.615  0.00  0.00    +0.000 OA
ATOM     16  H   UNL     1       7.463   6.401  16.793  0.00  0.00    +0.000 HD
ATOM     17  H   UNL     1       6.680   5.005  20.457  0.00  0.00    +0.000 HD
ENDROOT
BRANCH  13  18
ATOM     18  C   UNL     1       2.548   6.922  18.274  0.00  0.00    +0.000 A 
ATOM     19  C   UNL     1       2.322   7.987  17.389  0.00  0.00    +0.000 A 
ATOM     20  C   UNL     1       1.696   9.161  17.814  0.00  0.00    +0.000 A 
ATOM     21  C   UNL     1       1.311   9.250  19.134  0.00  0.00    +0.000 A 
ATOM     22  N   UNL     1       1.585   8.296  20.047  0.00  0.00    +0.000 NA
ATOM     23  C   UNL     1       2.180   7.167  19.593  0.00  0.00    +0.000 A 
BRANCH  21  24
ATOM     24  O   UNL     1       0.567  10.362  19.512  0.00  0.00    +0.000 OA
BRANCH  24  25
ATOM     25  C   UNL     1       1.246  11.561  19.586  0.00  0.00    +0.000 A 
ATOM     26  C   UNL     1       1.130  12.287  20.774  0.00  0.00    +0.000 A 
ATOM     27  C   UNL     1       1.754  13.531  20.886  0.00  0.00    +0.000 A 
ATOM     28  C   UNL     1       2.489  14.033  19.815  0.00  0.00    +0.000 A 
ATOM     29  F   UNL     1       3.056  15.241  19.911  0.00  0.00    +0.000 F 
ATOM     30  C   UNL     1       2.656  13.294  18.653  0.00  0.00    +0.000 A 
ATOM     31  C   UNL     1       2.054  12.043  18.547  0.00  0.00    +0.000 A 
ENDBRANCH  24  25
ENDBRANCH  21  24
ENDBRANCH  13  18
TORSDOF 3
ENDMDL
MODEL 9
REMARK VINA RESULT:      -8.1      1.948      3.254
REMARK  Name = 
REMARK  4 active torsions:
REMARK  status: ('A' for Active; 'I' for Inactive)
REMARK    1  A    between atoms: C_1  and  N_2
REMARK    2  A    between atoms: N_13  and  C_14
REMARK    3  A    between atoms: C_17  and  O_18
REMARK    4  A    between atoms: O_18  and  C_19
REMARK                            x       y       z     vdW  Elec       q    Type
REMARK                         _______ _______ _______ _____ _____    ______ ____
ROOT
ATOM      1  C   UNL     1       6.032   4.852  14.308  0.00  0.00    +0.000 C 
ATOM      2  N   UNL     1       5.528   5.032  15.646  0.00  0.00    +0.000 N 
ATOM      3  C   UNL     1       5.682   4.073  16.701  0.00  0.00    +0.000 C 
ATOM      4  C   UNL     1       4.692   4.562  17.778  0.00  0.00    +0.000 C 
ATOM      5  C   UNL     1       5.374   4.285  19.114  0.00  0.00    +0.000 C 
ATOM      6  O   UNL     1       6.035   5.108  19.741  0.00  0.00    +0.000 OA
ATOM      7  N   UNL     1       5.260   2.996  19.582  0.00  0.00    +0.000 N 
ATOM      8  C   UNL     1       4.283   2.111  19.236  0.00  0.00    +0.000 C 
ATOM      9  O   UNL     1       4.068   1.102  19.894  0.00  0.00    +0.000 OA
ATOM     10  N   UNL     1       3.504   2.445  18.171  0.00  0.00    +0.000 N 
ATOM     11  C   UNL     1       3.434   3.700  17.618  0.00  0.00    +0.000 C 
ATOM     12  O   UNL     1       2.426   4.032  16.998  0.00  0.00    +0.000 OA
ATOM     13  N   UNL     1       4.449   5.969  17.404  0.00  0.00    +0.000 N 
ATOM     14  C   UNL     1       4.920   6.201  16.092  0.00  0.00    +0.000 C 
ATOM     15  O   UNL     1       4.833   7.209  15.410  0.00  0.00    +0.000 OA
ATOM     16  H   UNL     1       5.724   2.798  20.461  0.00  0.00    +0.000 HD
ATOM     17  H   UNL     1       2.689   1.858  18.034  0.00  0.00    +0.000 HD
ENDROOT
BRANCH  13  18
ATOM     18  C   UNL     1       3.548   6.836  18.099  0.00  0.00    +0.000 A 
ATOM     19  C   UNL     1       2.971   7.962  17.494  0.00  0.00    +0.000 A 
ATOM     20  C   UNL     1       1.992   8.714  18.147  0.00  0.00    +0.000 A 
ATOM     21  C   UNL     1       1.609   8.323  19.411  0.00  0.00    +0.000 A 
ATOM     22  N   UNL     1       2.194   7.306  20.076  0.00  0.00    +0.000 NA
ATOM     23  C   UNL     1       3.129   6.592  19.404  0.00  0.00    +0.000 A 
BRANCH  21  24
ATOM     24  O   UNL     1       0.539   8.993  19.993  0.00  0.00    +0.000 OA
BRANCH  24  25
ATOM     25  C   UNL     1       0.299  10.276  19.547  0.00  0.00    +0.000 A 
ATOM     26  C   UNL     1      -0.842  10.477  18.766  0.00  0.00    +0.000 A 
ATOM     27  C   UNL     1      -1.108  11.744  18.245  0.00  0.00    +0.000 A 
ATOM     28  C   UNL     1      -0.235  12.796  18.512  0.00  0.00    +0.000 A 
ATOM     29  F   UNL     1      -0.472  14.002  17.982  0.00  0.00    +0.000 F 
ATOM     30  C   UNL     1       0.870  12.619  19.332  0.00  0.00    +0.000 A 
ATOM     31  C   UNL     1       1.125  11.361  19.872  0.00  0.00    +0.000 A 
ENDBRANCH  24  25
ENDBRANCH  21  24
ENDBRANCH  13  18
TORSDOF 3
ENDMDL
