MODEL 1
REMARK VINA RESULT:      -6.7      0.000      0.000
REMARK  Name = 
REMARK  12 active torsions:
REMARK  status: ('A' for Active; 'I' for Inactive)
REMARK    1  A    between atoms: C_1  and  C_2
REMARK    2  A    between atoms: C_5  and  S_6
REMARK    3  A    between atoms: S_6  and  N_9
REMARK    4  A    between atoms: N_9  and  C_10
REMARK    5  A    between atoms: C_10  and  C_11
REMARK    6  A    between atoms: C_11  and  C_12
REMARK    7  A    between atoms: C_12  and  C_13
REMARK    8  A    between atoms: C_13  and  C_14
REMARK    9  A    between atoms: C_14  and  C_15
REMARK   10  A    between atoms: N_17  and  C_18
REMARK   11  A    between atoms: C_18  and  C_19
REMARK   12  A    between atoms: C_19  and  C_20
REMARK                            x       y       z     vdW  Elec       q    Type
REMARK                         _______ _______ _______ _____ _____    ______ ____
ROOT
ATOM      1  C   UNL     1       2.082   4.648  20.848  0.00  0.00    +0.000 C 
ENDROOT
BRANCH   1   2
ATOM      2  C   UNL     1       1.206   3.408  21.073  0.00  0.00    +0.000 C 
BRANCH   2   3
ATOM      3  C   UNL     1       1.645   2.241  20.186  0.00  0.00    +0.000 C 
BRANCH   3   4
ATOM      4  N   UNL     1       3.044   2.381  19.789  0.00  0.00    +0.000 NA
ATOM      5  H   UNL     1       3.615   3.066  20.285  0.00  0.00    +0.000 HD
BRANCH   4   6
ATOM      6  S   UNL     1       3.333   2.474  18.124  0.00  0.00    +0.000 S 
ATOM      7  O   UNL     1       2.058   2.812  17.528  0.00  0.00    +0.000 OA
ATOM      8  O   UNL     1       4.060   1.292  17.721  0.00  0.00    +0.000 OA
BRANCH   6  13
ATOM      9  C   UNL     1       7.289   7.033  17.458  0.00  0.00    +0.000 C 
ATOM     10  C   UNL     1       6.271   5.946  17.648  0.00  0.00    +0.000 A 
ATOM     11  C   UNL     1       6.161   5.275  18.872  0.00  0.00    +0.000 A 
ATOM     12  C   UNL     1       5.237   4.238  19.030  0.00  0.00    +0.000 A 
ATOM     13  C   UNL     1       4.405   3.881  17.964  0.00  0.00    +0.000 A 
ATOM     14  C   UNL     1       4.507   4.543  16.738  0.00  0.00    +0.000 A 
ATOM     15  C   UNL     1       5.438   5.573  16.584  0.00  0.00    +0.000 A 
ENDBRANCH   6  13
ENDBRANCH   4   6
ENDBRANCH   3   4
ENDBRANCH   2   3
ENDBRANCH   1   2
BRANCH   1  16
ATOM     16  C   UNL     1       1.591   5.588  19.744  0.00  0.00    +0.000 C 
BRANCH  16  17
ATOM     17  C   UNL     1       2.517   6.782  19.500  0.00  0.00    +0.000 C 
BRANCH  17  18
ATOM     18  C   UNL     1       1.885   8.072  19.983  0.00  0.00    +0.000 C 
ATOM     19  O   UNL     1       1.672   8.315  21.167  0.00  0.00    +0.000 OA
ATOM     20  N   UNL     1       1.584   8.961  18.972  0.00  0.00    +0.000 N 
ATOM     21  H   UNL     1       1.819   8.737  18.013  0.00  0.00    +0.000 HD
BRANCH  20  22
ATOM     22  C   UNL     1       1.013  10.251  19.308  0.00  0.00    +0.000 C 
BRANCH  22  23
ATOM     23  C   UNL     1      -0.509  10.238  19.419  0.00  0.00    +0.000 C 
BRANCH  23  24
ATOM     24  C   UNL     1      -0.975  10.986  20.644  0.00  0.00    +0.000 A 
ATOM     25  C   UNL     1      -0.684  10.503  21.926  0.00  0.00    +0.000 A 
ATOM     26  C   UNL     1      -1.137  11.180  23.059  0.00  0.00    +0.000 A 
ATOM     27  C   UNL     1      -1.894  12.342  22.923  0.00  0.00    +0.000 A 
ATOM     28  C   UNL     1      -2.200  12.826  21.653  0.00  0.00    +0.000 A 
ATOM     29  C   UNL     1      -1.747  12.150  20.518  0.00  0.00    +0.000 A 
ENDBRANCH  23  24
ENDBRANCH  22  23
ENDBRANCH  20  22
ENDBRANCH  17  18
ENDBRANCH  16  17
ENDBRANCH   1  16
TORSDOF 11
ENDMDL
MODEL 2
REMARK VINA RESULT:      -6.6      3.810      7.702
REMARK  Name = 
REMARK  12 active torsions:
REMARK  status: ('A' for Active; 'I' for Inactive)
REMARK    1  A    between atoms: C_1  and  C_2
REMARK    2  A    between atoms: C_5  and  S_6
REMARK    3  A    between atoms: S_6  and  N_9
REMARK    4  A    between atoms: N_9  and  C_10
REMARK    5  A    between atoms: C_10  and  C_11
REMARK    6  A    between atoms: C_11  and  C_12
REMARK    7  A    between atoms: C_12  and  C_13
REMARK    8  A    between atoms: C_13  and  C_14
REMARK    9  A    between atoms: C_14  and  C_15
REMARK   10  A    between atoms: N_17  and  C_18
REMARK   11  A    between atoms: C_18  and  C_19
REMARK   12  A    between atoms: C_19  and  C_20
REMARK                            x       y       z     vdW  Elec       q    Type
REMARK                         _______ _______ _______ _____ _____    ______ ____
ROOT
ATOM      1  C   UNL     1       5.930   4.039  15.880  0.00  0.00    +0.000 C 
ENDROOT
BRANCH   1   2
ATOM      2  C   UNL     1       4.406   4.100  16.049  0.00  0.00    +0.000 C 
BRANCH   2   3
ATOM      3  C   UNL     1       3.976   3.626  17.439  0.00  0.00    +0.000 C 
BRANCH   3   4
ATOM      4  N   UNL     1       2.811   4.371  17.911  0.00  0.00    +0.000 NA
ATOM      5  H   UNL     1       2.398   5.060  17.281  0.00  0.00    +0.000 HD
BRANCH   4   6
ATOM      6  S   UNL     1       2.924   5.004  19.477  0.00  0.00    +0.000 S 
ATOM      7  O   UNL     1       4.332   4.957  19.812  0.00  0.00    +0.000 OA
ATOM      8  O   UNL     1       1.934   4.353  20.303  0.00  0.00    +0.000 OA
BRANCH   6  13
ATOM      9  C   UNL     1       0.986  10.701  18.663  0.00  0.00    +0.000 C 
ATOM     10  C   UNL     1       1.522   9.315  18.874  0.00  0.00    +0.000 A 
ATOM     11  C   UNL     1       2.141   8.620  17.829  0.00  0.00    +0.000 A 
ATOM     12  C   UNL     1       2.604   7.315  18.023  0.00  0.00    +0.000 A 
ATOM     13  C   UNL     1       2.463   6.707  19.274  0.00  0.00    +0.000 A 
ATOM     14  C   UNL     1       1.847   7.391  20.324  0.00  0.00    +0.000 A 
ATOM     15  C   UNL     1       1.379   8.691  20.123  0.00  0.00    +0.000 A 
ENDBRANCH   6  13
ENDBRANCH   4   6
ENDBRANCH   3   4
ENDBRANCH   2   3
ENDBRANCH   1   2
BRANCH   1  16
ATOM     16  C   UNL     1       6.728   4.663  17.030  0.00  0.00    +0.000 C 
BRANCH  16  17
ATOM     17  C   UNL     1       6.260   6.071  17.406  0.00  0.00    +0.000 C 
BRANCH  17  18
ATOM     18  C   UNL     1       7.400   6.892  17.974  0.00  0.00    +0.000 C 
ATOM     19  O   UNL     1       8.069   6.537  18.940  0.00  0.00    +0.000 OA
ATOM     20  N   UNL     1       7.633   8.071  17.297  0.00  0.00    +0.000 N 
ATOM     21  H   UNL     1       7.086   8.302  16.477  0.00  0.00    +0.000 HD
BRANCH  20  22
ATOM     22  C   UNL     1       8.725   8.927  17.717  0.00  0.00    +0.000 C 
BRANCH  22  23
ATOM     23  C   UNL     1       8.269  10.248  18.329  0.00  0.00    +0.000 C 
BRANCH  23  24
ATOM     24  C   UNL     1       9.439  11.035  18.868  0.00  0.00    +0.000 A 
ATOM     25  C   UNL     1      10.433  11.512  18.004  0.00  0.00    +0.000 A 
ATOM     26  C   UNL     1      11.528  12.216  18.505  0.00  0.00    +0.000 A 
ATOM     27  C   UNL     1      11.648  12.444  19.875  0.00  0.00    +0.000 A 
ATOM     28  C   UNL     1      10.671  11.963  20.745  0.00  0.00    +0.000 A 
ATOM     29  C   UNL     1       9.573  11.259  20.246  0.00  0.00    +0.000 A 
ENDBRANCH  23  24
ENDBRANCH  22  23
ENDBRANCH  20  22
ENDBRANCH  17  18
ENDBRANCH  16  17
ENDBRANCH   1  16
TORSDOF 11
ENDMDL
MODEL 3
REMARK VINA RESULT:      -6.6      2.147      3.281
REMARK  Name = 
REMARK  12 active torsions:
REMARK  status: ('A' for Active; 'I' for Inactive)
REMARK    1  A    between atoms: C_1  and  C_2
REMARK    2  A    between atoms: C_5  and  S_6
REMARK    3  A    between atoms: S_6  and  N_9
REMARK    4  A    between atoms: N_9  and  C_10
REMARK    5  A    between atoms: C_10  and  C_11
REMARK    6  A    between atoms: C_11  and  C_12
REMARK    7  A    between atoms: C_12  and  C_13
REMARK    8  A    between atoms: C_13  and  C_14
REMARK    9  A    between atoms: C_14  and  C_15
REMARK   10  A    between atoms: N_17  and  C_18
REMARK   11  A    between atoms: C_18  and  C_19
REMARK   12  A    between atoms: C_19  and  C_20
REMARK                            x       y       z     vdW  Elec       q    Type
REMARK                         _______ _______ _______ _____ _____    ______ ____
ROOT
ATOM      1  C   UNL     1       2.213   5.931  19.787  0.00  0.00    +0.000 C 
ENDROOT
BRANCH   1   2
ATOM      2  C   UNL     1       1.685   5.410  18.443  0.00  0.00    +0.000 C 
BRANCH   2   3
ATOM      3  C   UNL     1       1.226   3.954  18.546  0.00  0.00    +0.000 C 
BRANCH   3   4
ATOM      4  N   UNL     1       2.071   3.079  17.736  0.00  0.00    +0.000 NA
ATOM      5  H   UNL     1       1.619   2.322  17.222  0.00  0.00    +0.000 HD
BRANCH   4   6
ATOM      6  S   UNL     1       3.482   2.518  18.484  0.00  0.00    +0.000 S 
ATOM      7  O   UNL     1       3.867   1.334  17.745  0.00  0.00    +0.000 OA
ATOM      8  O   UNL     1       3.255   2.472  19.909  0.00  0.00    +0.000 OA
BRANCH   6  13
ATOM      9  C   UNL     1       7.264   7.142  17.392  0.00  0.00    +0.000 C 
ATOM     10  C   UNL     1       6.373   5.960  17.641  0.00  0.00    +0.000 A 
ATOM     11  C   UNL     1       5.597   5.418  16.609  0.00  0.00    +0.000 A 
ATOM     12  C   UNL     1       4.740   4.342  16.857  0.00  0.00    +0.000 A 
ATOM     13  C   UNL     1       4.672   3.791  18.140  0.00  0.00    +0.000 A 
ATOM     14  C   UNL     1       5.440   4.324  19.178  0.00  0.00    +0.000 A 
ATOM     15  C   UNL     1       6.288   5.404  18.926  0.00  0.00    +0.000 A 
ENDBRANCH   6  13
ENDBRANCH   4   6
ENDBRANCH   3   4
ENDBRANCH   2   3
ENDBRANCH   1   2
BRANCH   1  16
ATOM     16  C   UNL     1       2.229   7.456  19.922  0.00  0.00    +0.000 C 
BRANCH  16  17
ATOM     17  C   UNL     1       1.319   7.981  21.036  0.00  0.00    +0.000 C 
BRANCH  17  18
ATOM     18  C   UNL     1       0.765   9.349  20.689  0.00  0.00    +0.000 C 
ATOM     19  O   UNL     1       0.591  10.235  21.521  0.00  0.00    +0.000 OA
ATOM     20  N   UNL     1       0.490   9.518  19.348  0.00  0.00    +0.000 N 
ATOM     21  H   UNL     1       0.693   8.775  18.691  0.00  0.00    +0.000 HD
BRANCH  20  22
ATOM     22  C   UNL     1      -0.006  10.798  18.881  0.00  0.00    +0.000 C 
BRANCH  22  23
ATOM     23  C   UNL     1      -1.482  11.034  19.190  0.00  0.00    +0.000 C 
BRANCH  23  24
ATOM     24  C   UNL     1      -2.331  10.892  17.950  0.00  0.00    +0.000 A 
ATOM     25  C   UNL     1      -3.538  11.593  17.831  0.00  0.00    +0.000 A 
ATOM     26  C   UNL     1      -4.336  11.442  16.697  0.00  0.00    +0.000 A 
ATOM     27  C   UNL     1      -3.943  10.581  15.674  0.00  0.00    +0.000 A 
ATOM     28  C   UNL     1      -2.750   9.869  15.787  0.00  0.00    +0.000 A 
ATOM     29  C   UNL     1      -1.949  10.020  16.921  0.00  0.00    +0.000 A 
ENDBRANCH  23  24
ENDBRANCH  22  23
ENDBRANCH  20  22
ENDBRANCH  17  18
ENDBRANCH  16  17
ENDBRANCH   1  16
TORSDOF 11
ENDMDL
MODEL 4
REMARK VINA RESULT:      -6.5      3.663      7.462
REMARK  Name = 
REMARK  12 active torsions:
REMARK  status: ('A' for Active; 'I' for Inactive)
REMARK    1  A    between atoms: C_1  and  C_2
REMARK    2  A    between atoms: C_5  and  S_6
REMARK    3  A    between atoms: S_6  and  N_9
REMARK    4  A    between atoms: N_9  and  C_10
REMARK    5  A    between atoms: C_10  and  C_11
REMARK    6  A    between atoms: C_11  and  C_12
REMARK    7  A    between atoms: C_12  and  C_13
REMARK    8  A    between atoms: C_13  and  C_14
REMARK    9  A    between atoms: C_14  and  C_15
REMARK   10  A    between atoms: N_17  and  C_18
REMARK   11  A    between atoms: C_18  and  C_19
REMARK   12  A    between atoms: C_19  and  C_20
REMARK                            x       y       z     vdW  Elec       q    Type
REMARK                         _______ _______ _______ _____ _____    ______ ____
ROOT
ATOM      1  C   UNL     1       4.569   4.086  16.863  0.00  0.00    +0.000 C 
ENDROOT
BRANCH   1   2
ATOM      2  C   UNL     1       3.859   2.873  17.479  0.00  0.00    +0.000 C 
BRANCH   2   3
ATOM      3  C   UNL     1       2.511   3.261  18.089  0.00  0.00    +0.000 C 
BRANCH   3   4
ATOM      4  N   UNL     1       2.375   4.713  18.183  0.00  0.00    +0.000 NA
ATOM      5  H   UNL     1       2.988   5.288  17.605  0.00  0.00    +0.000 HD
BRANCH   4   6
ATOM      6  S   UNL     1       2.286   5.347  19.750  0.00  0.00    +0.000 S 
ATOM      7  O   UNL     1       3.612   5.183  20.309  0.00  0.00    +0.000 OA
ATOM      8  O   UNL     1       1.124   4.789  20.402  0.00  0.00    +0.000 OA
BRANCH   6  13
ATOM      9  C   UNL     1       0.964  11.187  18.747  0.00  0.00    +0.000 C 
ATOM     10  C   UNL     1       1.350   9.759  19.001  0.00  0.00    +0.000 A 
ATOM     11  C   UNL     1       1.836   8.953  17.965  0.00  0.00    +0.000 A 
ATOM     12  C   UNL     1       2.157   7.614  18.201  0.00  0.00    +0.000 A 
ATOM     13  C   UNL     1       2.010   7.081  19.486  0.00  0.00    +0.000 A 
ATOM     14  C   UNL     1       1.526   7.875  20.527  0.00  0.00    +0.000 A 
ATOM     15  C   UNL     1       1.199   9.211  20.283  0.00  0.00    +0.000 A 
ENDBRANCH   6  13
ENDBRANCH   4   6
ENDBRANCH   3   4
ENDBRANCH   2   3
ENDBRANCH   1   2
BRANCH   1  16
ATOM     16  C   UNL     1       5.786   4.585  17.649  0.00  0.00    +0.000 C 
BRANCH  16  17
ATOM     17  C   UNL     1       6.731   5.460  16.822  0.00  0.00    +0.000 C 
BRANCH  17  18
ATOM     18  C   UNL     1       6.592   6.921  17.198  0.00  0.00    +0.000 C 
ATOM     19  O   UNL     1       5.510   7.463  17.404  0.00  0.00    +0.000 OA
ATOM     20  N   UNL     1       7.794   7.588  17.309  0.00  0.00    +0.000 N 
ATOM     21  H   UNL     1       8.665   7.089  17.175  0.00  0.00    +0.000 HD
BRANCH  20  22
ATOM     22  C   UNL     1       7.799   8.983  17.705  0.00  0.00    +0.000 C 
BRANCH  22  23
ATOM     23  C   UNL     1       8.852   9.319  18.756  0.00  0.00    +0.000 C 
BRANCH  23  24
ATOM     24  C   UNL     1       9.303  10.754  18.642  0.00  0.00    +0.000 A 
ATOM     25  C   UNL     1       8.620  11.649  17.807  0.00  0.00    +0.000 A 
ATOM     26  C   UNL     1       9.052  12.969  17.680  0.00  0.00    +0.000 A 
ATOM     27  C   UNL     1      10.176  13.409  18.377  0.00  0.00    +0.000 A 
ATOM     28  C   UNL     1      10.869  12.524  19.201  0.00  0.00    +0.000 A 
ATOM     29  C   UNL     1      10.438  11.203  19.331  0.00  0.00    +0.000 A 
ENDBRANCH  23  24
ENDBRANCH  22  23
ENDBRANCH  20  22
ENDBRANCH  17  18
ENDBRANCH  16  17
ENDBRANCH   1  16
TORSDOF 11
ENDMDL
MODEL 5
REMARK VINA RESULT:      -6.5      1.809      2.714
REMARK  Name = 
REMARK  12 active torsions:
REMARK  status: ('A' for Active; 'I' for Inactive)
REMARK    1  A    between atoms: C_1  and  C_2
REMARK    2  A    between atoms: C_5  and  S_6
REMARK    3  A    between atoms: S_6  and  N_9
REMARK    4  A    between atoms: N_9  and  C_10
REMARK    5  A    between atoms: C_10  and  C_11
REMARK    6  A    between atoms: C_11  and  C_12
REMARK    7  A    between atoms: C_12  and  C_13
REMARK    8  A    between atoms: C_13  and  C_14
REMARK    9  A    between atoms: C_14  and  C_15
REMARK   10  A    between atoms: N_17  and  C_18
REMARK   11  A    between atoms: C_18  and  C_19
REMARK   12  A    between atoms: C_19  and  C_20
REMARK                            x       y       z     vdW  Elec       q    Type
REMARK                         _______ _______ _______ _____ _____    ______ ____
ROOT
ATOM      1  C   UNL     1       1.704   5.174  20.180  0.00  0.00    +0.000 C 
ENDROOT
BRANCH   1   2
ATOM      2  C   UNL     1       0.823   3.926  20.330  0.00  0.00    +0.000 C 
BRANCH   2   3
ATOM      3  C   UNL     1       1.543   2.668  19.840  0.00  0.00    +0.000 C 
BRANCH   3   4
ATOM      4  N   UNL     1       2.781   2.448  20.585  0.00  0.00    +0.000 NA
ATOM      5  H   UNL     1       3.040   3.135  21.293  0.00  0.00    +0.000 HD
BRANCH   4   6
ATOM      6  S   UNL     1       4.133   2.023  19.659  0.00  0.00    +0.000 S 
ATOM      7  O   UNL     1       3.677   0.980  18.764  0.00  0.00    +0.000 OA
ATOM      8  O   UNL     1       5.247   1.808  20.553  0.00  0.00    +0.000 OA
BRANCH   6  13
ATOM      9  C   UNL     1       5.588   6.845  16.267  0.00  0.00    +0.000 C 
ATOM     10  C   UNL     1       5.178   5.682  17.124  0.00  0.00    +0.000 A 
ATOM     11  C   UNL     1       5.472   5.662  18.492  0.00  0.00    +0.000 A 
ATOM     12  C   UNL     1       5.120   4.559  19.276  0.00  0.00    +0.000 A 
ATOM     13  C   UNL     1       4.453   3.478  18.693  0.00  0.00    +0.000 A 
ATOM     14  C   UNL     1       4.155   3.487  17.328  0.00  0.00    +0.000 A 
ATOM     15  C   UNL     1       4.516   4.587  16.549  0.00  0.00    +0.000 A 
ENDBRANCH   6  13
ENDBRANCH   4   6
ENDBRANCH   3   4
ENDBRANCH   2   3
ENDBRANCH   1   2
BRANCH   1  16
ATOM     16  C   UNL     1       1.016   6.493  20.547  0.00  0.00    +0.000 C 
BRANCH  16  17
ATOM     17  C   UNL     1       1.978   7.556  21.083  0.00  0.00    +0.000 C 
BRANCH  17  18
ATOM     18  C   UNL     1       1.240   8.832  21.435  0.00  0.00    +0.000 C 
ATOM     19  O   UNL     1       1.474   9.487  22.447  0.00  0.00    +0.000 OA
ATOM     20  N   UNL     1       0.292   9.206  20.506  0.00  0.00    +0.000 N 
ATOM     21  H   UNL     1       0.166   8.660  19.663  0.00  0.00    +0.000 HD
BRANCH  20  22
ATOM     22  C   UNL     1      -0.453  10.433  20.706  0.00  0.00    +0.000 C 
BRANCH  22  23
ATOM     23  C   UNL     1      -0.427  11.370  19.503  0.00  0.00    +0.000 C 
BRANCH  23  24
ATOM     24  C   UNL     1      -1.590  11.107  18.578  0.00  0.00    +0.000 A 
ATOM     25  C   UNL     1      -2.808  11.776  18.759  0.00  0.00    +0.000 A 
ATOM     26  C   UNL     1      -3.892  11.514  17.921  0.00  0.00    +0.000 A 
ATOM     27  C   UNL     1      -3.776  10.574  16.899  0.00  0.00    +0.000 A 
ATOM     28  C   UNL     1      -2.573   9.894  16.717  0.00  0.00    +0.000 A 
ATOM     29  C   UNL     1      -1.486  10.155  17.554  0.00  0.00    +0.000 A 
ENDBRANCH  23  24
ENDBRANCH  22  23
ENDBRANCH  20  22
ENDBRANCH  17  18
ENDBRANCH  16  17
ENDBRANCH   1  16
TORSDOF 11
ENDMDL
MODEL 6
REMARK VINA RESULT:      -6.4      3.458      8.989
REMARK  Name = 
REMARK  12 active torsions:
REMARK  status: ('A' for Active; 'I' for Inactive)
REMARK    1  A    between atoms: C_1  and  C_2
REMARK    2  A    between atoms: C_5  and  S_6
REMARK    3  A    between atoms: S_6  and  N_9
REMARK    4  A    between atoms: N_9  and  C_10
REMARK    5  A    between atoms: C_10  and  C_11
REMARK    6  A    between atoms: C_11  and  C_12
REMARK    7  A    between atoms: C_12  and  C_13
REMARK    8  A    between atoms: C_13  and  C_14
REMARK    9  A    between atoms: C_14  and  C_15
REMARK   10  A    between atoms: N_17  and  C_18
REMARK   11  A    between atoms: C_18  and  C_19
REMARK   12  A    between atoms: C_19  and  C_20
REMARK                            x       y       z     vdW  Elec       q    Type
REMARK                         _______ _______ _______ _____ _____    ______ ____
ROOT
ATOM      1  C   UNL     1       6.572   5.423  19.405  0.00  0.00    +0.000 C 
ENDROOT
BRANCH   1   2
ATOM      2  C   UNL     1       5.856   4.331  18.598  0.00  0.00    +0.000 C 
BRANCH   2   3
ATOM      3  C   UNL     1       4.847   3.567  19.457  0.00  0.00    +0.000 C 
BRANCH   3   4
ATOM      4  N   UNL     1       4.078   2.623  18.650  0.00  0.00    +0.000 NA
ATOM      5  H   UNL     1       4.502   2.275  17.789  0.00  0.00    +0.000 HD
BRANCH   4   6
ATOM      6  S   UNL     1       2.457   3.031  18.380  0.00  0.00    +0.000 S 
ATOM      7  O   UNL     1       1.688   2.131  19.214  0.00  0.00    +0.000 OA
ATOM      8  O   UNL     1       2.238   3.104  16.954  0.00  0.00    +0.000 OA
BRANCH   6  13
ATOM      9  C   UNL     1       1.607   8.634  20.560  0.00  0.00    +0.000 C 
ATOM     10  C   UNL     1       1.877   7.253  20.037  0.00  0.00    +0.000 A 
ATOM     11  C   UNL     1       2.394   7.063  18.750  0.00  0.00    +0.000 A 
ATOM     12  C   UNL     1       2.606   5.773  18.256  0.00  0.00    +0.000 A 
ATOM     13  C   UNL     1       2.318   4.665  19.060  0.00  0.00    +0.000 A 
ATOM     14  C   UNL     1       1.802   4.843  20.345  0.00  0.00    +0.000 A 
ATOM     15  C   UNL     1       1.584   6.134  20.830  0.00  0.00    +0.000 A 
ENDBRANCH   6  13
ENDBRANCH   4   6
ENDBRANCH   3   4
ENDBRANCH   2   3
ENDBRANCH   1   2
BRANCH   1  16
ATOM     16  C   UNL     1       7.736   6.101  18.676  0.00  0.00    +0.000 C 
BRANCH  16  17
ATOM     17  C   UNL     1       7.343   6.704  17.325  0.00  0.00    +0.000 C 
BRANCH  17  18
ATOM     18  C   UNL     1       7.140   5.623  16.283  0.00  0.00    +0.000 C 
ATOM     19  O   UNL     1       7.862   4.633  16.190  0.00  0.00    +0.000 OA
ATOM     20  N   UNL     1       6.058   5.839  15.456  0.00  0.00    +0.000 N 
ATOM     21  H   UNL     1       5.464   6.645  15.598  0.00  0.00    +0.000 HD
BRANCH  20  22
ATOM     22  C   UNL     1       5.732   4.854  14.442  0.00  0.00    +0.000 C 
BRANCH  22  23
ATOM     23  C   UNL     1       6.698   4.846  13.261  0.00  0.00    +0.000 C 
BRANCH  23  24
ATOM     24  C   UNL     1       6.490   3.630  12.392  0.00  0.00    +0.000 A 
ATOM     25  C   UNL     1       7.583   2.982  11.801  0.00  0.00    +0.000 A 
ATOM     26  C   UNL     1       7.390   1.874  10.976  0.00  0.00    +0.000 A 
ATOM     27  C   UNL     1       6.102   1.406  10.723  0.00  0.00    +0.000 A 
ATOM     28  C   UNL     1       5.006   2.049  11.296  0.00  0.00    +0.000 A 
ATOM     29  C   UNL     1       5.198   3.158  12.123  0.00  0.00    +0.000 A 
ENDBRANCH  23  24
ENDBRANCH  22  23
ENDBRANCH  20  22
ENDBRANCH  17  18
ENDBRANCH  16  17
ENDBRANCH   1  16
TORSDOF 11
ENDMDL
MODEL 7
REMARK VINA RESULT:      -6.4      2.734      8.442
REMARK  Name = 
REMARK  12 active torsions:
REMARK  status: ('A' for Active; 'I' for Inactive)
REMARK    1  A    between atoms: C_1  and  C_2
REMARK    2  A    between atoms: C_5  and  S_6
REMARK    3  A    between atoms: S_6  and  N_9
REMARK    4  A    between atoms: N_9  and  C_10
REMARK    5  A    between atoms: C_10  and  C_11
REMARK    6  A    between atoms: C_11  and  C_12
REMARK    7  A    between atoms: C_12  and  C_13
REMARK    8  A    between atoms: C_13  and  C_14
REMARK    9  A    between atoms: C_14  and  C_15
REMARK   10  A    between atoms: N_17  and  C_18
REMARK   11  A    between atoms: C_18  and  C_19
REMARK   12  A    between atoms: C_19  and  C_20
REMARK                            x       y       z     vdW  Elec       q    Type
REMARK                         _______ _______ _______ _____ _____    ______ ____
ROOT
ATOM      1  C   UNL     1       3.436   2.854  20.488  0.00  0.00    +0.000 C 
ENDROOT
BRANCH   1   2
ATOM      2  C   UNL     1       1.941   2.854  20.833  0.00  0.00    +0.000 C 
BRANCH   2   3
ATOM      3  C   UNL     1       1.275   4.176  20.445  0.00  0.00    +0.000 C 
BRANCH   3   4
ATOM      4  N   UNL     1       2.142   5.311  20.755  0.00  0.00    +0.000 NA
ATOM      5  H   UNL     1       1.879   5.914  21.534  0.00  0.00    +0.000 HD
BRANCH   4   6
ATOM      6  S   UNL     1       2.634   6.247  19.432  0.00  0.00    +0.000 S 
ATOM      7  O   UNL     1       1.989   5.655  18.278  0.00  0.00    +0.000 OA
ATOM      8  O   UNL     1       4.069   6.401  19.492  0.00  0.00    +0.000 OA
BRANCH   6  13
ATOM      9  C   UNL     1      -0.289  11.492  20.335  0.00  0.00    +0.000 C 
ATOM     10  C   UNL     1       0.487  10.224  20.124  0.00  0.00    +0.000 A 
ATOM     11  C   UNL     1       1.095   9.954  18.893  0.00  0.00    +0.000 A 
ATOM     12  C   UNL     1       1.783   8.754  18.692  0.00  0.00    +0.000 A 
ATOM     13  C   UNL     1       1.881   7.826  19.734  0.00  0.00    +0.000 A 
ATOM     14  C   UNL     1       1.277   8.085  20.966  0.00  0.00    +0.000 A 
ATOM     15  C   UNL     1       0.584   9.282  21.159  0.00  0.00    +0.000 A 
ENDBRANCH   6  13
ENDBRANCH   4   6
ENDBRANCH   3   4
ENDBRANCH   2   3
ENDBRANCH   1   2
BRANCH   1  16
ATOM     16  C   UNL     1       3.825   1.946  19.317  0.00  0.00    +0.000 C 
BRANCH  16  17
ATOM     17  C   UNL     1       3.733   2.634  17.953  0.00  0.00    +0.000 C 
BRANCH  17  18
ATOM     18  C   UNL     1       4.798   3.702  17.807  0.00  0.00    +0.000 C 
ATOM     19  O   UNL     1       5.770   3.789  18.553  0.00  0.00    +0.000 OA
ATOM     20  N   UNL     1       4.590   4.560  16.748  0.00  0.00    +0.000 N 
ATOM     21  H   UNL     1       3.799   4.422  16.131  0.00  0.00    +0.000 HD
BRANCH  20  22
ATOM     22  C   UNL     1       5.562   5.601  16.475  0.00  0.00    +0.000 C 
BRANCH  22  23
ATOM     23  C   UNL     1       6.912   5.071  16.001  0.00  0.00    +0.000 C 
BRANCH  23  24
ATOM     24  C   UNL     1       6.884   4.740  14.528  0.00  0.00    +0.000 A 
ATOM     25  C   UNL     1       6.078   3.699  14.048  0.00  0.00    +0.000 A 
ATOM     26  C   UNL     1       6.072   3.376  12.692  0.00  0.00    +0.000 A 
ATOM     27  C   UNL     1       6.877   4.082  11.799  0.00  0.00    +0.000 A 
ATOM     28  C   UNL     1       7.691   5.112  12.267  0.00  0.00    +0.000 A 
ATOM     29  C   UNL     1       7.698   5.438  13.625  0.00  0.00    +0.000 A 
ENDBRANCH  23  24
ENDBRANCH  22  23
ENDBRANCH  20  22
ENDBRANCH  17  18
ENDBRANCH  16  17
ENDBRANCH   1  16
TORSDOF 11
ENDMDL
MODEL 8
REMARK VINA RESULT:      -6.4      4.333     10.129
REMARK  Name = 
REMARK  12 active torsions:
REMARK  status: ('A' for Active; 'I' for Inactive)
REMARK    1  A    between atoms: C_1  and  C_2
REMARK    2  A    between atoms: C_5  and  S_6
REMARK    3  A    between atoms: S_6  and  N_9
REMARK    4  A    between atoms: N_9  and  C_10
REMARK    5  A    between atoms: C_10  and  C_11
REMARK    6  A    between atoms: C_11  and  C_12
REMARK    7  A    between atoms: C_12  and  C_13
REMARK    8  A    between atoms: C_13  and  C_14
REMARK    9  A    between atoms: C_14  and  C_15
REMARK   10  A    between atoms: N_17  and  C_18
REMARK   11  A    between atoms: C_18  and  C_19
REMARK   12  A    between atoms: C_19  and  C_20
REMARK                            x       y       z     vdW  Elec       q    Type
REMARK                         _______ _______ _______ _____ _____    ______ ____
ROOT
ATOM      1  C   UNL     1      -1.707  10.141  17.391  0.00  0.00    +0.000 C 
ENDROOT
BRANCH   1   2
ATOM      2  C   UNL     1      -2.420  11.201  16.541  0.00  0.00    +0.000 C 
BRANCH   2   3
ATOM      3  C   UNL     1      -3.899  10.862  16.344  0.00  0.00    +0.000 C 
BRANCH   3   4
ATOM      4  N   UNL     1      -4.547  10.577  17.621  0.00  0.00    +0.000 NA
ATOM      5  H   UNL     1      -4.824   9.614  17.812  0.00  0.00    +0.000 HD
BRANCH   4   6
ATOM      6  S   UNL     1      -5.783  11.642  18.075  0.00  0.00    +0.000 S 
ATOM      7  O   UNL     1      -6.950  10.811  18.290  0.00  0.00    +0.000 OA
ATOM      8  O   UNL     1      -5.806  12.739  17.136  0.00  0.00    +0.000 OA
BRANCH   6  13
ATOM      9  C   UNL     1      -3.884  13.364  23.580  0.00  0.00    +0.000 C 
ATOM     10  C   UNL     1      -4.371  12.996  22.208  0.00  0.00    +0.000 A 
ATOM     11  C   UNL     1      -5.724  12.721  21.978  0.00  0.00    +0.000 A 
ATOM     12  C   UNL     1      -6.163  12.342  20.706  0.00  0.00    +0.000 A 
ATOM     13  C   UNL     1      -5.247  12.257  19.653  0.00  0.00    +0.000 A 
ATOM     14  C   UNL     1      -3.895  12.529  19.871  0.00  0.00    +0.000 A 
ATOM     15  C   UNL     1      -3.460  12.899  21.145  0.00  0.00    +0.000 A 
ENDBRANCH   6  13
ENDBRANCH   4   6
ENDBRANCH   3   4
ENDBRANCH   2   3
ENDBRANCH   1   2
BRANCH   1  16
ATOM     16  C   UNL     1      -0.912  10.697  18.576  0.00  0.00    +0.000 C 
BRANCH  16  17
ATOM     17  C   UNL     1       0.605  10.589  18.400  0.00  0.00    +0.000 C 
BRANCH  17  18
ATOM     18  C   UNL     1       1.165   9.425  19.193  0.00  0.00    +0.000 C 
ATOM     19  O   UNL     1       0.944   9.257  20.389  0.00  0.00    +0.000 OA
ATOM     20  N   UNL     1       1.934   8.557  18.447  0.00  0.00    +0.000 N 
ATOM     21  H   UNL     1       2.052   8.710  17.453  0.00  0.00    +0.000 HD
BRANCH  20  22
ATOM     22  C   UNL     1       2.493   7.379  19.081  0.00  0.00    +0.000 C 
BRANCH  22  23
ATOM     23  C   UNL     1       2.448   6.131  18.205  0.00  0.00    +0.000 C 
BRANCH  23  24
ATOM     24  C   UNL     1       2.032   4.918  19.001  0.00  0.00    +0.000 A 
ATOM     25  C   UNL     1       1.434   3.821  18.365  0.00  0.00    +0.000 A 
ATOM     26  C   UNL     1       1.025   2.711  19.104  0.00  0.00    +0.000 A 
ATOM     27  C   UNL     1       1.198   2.687  20.487  0.00  0.00    +0.000 A 
ATOM     28  C   UNL     1       1.780   3.778  21.131  0.00  0.00    +0.000 A 
ATOM     29  C   UNL     1       2.191   4.890  20.393  0.00  0.00    +0.000 A 
ENDBRANCH  23  24
ENDBRANCH  22  23
ENDBRANCH  20  22
ENDBRANCH  17  18
ENDBRANCH  16  17
ENDBRANCH   1  16
TORSDOF 11
ENDMDL
MODEL 9
REMARK VINA RESULT:      -6.4      2.586      8.948
REMARK  Name = 
REMARK  12 active torsions:
REMARK  status: ('A' for Active; 'I' for Inactive)
REMARK    1  A    between atoms: C_1  and  C_2
REMARK    2  A    between atoms: C_5  and  S_6
REMARK    3  A    between atoms: S_6  and  N_9
REMARK    4  A    between atoms: N_9  and  C_10
REMARK    5  A    between atoms: C_10  and  C_11
REMARK    6  A    between atoms: C_11  and  C_12
REMARK    7  A    between atoms: C_12  and  C_13
REMARK    8  A    between atoms: C_13  and  C_14
REMARK    9  A    between atoms: C_14  and  C_15
REMARK   10  A    between atoms: N_17  and  C_18
REMARK   11  A    between atoms: C_18  and  C_19
REMARK   12  A    between atoms: C_19  and  C_20
REMARK                            x       y       z     vdW  Elec       q    Type
REMARK                         _______ _______ _______ _____ _____    ______ ____
ROOT
ATOM      1  C   UNL     1       2.268   5.683  20.198  0.00  0.00    +0.000 C 
ENDROOT
BRANCH   1   2
ATOM      2  C   UNL     1       2.253   6.765  19.109  0.00  0.00    +0.000 C 
BRANCH   2   3
ATOM      3  C   UNL     1       1.896   8.137  19.686  0.00  0.00    +0.000 C 
BRANCH   3   4
ATOM      4  N   UNL     1       1.447   9.048  18.635  0.00  0.00    +0.000 NA
ATOM      5  H   UNL     1       1.990   9.085  17.772  0.00  0.00    +0.000 HD
BRANCH   4   6
ATOM      6  S   UNL     1       1.041  10.612  19.138  0.00  0.00    +0.000 S 
ATOM      7  O   UNL     1       1.893  11.498  18.373  0.00  0.00    +0.000 OA
ATOM      8  O   UNL     1       1.035  10.639  20.582  0.00  0.00    +0.000 OA
BRANCH   6  13
ATOM      9  C   UNL     1      -4.775  11.055  17.447  0.00  0.00    +0.000 C 
ATOM     10  C   UNL     1      -3.321  10.979  17.816  0.00  0.00    +0.000 A 
ATOM     11  C   UNL     1      -2.488  10.011  17.243  0.00  0.00    +0.000 A 
ATOM     12  C   UNL     1      -1.145   9.921  17.620  0.00  0.00    +0.000 A 
ATOM     13  C   UNL     1      -0.626  10.817  18.560  0.00  0.00    +0.000 A 
ATOM     14  C   UNL     1      -1.449  11.787  19.138  0.00  0.00    +0.000 A 
ATOM     15  C   UNL     1      -2.792  11.866  18.765  0.00  0.00    +0.000 A 
ENDBRANCH   6  13
ENDBRANCH   4   6
ENDBRANCH   3   4
ENDBRANCH   2   3
ENDBRANCH   1   2
BRANCH   1  16
ATOM     16  C   UNL     1       1.971   4.267  19.697  0.00  0.00    +0.000 C 
BRANCH  16  17
ATOM     17  C   UNL     1       3.205   3.362  19.652  0.00  0.00    +0.000 C 
BRANCH  17  18
ATOM     18  C   UNL     1       3.638   3.100  18.224  0.00  0.00    +0.000 C 
ATOM     19  O   UNL     1       3.378   2.062  17.621  0.00  0.00    +0.000 OA
ATOM     20  N   UNL     1       4.338   4.141  17.651  0.00  0.00    +0.000 N 
ATOM     21  H   UNL     1       4.489   4.997  18.170  0.00  0.00    +0.000 HD
BRANCH  20  22
ATOM     22  C   UNL     1       4.772   4.031  16.271  0.00  0.00    +0.000 C 
BRANCH  22  23
ATOM     23  C   UNL     1       6.287   4.099  16.098  0.00  0.00    +0.000 C 
BRANCH  23  24
ATOM     24  C   UNL     1       6.895   5.144  17.001  0.00  0.00    +0.000 A 
ATOM     25  C   UNL     1       6.926   6.490  16.612  0.00  0.00    +0.000 A 
ATOM     26  C   UNL     1       7.512   7.452  17.435  0.00  0.00    +0.000 A 
ATOM     27  C   UNL     1       8.083   7.080  18.651  0.00  0.00    +0.000 A 
ATOM     28  C   UNL     1       8.068   5.742  19.043  0.00  0.00    +0.000 A 
ATOM     29  C   UNL     1       7.481   4.778  18.221  0.00  0.00    +0.000 A 
ENDBRANCH  23  24
ENDBRANCH  22  23
ENDBRANCH  20  22
ENDBRANCH  17  18
ENDBRANCH  16  17
ENDBRANCH   1  16
TORSDOF 11
ENDMDL
