MODEL 1
REMARK VINA RESULT:      -6.8      0.000      0.000
REMARK  Name = 
REMARK  6 active torsions:
REMARK  status: ('A' for Active; 'I' for Inactive)
REMARK    1  A    between atoms: C_1  and  O_2
REMARK    2  A    between atoms: O_2  and  C_3
REMARK    3  A    between atoms: N_9  and  C_10
REMARK    4  A    between atoms: C_10  and  C_11
REMARK    5  A    between atoms: C_11  and  C_12
REMARK    6  A    between atoms: C_12  and  O_14
REMARK                            x       y       z     vdW  Elec       q    Type
REMARK                         _______ _______ _______ _____ _____    ______ ____
ROOT
ATOM      1  C   UNL     1       5.987   5.213  16.259  0.00  0.00    +0.000 A 
ATOM      2  C   UNL     1       5.071   4.178  16.055  0.00  0.00    +0.000 A 
ATOM      3  C   UNL     1       3.979   4.114  16.894  0.00  0.00    +0.000 A 
ATOM      4  O   UNL     1       2.972   3.174  16.780  0.00  0.00    +0.000 OA
ATOM      5  C   UNL     1       2.110   3.537  17.816  0.00  0.00    +0.000 A 
ATOM      6  O   UNL     1       1.063   2.950  18.043  0.00  0.00    +0.000 OA
ATOM      7  N   UNL     1       2.614   4.608  18.536  0.00  0.00    +0.000 N 
ATOM      8  C   UNL     1       3.789   5.000  17.933  0.00  0.00    +0.000 A 
ATOM      9  C   UNL     1       4.673   6.025  18.179  0.00  0.00    +0.000 A 
ATOM     10  C   UNL     1       5.782   6.130  17.322  0.00  0.00    +0.000 A 
ATOM     11 CL   UNL     1       6.872   7.451  17.579  0.00  0.00    +0.000 Cl
ENDROOT
BRANCH   1  13
ATOM     12  C   UNL     1       7.022   4.855  14.159  0.00  0.00    +0.000 C 
ATOM     13  O   UNL     1       7.114   5.363  15.489  0.00  0.00    +0.000 OA
ENDBRANCH   1  13
BRANCH   7  14
ATOM     14  C   UNL     1       1.961   5.219  19.674  0.00  0.00    +0.000 C 
BRANCH  14  15
ATOM     15  C   UNL     1       2.573   4.744  20.991  0.00  0.00    +0.000 C 
BRANCH  15  16
ATOM     16  C   UNL     1       2.055   3.391  21.392  0.00  0.00    +0.000 C 
ATOM     17  O   UNL     1       2.697   2.540  21.985  0.00  0.00    +0.000 OA
BRANCH  16  18
ATOM     18  O   UNL     1       0.773   3.198  21.008  0.00  0.00    +0.000 OA
ATOM     19  H   UNL     1       0.195   3.979  21.141  0.00  0.00    +0.000 HD
ENDBRANCH  16  18
ENDBRANCH  15  16
ENDBRANCH  14  15
ENDBRANCH   7  14
TORSDOF 5
ENDMDL
MODEL 2
REMARK VINA RESULT:      -6.5      2.579      6.249
REMARK  Name = 
REMARK  6 active torsions:
REMARK  status: ('A' for Active; 'I' for Inactive)
REMARK    1  A    between atoms: C_1  and  O_2
REMARK    2  A    between atoms: O_2  and  C_3
REMARK    3  A    between atoms: N_9  and  C_10
REMARK    4  A    between atoms: C_10  and  C_11
REMARK    5  A    between atoms: C_11  and  C_12
REMARK    6  A    between atoms: C_12  and  O_14
REMARK                            x       y       z     vdW  Elec       q    Type
REMARK                         _______ _______ _______ _____ _____    ______ ____
ROOT
ATOM      1  C   UNL     1       3.123   3.034  19.668  0.00  0.00    +0.000 A 
ATOM      2  C   UNL     1       4.489   3.245  19.877  0.00  0.00    +0.000 A 
ATOM      3  C   UNL     1       5.166   4.018  18.958  0.00  0.00    +0.000 A 
ATOM      4  O   UNL     1       6.504   4.347  19.063  0.00  0.00    +0.000 OA
ATOM      5  C   UNL     1       6.702   5.143  17.934  0.00  0.00    +0.000 A 
ATOM      6  O   UNL     1       7.777   5.659  17.669  0.00  0.00    +0.000 OA
ATOM      7  N   UNL     1       5.547   5.234  17.175  0.00  0.00    +0.000 N 
ATOM      8  C   UNL     1       4.556   4.546  17.840  0.00  0.00    +0.000 A 
ATOM      9  C   UNL     1       3.217   4.351  17.587  0.00  0.00    +0.000 A 
ATOM     10  C   UNL     1       2.496   3.588  18.522  0.00  0.00    +0.000 A 
ATOM     11 CL   UNL     1       0.798   3.385  18.252  0.00  0.00    +0.000 Cl
ENDROOT
BRANCH   1  13
ATOM     12  C   UNL     1       1.904   2.931  21.695  0.00  0.00    +0.000 C 
ATOM     13  O   UNL     1       2.356   2.271  20.513  0.00  0.00    +0.000 OA
ENDBRANCH   1  13
BRANCH   7  14
ATOM     14  C   UNL     1       5.425   5.983  15.943  0.00  0.00    +0.000 C 
BRANCH  14  15
ATOM     15  C   UNL     1       5.308   5.053  14.735  0.00  0.00    +0.000 C 
BRANCH  15  16
ATOM     16  C   UNL     1       6.657   4.641  14.214  0.00  0.00    +0.000 C 
ATOM     17  O   UNL     1       7.689   5.278  14.354  0.00  0.00    +0.000 OA
BRANCH  16  18
ATOM     18  O   UNL     1       6.612   3.467  13.545  0.00  0.00    +0.000 OA
ATOM     19  H   UNL     1       5.866   2.888  13.806  0.00  0.00    +0.000 HD
ENDBRANCH  16  18
ENDBRANCH  15  16
ENDBRANCH  14  15
ENDBRANCH   7  14
TORSDOF 5
ENDMDL
MODEL 3
REMARK VINA RESULT:      -6.5      1.202      1.304
REMARK  Name = 
REMARK  6 active torsions:
REMARK  status: ('A' for Active; 'I' for Inactive)
REMARK    1  A    between atoms: C_1  and  O_2
REMARK    2  A    between atoms: O_2  and  C_3
REMARK    3  A    between atoms: N_9  and  C_10
REMARK    4  A    between atoms: C_10  and  C_11
REMARK    5  A    between atoms: C_11  and  C_12
REMARK    6  A    between atoms: C_12  and  O_14
REMARK                            x       y       z     vdW  Elec       q    Type
REMARK                         _______ _______ _______ _____ _____    ______ ____
ROOT
ATOM      1  C   UNL     1       6.318   5.155  16.381  0.00  0.00    +0.000 A 
ATOM      2  C   UNL     1       5.250   4.349  15.975  0.00  0.00    +0.000 A 
ATOM      3  C   UNL     1       4.483   3.760  16.957  0.00  0.00    +0.000 A 
ATOM      4  O   UNL     1       3.372   2.978  16.704  0.00  0.00    +0.000 OA
ATOM      5  C   UNL     1       2.942   2.648  17.990  0.00  0.00    +0.000 A 
ATOM      6  O   UNL     1       1.952   1.966  18.202  0.00  0.00    +0.000 OA
ATOM      7  N   UNL     1       3.793   3.169  18.952  0.00  0.00    +0.000 N 
ATOM      8  C   UNL     1       4.757   3.906  18.301  0.00  0.00    +0.000 A 
ATOM      9  C   UNL     1       5.807   4.677  18.744  0.00  0.00    +0.000 A 
ATOM     10  C   UNL     1       6.590   5.312  17.765  0.00  0.00    +0.000 A 
ATOM     11 CL   UNL     1       7.876   6.336  18.306  0.00  0.00    +0.000 Cl
ENDROOT
BRANCH   1  13
ATOM     12  C   UNL     1       7.293   5.133  14.223  0.00  0.00    +0.000 C 
ATOM     13  O   UNL     1       7.152   5.780  15.487  0.00  0.00    +0.000 OA
ENDBRANCH   1  13
BRANCH   7  14
ATOM     14  C   UNL     1       3.625   3.002  20.379  0.00  0.00    +0.000 C 
BRANCH  14  15
ATOM     15  C   UNL     1       2.498   3.885  20.915  0.00  0.00    +0.000 C 
BRANCH  15  16
ATOM     16  C   UNL     1       1.303   3.074  21.332  0.00  0.00    +0.000 C 
ATOM     17  O   UNL     1       1.210   2.443  22.373  0.00  0.00    +0.000 OA
BRANCH  16  18
ATOM     18  O   UNL     1       0.316   3.101  20.408  0.00  0.00    +0.000 OA
ATOM     19  H   UNL     1       0.046   4.005  20.141  0.00  0.00    +0.000 HD
ENDBRANCH  16  18
ENDBRANCH  15  16
ENDBRANCH  14  15
ENDBRANCH   7  14
TORSDOF 5
ENDMDL
MODEL 4
REMARK VINA RESULT:      -6.4      1.615      1.969
REMARK  Name = 
REMARK  6 active torsions:
REMARK  status: ('A' for Active; 'I' for Inactive)
REMARK    1  A    between atoms: C_1  and  O_2
REMARK    2  A    between atoms: O_2  and  C_3
REMARK    3  A    between atoms: N_9  and  C_10
REMARK    4  A    between atoms: C_10  and  C_11
REMARK    5  A    between atoms: C_11  and  C_12
REMARK    6  A    between atoms: C_12  and  O_14
REMARK                            x       y       z     vdW  Elec       q    Type
REMARK                         _______ _______ _______ _____ _____    ______ ____
ROOT
ATOM      1  C   UNL     1       6.619   5.953  17.340  0.00  0.00    +0.000 A 
ATOM      2  C   UNL     1       5.467   5.618  16.624  0.00  0.00    +0.000 A 
ATOM      3  C   UNL     1       4.568   4.760  17.222  0.00  0.00    +0.000 A 
ATOM      4  O   UNL     1       3.368   4.380  16.651  0.00  0.00    +0.000 OA
ATOM      5  C   UNL     1       2.823   3.549  17.632  0.00  0.00    +0.000 A 
ATOM      6  O   UNL     1       1.732   3.015  17.516  0.00  0.00    +0.000 OA
ATOM      7  N   UNL     1       3.688   3.408  18.705  0.00  0.00    +0.000 N 
ATOM      8  C   UNL     1       4.787   4.204  18.464  0.00  0.00    +0.000 A 
ATOM      9  C   UNL     1       5.914   4.494  19.197  0.00  0.00    +0.000 A 
ATOM     10  C   UNL     1       6.836   5.387  18.623  0.00  0.00    +0.000 A 
ATOM     11 CL   UNL     1       8.229   5.812  19.558  0.00  0.00    +0.000 Cl
ENDROOT
BRANCH   1  13
ATOM     12  C   UNL     1       7.621   8.097  17.403  0.00  0.00    +0.000 C 
ATOM     13  O   UNL     1       7.585   6.788  16.835  0.00  0.00    +0.000 OA
ENDBRANCH   1  13
BRANCH   7  14
ATOM     14  C   UNL     1       3.420   2.610  19.882  0.00  0.00    +0.000 C 
BRANCH  14  15
ATOM     15  C   UNL     1       2.734   3.435  20.971  0.00  0.00    +0.000 C 
BRANCH  15  16
ATOM     16  C   UNL     1       1.394   2.867  21.341  0.00  0.00    +0.000 C 
ATOM     17  O   UNL     1       1.136   2.299  22.391  0.00  0.00    +0.000 OA
BRANCH  16  18
ATOM     18  O   UNL     1       0.475   3.040  20.365  0.00  0.00    +0.000 OA
ATOM     19  H   UNL     1       0.681   3.775  19.750  0.00  0.00    +0.000 HD
ENDBRANCH  16  18
ENDBRANCH  15  16
ENDBRANCH  14  15
ENDBRANCH   7  14
TORSDOF 5
ENDMDL
MODEL 5
REMARK VINA RESULT:      -6.4      2.541      5.227
REMARK  Name = 
REMARK  6 active torsions:
REMARK  status: ('A' for Active; 'I' for Inactive)
REMARK    1  A    between atoms: C_1  and  O_2
REMARK    2  A    between atoms: O_2  and  C_3
REMARK    3  A    between atoms: N_9  and  C_10
REMARK    4  A    between atoms: C_10  and  C_11
REMARK    5  A    between atoms: C_11  and  C_12
REMARK    6  A    between atoms: C_12  and  O_14
REMARK                            x       y       z     vdW  Elec       q    Type
REMARK                         _______ _______ _______ _____ _____    ______ ____
ROOT
ATOM      1  C   UNL     1       2.840   3.096  18.560  0.00  0.00    +0.000 A 
ATOM      2  C   UNL     1       3.364   3.067  17.265  0.00  0.00    +0.000 A 
ATOM      3  C   UNL     1       4.258   4.055  16.913  0.00  0.00    +0.000 A 
ATOM      4  O   UNL     1       4.888   4.124  15.685  0.00  0.00    +0.000 OA
ATOM      5  C   UNL     1       5.691   5.257  15.827  0.00  0.00    +0.000 A 
ATOM      6  O   UNL     1       6.437   5.654  14.946  0.00  0.00    +0.000 OA
ATOM      7  N   UNL     1       5.501   5.854  17.063  0.00  0.00    +0.000 N 
ATOM      8  C   UNL     1       4.614   5.074  17.771  0.00  0.00    +0.000 A 
ATOM      9  C   UNL     1       4.111   5.150  19.050  0.00  0.00    +0.000 A 
ATOM     10  C   UNL     1       3.218   4.139  19.445  0.00  0.00    +0.000 A 
ATOM     11 CL   UNL     1       2.624   4.185  21.071  0.00  0.00    +0.000 Cl
ENDROOT
BRANCH   1  13
ATOM     12  C   UNL     1       0.563   2.487  18.781  0.00  0.00    +0.000 C 
ATOM     13  O   UNL     1       1.935   2.168  19.012  0.00  0.00    +0.000 OA
ENDBRANCH   1  13
BRANCH   7  14
ATOM     14  C   UNL     1       6.182   7.047  17.516  0.00  0.00    +0.000 C 
BRANCH  14  15
ATOM     15  C   UNL     1       7.622   6.744  17.930  0.00  0.00    +0.000 C 
BRANCH  15  16
ATOM     16  C   UNL     1       7.700   5.561  18.854  0.00  0.00    +0.000 C 
ATOM     17  O   UNL     1       7.426   5.579  20.044  0.00  0.00    +0.000 OA
BRANCH  16  18
ATOM     18  O   UNL     1       8.128   4.444  18.224  0.00  0.00    +0.000 OA
ATOM     19  H   UNL     1       7.480   3.709  18.233  0.00  0.00    +0.000 HD
ENDBRANCH  16  18
ENDBRANCH  15  16
ENDBRANCH  14  15
ENDBRANCH   7  14
TORSDOF 5
ENDMDL
MODEL 6
REMARK VINA RESULT:      -6.4      2.632      6.507
REMARK  Name = 
REMARK  6 active torsions:
REMARK  status: ('A' for Active; 'I' for Inactive)
REMARK    1  A    between atoms: C_1  and  O_2
REMARK    2  A    between atoms: O_2  and  C_3
REMARK    3  A    between atoms: N_9  and  C_10
REMARK    4  A    between atoms: C_10  and  C_11
REMARK    5  A    between atoms: C_11  and  C_12
REMARK    6  A    between atoms: C_12  and  O_14
REMARK                            x       y       z     vdW  Elec       q    Type
REMARK                         _______ _______ _______ _____ _____    ______ ____
ROOT
ATOM      1  C   UNL     1       3.043   4.720  19.430  0.00  0.00    +0.000 A 
ATOM      2  C   UNL     1       4.409   4.905  19.663  0.00  0.00    +0.000 A 
ATOM      3  C   UNL     1       5.278   4.638  18.626  0.00  0.00    +0.000 A 
ATOM      4  O   UNL     1       6.646   4.820  18.700  0.00  0.00    +0.000 OA
ATOM      5  C   UNL     1       7.064   4.445  17.422  0.00  0.00    +0.000 A 
ATOM      6  O   UNL     1       8.232   4.484  17.070  0.00  0.00    +0.000 OA
ATOM      7  N   UNL     1       5.996   4.014  16.652  0.00  0.00    +0.000 N 
ATOM      8  C   UNL     1       4.851   4.166  17.403  0.00  0.00    +0.000 A 
ATOM      9  C   UNL     1       3.518   3.956  17.136  0.00  0.00    +0.000 A 
ATOM     10  C   UNL     1       2.607   4.245  18.166  0.00  0.00    +0.000 A 
ATOM     11 CL   UNL     1       0.921   4.045  17.825  0.00  0.00    +0.000 Cl
ENDROOT
BRANCH   1  13
ATOM     12  C   UNL     1       1.835   3.847  21.269  0.00  0.00    +0.000 C 
ATOM     13  O   UNL     1       2.092   4.945  20.394  0.00  0.00    +0.000 OA
ENDBRANCH   1  13
BRANCH   7  14
ATOM     14  C   UNL     1       6.097   3.556  15.283  0.00  0.00    +0.000 C 
BRANCH  14  15
ATOM     15  C   UNL     1       5.929   4.710  14.295  0.00  0.00    +0.000 C 
BRANCH  15  16
ATOM     16  C   UNL     1       7.188   4.965  13.515  0.00  0.00    +0.000 C 
ATOM     17  O   UNL     1       7.388   4.607  12.366  0.00  0.00    +0.000 OA
BRANCH  16  18
ATOM     18  O   UNL     1       8.111   5.640  14.237  0.00  0.00    +0.000 OA
ATOM     19  H   UNL     1       8.920   5.871  13.733  0.00  0.00    +0.000 HD
ENDBRANCH  16  18
ENDBRANCH  15  16
ENDBRANCH  14  15
ENDBRANCH   7  14
TORSDOF 5
ENDMDL
MODEL 7
REMARK VINA RESULT:      -6.3      2.651      5.822
REMARK  Name = 
REMARK  6 active torsions:
REMARK  status: ('A' for Active; 'I' for Inactive)
REMARK    1  A    between atoms: C_1  and  O_2
REMARK    2  A    between atoms: O_2  and  C_3
REMARK    3  A    between atoms: N_9  and  C_10
REMARK    4  A    between atoms: C_10  and  C_11
REMARK    5  A    between atoms: C_11  and  C_12
REMARK    6  A    between atoms: C_12  and  O_14
REMARK                            x       y       z     vdW  Elec       q    Type
REMARK                         _______ _______ _______ _____ _____    ______ ____
ROOT
ATOM      1  C   UNL     1       2.260   3.263  19.575  0.00  0.00    +0.000 A 
ATOM      2  C   UNL     1       1.900   4.604  19.726  0.00  0.00    +0.000 A 
ATOM      3  C   UNL     1       2.542   5.533  18.936  0.00  0.00    +0.000 A 
ATOM      4  O   UNL     1       2.256   6.885  18.947  0.00  0.00    +0.000 OA
ATOM      5  C   UNL     1       3.133   7.381  17.980  0.00  0.00    +0.000 A 
ATOM      6  O   UNL     1       3.177   8.561  17.670  0.00  0.00    +0.000 OA
ATOM      7  N   UNL     1       3.932   6.374  17.465  0.00  0.00    +0.000 N 
ATOM      8  C   UNL     1       3.538   5.189  18.047  0.00  0.00    +0.000 A 
ATOM      9  C   UNL     1       3.934   3.882  17.876  0.00  0.00    +0.000 A 
ATOM     10  C   UNL     1       3.277   2.910  18.650  0.00  0.00    +0.000 A 
ATOM     11 CL   UNL     1       3.720   1.255  18.403  0.00  0.00    +0.000 Cl
ENDROOT
BRANCH   1  13
ATOM     12  C   UNL     1       1.438   2.574  21.686  0.00  0.00    +0.000 C 
ATOM     13  O   UNL     1       1.692   2.257  20.318  0.00  0.00    +0.000 OA
ENDBRANCH   1  13
BRANCH   7  14
ATOM     14  C   UNL     1       4.945   6.563  16.449  0.00  0.00    +0.000 C 
BRANCH  14  15
ATOM     15  C   UNL     1       6.344   6.626  17.062  0.00  0.00    +0.000 C 
BRANCH  15  16
ATOM     16  C   UNL     1       7.225   5.516  16.561  0.00  0.00    +0.000 C 
ATOM     17  O   UNL     1       7.708   4.634  17.254  0.00  0.00    +0.000 OA
BRANCH  16  18
ATOM     18  O   UNL     1       7.447   5.598  15.230  0.00  0.00    +0.000 OA
ATOM     19  H   UNL     1       8.074   4.926  14.889  0.00  0.00    +0.000 HD
ENDBRANCH  16  18
ENDBRANCH  15  16
ENDBRANCH  14  15
ENDBRANCH   7  14
TORSDOF 5
ENDMDL
MODEL 8
REMARK VINA RESULT:      -6.3      2.821      6.512
REMARK  Name = 
REMARK  6 active torsions:
REMARK  status: ('A' for Active; 'I' for Inactive)
REMARK    1  A    between atoms: C_1  and  O_2
REMARK    2  A    between atoms: O_2  and  C_3
REMARK    3  A    between atoms: N_9  and  C_10
REMARK    4  A    between atoms: C_10  and  C_11
REMARK    5  A    between atoms: C_11  and  C_12
REMARK    6  A    between atoms: C_12  and  O_14
REMARK                            x       y       z     vdW  Elec       q    Type
REMARK                         _______ _______ _______ _____ _____    ______ ____
ROOT
ATOM      1  C   UNL     1       3.762   3.634  19.437  0.00  0.00    +0.000 A 
ATOM      2  C   UNL     1       4.944   4.379  19.437  0.00  0.00    +0.000 A 
ATOM      3  C   UNL     1       5.457   4.767  18.218  0.00  0.00    +0.000 A 
ATOM      4  O   UNL     1       6.591   5.544  18.070  0.00  0.00    +0.000 OA
ATOM      5  C   UNL     1       6.678   5.680  16.684  0.00  0.00    +0.000 A 
ATOM      6  O   UNL     1       7.555   6.329  16.136  0.00  0.00    +0.000 OA
ATOM      7  N   UNL     1       5.672   4.971  16.047  0.00  0.00    +0.000 N 
ATOM      8  C   UNL     1       4.872   4.415  17.021  0.00  0.00    +0.000 A 
ATOM      9  C   UNL     1       3.716   3.670  16.973  0.00  0.00    +0.000 A 
ATOM     10  C   UNL     1       3.156   3.283  18.202  0.00  0.00    +0.000 A 
ATOM     11 CL   UNL     1       1.668   2.399  18.162  0.00  0.00    +0.000 Cl
ENDROOT
BRANCH   1  13
ATOM     12  C   UNL     1       2.280   4.107  21.222  0.00  0.00    +0.000 C 
ATOM     13  O   UNL     1       3.170   3.186  20.592  0.00  0.00    +0.000 OA
ENDBRANCH   1  13
BRANCH   7  14
ATOM     14  C   UNL     1       5.489   4.907  14.613  0.00  0.00    +0.000 C 
BRANCH  14  15
ATOM     15  C   UNL     1       6.372   3.827  13.986  0.00  0.00    +0.000 C 
BRANCH  15  16
ATOM     16  C   UNL     1       5.843   3.377  12.654  0.00  0.00    +0.000 C 
ATOM     17  O   UNL     1       4.726   3.618  12.223  0.00  0.00    +0.000 OA
BRANCH  16  18
ATOM     18  O   UNL     1       6.746   2.645  11.963  0.00  0.00    +0.000 OA
ATOM     19  H   UNL     1       7.499   3.167  11.615  0.00  0.00    +0.000 HD
ENDBRANCH  16  18
ENDBRANCH  15  16
ENDBRANCH  14  15
ENDBRANCH   7  14
TORSDOF 5
ENDMDL
MODEL 9
REMARK VINA RESULT:      -6.3      1.807      2.100
REMARK  Name = 
REMARK  6 active torsions:
REMARK  status: ('A' for Active; 'I' for Inactive)
REMARK    1  A    between atoms: C_1  and  O_2
REMARK    2  A    between atoms: O_2  and  C_3
REMARK    3  A    between atoms: N_9  and  C_10
REMARK    4  A    between atoms: C_10  and  C_11
REMARK    5  A    between atoms: C_11  and  C_12
REMARK    6  A    between atoms: C_12  and  O_14
REMARK                            x       y       z     vdW  Elec       q    Type
REMARK                         _______ _______ _______ _____ _____    ______ ____
ROOT
ATOM      1  C   UNL     1       6.326   4.605  16.771  0.00  0.00    +0.000 A 
ATOM      2  C   UNL     1       5.166   3.951  16.348  0.00  0.00    +0.000 A 
ATOM      3  C   UNL     1       4.120   3.860  17.241  0.00  0.00    +0.000 A 
ATOM      4  O   UNL     1       2.900   3.283  16.945  0.00  0.00    +0.000 OA
ATOM      5  C   UNL     1       2.192   3.458  18.135  0.00  0.00    +0.000 A 
ATOM      6  O   UNL     1       1.035   3.093  18.277  0.00  0.00    +0.000 OA
ATOM      7  N   UNL     1       2.978   4.064  19.101  0.00  0.00    +0.000 N 
ATOM      8  C   UNL     1       4.197   4.352  18.527  0.00  0.00    +0.000 A 
ATOM      9  C   UNL     1       5.325   4.991  18.989  0.00  0.00    +0.000 A 
ATOM     10  C   UNL     1       6.397   5.121  18.091  0.00  0.00    +0.000 A 
ATOM     11 CL   UNL     1       7.801   5.976  18.637  0.00  0.00    +0.000 Cl
ENDROOT
BRANCH   1  13
ATOM     12  C   UNL     1       7.165   4.834  14.569  0.00  0.00    +0.000 C 
ATOM     13  O   UNL     1       7.431   4.742  15.968  0.00  0.00    +0.000 OA
ENDBRANCH   1  13
BRANCH   7  14
ATOM     14  C   UNL     1       2.539   4.381  20.443  0.00  0.00    +0.000 C 
BRANCH  14  15
ATOM     15  C   UNL     1       1.433   5.436  20.433  0.00  0.00    +0.000 C 
BRANCH  15  16
ATOM     16  C   UNL     1       1.983   6.821  20.240  0.00  0.00    +0.000 C 
ATOM     17  O   UNL     1       2.483   7.243  19.209  0.00  0.00    +0.000 OA
BRANCH  16  18
ATOM     18  O   UNL     1       1.881   7.575  21.358  0.00  0.00    +0.000 OA
ATOM     19  H   UNL     1       2.662   8.142  21.530  0.00  0.00    +0.000 HD
ENDBRANCH  16  18
ENDBRANCH  15  16
ENDBRANCH  14  15
ENDBRANCH   7  14
TORSDOF 5
ENDMDL
