MODEL 1
REMARK VINA RESULT:      -8.0      0.000      0.000
REMARK  Name = 
REMARK  5 active torsions:
REMARK  status: ('A' for Active; 'I' for Inactive)
REMARK    1  A    between atoms: C_1  and  C_2
REMARK    2  A    between atoms: C_2  and  O_3
REMARK    3  A    between atoms: O_3  and  C_4
REMARK    4  A    between atoms: C_7  and  C_8
REMARK    5  A    between atoms: C_13  and  C_14
REMARK                            x       y       z     vdW  Elec       q    Type
REMARK                         _______ _______ _______ _____ _____    ______ ____
ROOT
ATOM      1  C   UNL     1       1.213   8.626  20.349  0.00  0.00    +0.000 C 
ATOM      2  O   UNL     1       1.507   8.984  19.211  0.00  0.00    +0.000 OA
ATOM      3  N   UNL     1       1.500   7.406  20.918  0.00  0.00    +0.000 N 
ATOM      4  C   UNL     1       2.197   6.459  20.213  0.00  0.00    +0.000 A 
ATOM      5  N   UNL     1       2.882   6.557  19.102  0.00  0.00    +0.000 NA
ATOM      6  C   UNL     1       3.390   5.298  18.770  0.00  0.00    +0.000 A 
ATOM      7  N   UNL     1       3.099   4.268  19.580  0.00  0.00    +0.000 NA
ATOM      8  S   UNL     1       2.191   4.874  20.841  0.00  0.00    +0.000 S 
ATOM      9  H   UNL     1       1.081   7.124  21.791  0.00  0.00    +0.000 HD
ENDROOT
BRANCH   6  10
ATOM     10  C   UNL     1       4.225   5.134  17.571  0.00  0.00    +0.000 A 
ATOM     11  C   UNL     1       4.634   3.858  17.152  0.00  0.00    +0.000 A 
ATOM     12  C   UNL     1       5.428   3.699  16.009  0.00  0.00    +0.000 A 
ATOM     13  C   UNL     1       5.821   4.818  15.278  0.00  0.00    +0.000 A 
ATOM     14 BR   UNL     1       6.905   4.610  13.743  0.00  0.00    +0.000 Br
ATOM     15  C   UNL     1       5.424   6.092  15.674  0.00  0.00    +0.000 A 
ATOM     16  C   UNL     1       4.627   6.247  16.814  0.00  0.00    +0.000 A 
ENDBRANCH   6  10
BRANCH   1  20
ATOM     17  C   UNL     1      -0.997  11.464  22.689  0.00  0.00    +0.000 A 
ATOM     18  C   UNL     1      -0.444  11.817  21.458  0.00  0.00    +0.000 A 
ATOM     19  C   UNL     1       0.248  10.872  20.701  0.00  0.00    +0.000 A 
ATOM     20  C   UNL     1       0.406   9.563  21.173  0.00  0.00    +0.000 A 
ATOM     21  C   UNL     1      -0.131   9.210  22.419  0.00  0.00    +0.000 A 
ATOM     22  C   UNL     1      -0.823  10.166  23.178  0.00  0.00    +0.000 A 
BRANCH  17  23
ATOM     23  O   UNL     1      -1.652  12.474  23.335  0.00  0.00    +0.000 OA
BRANCH  23  25
ATOM     24  C   UNL     1      -3.826  12.783  22.418  0.00  0.00    +0.000 C 
ATOM     25  C   UNL     1      -3.036  12.258  23.603  0.00  0.00    +0.000 C 
ENDBRANCH  23  25
ENDBRANCH  17  23
ENDBRANCH   1  20
TORSDOF 4
ENDMDL
MODEL 2
REMARK VINA RESULT:      -7.9      0.378      1.482
REMARK  Name = 
REMARK  5 active torsions:
REMARK  status: ('A' for Active; 'I' for Inactive)
REMARK    1  A    between atoms: C_1  and  C_2
REMARK    2  A    between atoms: C_2  and  O_3
REMARK    3  A    between atoms: O_3  and  C_4
REMARK    4  A    between atoms: C_7  and  C_8
REMARK    5  A    between atoms: C_13  and  C_14
REMARK                            x       y       z     vdW  Elec       q    Type
REMARK                         _______ _______ _______ _____ _____    ______ ____
ROOT
ATOM      1  C   UNL     1       1.226   8.841  20.398  0.00  0.00    +0.000 C 
ATOM      2  O   UNL     1       1.579   9.204  19.278  0.00  0.00    +0.000 OA
ATOM      3  N   UNL     1       1.423   7.595  20.949  0.00  0.00    +0.000 N 
ATOM      4  C   UNL     1       2.088   6.623  20.246  0.00  0.00    +0.000 A 
ATOM      5  N   UNL     1       2.815   6.703  19.161  0.00  0.00    +0.000 NA
ATOM      6  C   UNL     1       3.260   5.424  18.818  0.00  0.00    +0.000 A 
ATOM      7  N   UNL     1       2.883   4.396  19.595  0.00  0.00    +0.000 NA
ATOM      8  S   UNL     1       1.969   5.029  20.839  0.00  0.00    +0.000 S 
ATOM      9  H   UNL     1       0.959   7.321  21.801  0.00  0.00    +0.000 HD
ENDROOT
BRANCH   6  10
ATOM     10  C   UNL     1       4.125   5.235  17.644  0.00  0.00    +0.000 A 
ATOM     11  C   UNL     1       4.584   6.340  16.908  0.00  0.00    +0.000 A 
ATOM     12  C   UNL     1       5.409   6.163  15.791  0.00  0.00    +0.000 A 
ATOM     13  C   UNL     1       5.780   4.878  15.399  0.00  0.00    +0.000 A 
ATOM     14 BR   UNL     1       6.882   4.634  13.882  0.00  0.00    +0.000 Br
ATOM     15  C   UNL     1       5.338   3.770  16.117  0.00  0.00    +0.000 A 
ATOM     16  C   UNL     1       4.517   3.950  17.235  0.00  0.00    +0.000 A 
ENDBRANCH   6  10
BRANCH   1  20
ATOM     17  C   UNL     1      -1.147  11.498  22.790  0.00  0.00    +0.000 A 
ATOM     18  C   UNL     1      -0.945  10.172  23.168  0.00  0.00    +0.000 A 
ATOM     19  C   UNL     1      -0.149   9.331  22.390  0.00  0.00    +0.000 A 
ATOM     20  C   UNL     1       0.447   9.807  21.215  0.00  0.00    +0.000 A 
ATOM     21  C   UNL     1       0.231  11.134  20.821  0.00  0.00    +0.000 A 
ATOM     22  C   UNL     1      -0.574  11.974  21.606  0.00  0.00    +0.000 A 
BRANCH  17  23
ATOM     23  O   UNL     1      -1.942  12.221  23.632  0.00  0.00    +0.000 OA
BRANCH  23  25
ATOM     24  C   UNL     1      -4.082  12.602  24.601  0.00  0.00    +0.000 C 
ATOM     25  C   UNL     1      -3.337  12.227  23.333  0.00  0.00    +0.000 C 
ENDBRANCH  23  25
ENDBRANCH  17  23
ENDBRANCH   1  20
TORSDOF 4
ENDMDL
MODEL 3
REMARK VINA RESULT:      -7.8      0.638      1.227
REMARK  Name = 
REMARK  5 active torsions:
REMARK  status: ('A' for Active; 'I' for Inactive)
REMARK    1  A    between atoms: C_1  and  C_2
REMARK    2  A    between atoms: C_2  and  O_3
REMARK    3  A    between atoms: O_3  and  C_4
REMARK    4  A    between atoms: C_7  and  C_8
REMARK    5  A    between atoms: C_13  and  C_14
REMARK                            x       y       z     vdW  Elec       q    Type
REMARK                         _______ _______ _______ _____ _____    ______ ____
ROOT
ATOM      1  C   UNL     1       1.253   8.674  20.249  0.00  0.00    +0.000 C 
ATOM      2  O   UNL     1       1.534   9.005  19.099  0.00  0.00    +0.000 OA
ATOM      3  N   UNL     1       1.539   7.464  20.840  0.00  0.00    +0.000 N 
ATOM      4  C   UNL     1       2.219   6.497  20.146  0.00  0.00    +0.000 A 
ATOM      5  N   UNL     1       2.890   6.565  19.025  0.00  0.00    +0.000 NA
ATOM      6  C   UNL     1       3.384   5.296  18.713  0.00  0.00    +0.000 A 
ATOM      7  N   UNL     1       3.097   4.286  19.548  0.00  0.00    +0.000 NA
ATOM      8  S   UNL     1       2.210   4.926  20.808  0.00  0.00    +0.000 S 
ATOM      9  H   UNL     1       1.130   7.204  21.725  0.00  0.00    +0.000 HD
ENDROOT
BRANCH   6  10
ATOM     10  C   UNL     1       4.201   5.100  17.506  0.00  0.00    +0.000 A 
ATOM     11  C   UNL     1       4.553   3.808  17.081  0.00  0.00    +0.000 A 
ATOM     12  C   UNL     1       5.330   3.619  15.932  0.00  0.00    +0.000 A 
ATOM     13  C   UNL     1       5.763   4.722  15.199  0.00  0.00    +0.000 A 
ATOM     14 BR   UNL     1       6.824   4.472  13.654  0.00  0.00    +0.000 Br
ATOM     15  C   UNL     1       5.422   6.011  15.601  0.00  0.00    +0.000 A 
ATOM     16  C   UNL     1       4.643   6.197  16.748  0.00  0.00    +0.000 A 
ENDBRANCH   6  10
BRANCH   1  20
ATOM     17  C   UNL     1      -1.124  11.308  22.662  0.00  0.00    +0.000 A 
ATOM     18  C   UNL     1      -0.714  10.064  23.140  0.00  0.00    +0.000 A 
ATOM     19  C   UNL     1       0.081   9.234  22.350  0.00  0.00    +0.000 A 
ATOM     20  C   UNL     1       0.465   9.634  21.064  0.00  0.00    +0.000 A 
ATOM     21  C   UNL     1       0.037  10.875  20.572  0.00  0.00    +0.000 A 
ATOM     22  C   UNL     1      -0.765  11.705  21.370  0.00  0.00    +0.000 A 
BRANCH  17  23
ATOM     23  O   UNL     1      -1.896  12.030  23.527  0.00  0.00    +0.000 OA
BRANCH  23  25
ATOM     24  C   UNL     1      -1.433  14.333  23.902  0.00  0.00    +0.000 C 
ATOM     25  C   UNL     1      -2.260  13.343  23.104  0.00  0.00    +0.000 C 
ENDBRANCH  23  25
ENDBRANCH  17  23
ENDBRANCH   1  20
TORSDOF 4
ENDMDL
MODEL 4
REMARK VINA RESULT:      -7.7      0.597      1.153
REMARK  Name = 
REMARK  5 active torsions:
REMARK  status: ('A' for Active; 'I' for Inactive)
REMARK    1  A    between atoms: C_1  and  C_2
REMARK    2  A    between atoms: C_2  and  O_3
REMARK    3  A    between atoms: O_3  and  C_4
REMARK    4  A    between atoms: C_7  and  C_8
REMARK    5  A    between atoms: C_13  and  C_14
REMARK                            x       y       z     vdW  Elec       q    Type
REMARK                         _______ _______ _______ _____ _____    ______ ____
ROOT
ATOM      1  C   UNL     1       1.265   8.626  20.371  0.00  0.00    +0.000 C 
ATOM      2  O   UNL     1       1.594   9.008  19.249  0.00  0.00    +0.000 OA
ATOM      3  N   UNL     1       1.498   7.381  20.907  0.00  0.00    +0.000 N 
ATOM      4  C   UNL     1       2.174   6.430  20.186  0.00  0.00    +0.000 A 
ATOM      5  N   UNL     1       2.883   6.536  19.092  0.00  0.00    +0.000 NA
ATOM      6  C   UNL     1       3.352   5.270  18.730  0.00  0.00    +0.000 A 
ATOM      7  N   UNL     1       3.009   4.228  19.503  0.00  0.00    +0.000 NA
ATOM      8  S   UNL     1       2.099   4.828  20.765  0.00  0.00    +0.000 S 
ATOM      9  H   UNL     1       1.053   7.088  21.763  0.00  0.00    +0.000 HD
ENDROOT
BRANCH   6  10
ATOM     10  C   UNL     1       4.204   5.112  17.542  0.00  0.00    +0.000 A 
ATOM     11  C   UNL     1       4.622   6.233  16.806  0.00  0.00    +0.000 A 
ATOM     12  C   UNL     1       5.435   6.085  15.676  0.00  0.00    +0.000 A 
ATOM     13  C   UNL     1       5.834   4.812  15.271  0.00  0.00    +0.000 A 
ATOM     14 BR   UNL     1       6.919   4.607  13.737  0.00  0.00    +0.000 Br
ATOM     15  C   UNL     1       5.433   3.689  15.988  0.00  0.00    +0.000 A 
ATOM     16  C   UNL     1       4.624   3.840  17.120  0.00  0.00    +0.000 A 
ENDBRANCH   6  10
BRANCH   1  20
ATOM     17  C   UNL     1      -0.884  11.471  22.757  0.00  0.00    +0.000 A 
ATOM     18  C   UNL     1      -0.279  11.846  21.559  0.00  0.00    +0.000 A 
ATOM     19  C   UNL     1       0.393  10.900  20.785  0.00  0.00    +0.000 A 
ATOM     20  C   UNL     1       0.477   9.567  21.208  0.00  0.00    +0.000 A 
ATOM     21  C   UNL     1      -0.114   9.191  22.422  0.00  0.00    +0.000 A 
ATOM     22  C   UNL     1      -0.785  10.148  23.198  0.00  0.00    +0.000 A 
BRANCH  17  23
ATOM     23  O   UNL     1      -1.512  12.484  23.425  0.00  0.00    +0.000 OA
BRANCH  23  25
ATOM     24  C   UNL     1      -2.968  14.304  22.943  0.00  0.00    +0.000 C 
ATOM     25  C   UNL     1      -1.572  13.741  22.753  0.00  0.00    +0.000 C 
ENDBRANCH  23  25
ENDBRANCH  17  23
ENDBRANCH   1  20
TORSDOF 4
ENDMDL
MODEL 5
REMARK VINA RESULT:      -7.3      7.508      8.018
REMARK  Name = 
REMARK  5 active torsions:
REMARK  status: ('A' for Active; 'I' for Inactive)
REMARK    1  A    between atoms: C_1  and  C_2
REMARK    2  A    between atoms: C_2  and  O_3
REMARK    3  A    between atoms: O_3  and  C_4
REMARK    4  A    between atoms: C_7  and  C_8
REMARK    5  A    between atoms: C_13  and  C_14
REMARK                            x       y       z     vdW  Elec       q    Type
REMARK                         _______ _______ _______ _____ _____    ______ ____
ROOT
ATOM      1  C   UNL     1       8.588   9.316  18.268  0.00  0.00    +0.000 C 
ATOM      2  O   UNL     1       8.086   9.496  17.160  0.00  0.00    +0.000 OA
ATOM      3  N   UNL     1       8.613   8.130  18.965  0.00  0.00    +0.000 N 
ATOM      4  C   UNL     1       8.064   6.995  18.426  0.00  0.00    +0.000 A 
ATOM      5  N   UNL     1       7.678   6.735  17.203  0.00  0.00    +0.000 NA
ATOM      6  C   UNL     1       7.158   5.439  17.158  0.00  0.00    +0.000 A 
ATOM      7  N   UNL     1       7.128   4.732  18.299  0.00  0.00    +0.000 NA
ATOM      8  S   UNL     1       7.813   5.683  19.485  0.00  0.00    +0.000 S 
ATOM      9  H   UNL     1       8.891   8.099  19.935  0.00  0.00    +0.000 HD
ENDROOT
BRANCH   6  10
ATOM     10  C   UNL     1       6.673   4.883  15.885  0.00  0.00    +0.000 A 
ATOM     11  C   UNL     1       5.483   4.139  15.835  0.00  0.00    +0.000 A 
ATOM     12  C   UNL     1       5.019   3.611  14.624  0.00  0.00    +0.000 A 
ATOM     13  C   UNL     1       5.745   3.822  13.453  0.00  0.00    +0.000 A 
ATOM     14 BR   UNL     1       5.130   3.099  11.818  0.00  0.00    +0.000 Br
ATOM     15  C   UNL     1       6.925   4.560  13.480  0.00  0.00    +0.000 A 
ATOM     16  C   UNL     1       7.384   5.090  14.691  0.00  0.00    +0.000 A 
ENDBRANCH   6  10
BRANCH   1  20
ATOM     17  C   UNL     1      10.358  12.751  20.131  0.00  0.00    +0.000 A 
ATOM     18  C   UNL     1      10.157  12.701  18.753  0.00  0.00    +0.000 A 
ATOM     19  C   UNL     1       9.556  11.586  18.170  0.00  0.00    +0.000 A 
ATOM     20  C   UNL     1       9.159  10.500  18.960  0.00  0.00    +0.000 A 
ATOM     21  C   UNL     1       9.378  10.538  20.344  0.00  0.00    +0.000 A 
ATOM     22  C   UNL     1       9.986  11.661  20.924  0.00  0.00    +0.000 A 
BRANCH  17  23
ATOM     23  O   UNL     1      10.953  13.895  20.584  0.00  0.00    +0.000 OA
BRANCH  23  25
ATOM     24  C   UNL     1       9.669  15.021  22.240  0.00  0.00    +0.000 C 
ATOM     25  C   UNL     1      10.095  15.016  20.784  0.00  0.00    +0.000 C 
ENDBRANCH  23  25
ENDBRANCH  17  23
ENDBRANCH   1  20
TORSDOF 4
ENDMDL
MODEL 6
REMARK VINA RESULT:      -7.3      1.187      1.785
REMARK  Name = 
REMARK  5 active torsions:
REMARK  status: ('A' for Active; 'I' for Inactive)
REMARK    1  A    between atoms: C_1  and  C_2
REMARK    2  A    between atoms: C_2  and  O_3
REMARK    3  A    between atoms: O_3  and  C_4
REMARK    4  A    between atoms: C_7  and  C_8
REMARK    5  A    between atoms: C_13  and  C_14
REMARK                            x       y       z     vdW  Elec       q    Type
REMARK                         _______ _______ _______ _____ _____    ______ ____
ROOT
ATOM      1  C   UNL     1       1.891   8.123  19.776  0.00  0.00    +0.000 C 
ATOM      2  O   UNL     1       2.166   8.563  18.661  0.00  0.00    +0.000 OA
ATOM      3  N   UNL     1       2.250   6.893  20.276  0.00  0.00    +0.000 N 
ATOM      4  C   UNL     1       3.005   6.031  19.523  0.00  0.00    +0.000 A 
ATOM      5  N   UNL     1       3.687   6.234  18.425  0.00  0.00    +0.000 NA
ATOM      6  C   UNL     1       4.272   5.029  18.025  0.00  0.00    +0.000 A 
ATOM      7  N   UNL     1       4.042   3.938  18.773  0.00  0.00    +0.000 NA
ATOM      8  S   UNL     1       3.094   4.415  20.060  0.00  0.00    +0.000 S 
ATOM      9  H   UNL     1       1.846   6.536  21.129  0.00  0.00    +0.000 HD
ENDROOT
BRANCH   6  10
ATOM     10  C   UNL     1       5.120   4.985  16.824  0.00  0.00    +0.000 A 
ATOM     11  C   UNL     1       6.378   5.609  16.812  0.00  0.00    +0.000 A 
ATOM     12  C   UNL     1       7.188   5.566  15.671  0.00  0.00    +0.000 A 
ATOM     13  C   UNL     1       6.743   4.900  14.531  0.00  0.00    +0.000 A 
ATOM     14 BR   UNL     1       7.828   4.853  12.983  0.00  0.00    +0.000 Br
ATOM     15  C   UNL     1       5.501   4.272  14.523  0.00  0.00    +0.000 A 
ATOM     16  C   UNL     1       4.695   4.313  15.666  0.00  0.00    +0.000 A 
ENDBRANCH   6  10
BRANCH   1  20
ATOM     17  C   UNL     1      -0.642  10.394  22.391  0.00  0.00    +0.000 A 
ATOM     18  C   UNL     1       0.244   9.442  22.892  0.00  0.00    +0.000 A 
ATOM     19  C   UNL     1       1.078   8.733  22.027  0.00  0.00    +0.000 A 
ATOM     20  C   UNL     1       1.025   8.961  20.646  0.00  0.00    +0.000 A 
ATOM     21  C   UNL     1       0.122   9.904  20.137  0.00  0.00    +0.000 A 
ATOM     22  C   UNL     1      -0.717  10.611  21.011  0.00  0.00    +0.000 A 
BRANCH  17  23
ATOM     23  O   UNL     1      -1.403  11.024  23.335  0.00  0.00    +0.000 OA
BRANCH  23  25
ATOM     24  C   UNL     1      -1.338  13.402  23.324  0.00  0.00    +0.000 C 
ATOM     25  C   UNL     1      -2.123  12.175  22.900  0.00  0.00    +0.000 C 
ENDBRANCH  23  25
ENDBRANCH  17  23
ENDBRANCH   1  20
TORSDOF 4
ENDMDL
MODEL 7
REMARK VINA RESULT:      -7.3      7.479      8.038
REMARK  Name = 
REMARK  5 active torsions:
REMARK  status: ('A' for Active; 'I' for Inactive)
REMARK    1  A    between atoms: C_1  and  C_2
REMARK    2  A    between atoms: C_2  and  O_3
REMARK    3  A    between atoms: O_3  and  C_4
REMARK    4  A    between atoms: C_7  and  C_8
REMARK    5  A    between atoms: C_13  and  C_14
REMARK                            x       y       z     vdW  Elec       q    Type
REMARK                         _______ _______ _______ _____ _____    ______ ____
ROOT
ATOM      1  C   UNL     1       8.573   9.304  18.250  0.00  0.00    +0.000 C 
ATOM      2  O   UNL     1       8.067   9.484  17.143  0.00  0.00    +0.000 OA
ATOM      3  N   UNL     1       8.600   8.119  18.948  0.00  0.00    +0.000 N 
ATOM      4  C   UNL     1       8.049   6.984  18.411  0.00  0.00    +0.000 A 
ATOM      5  N   UNL     1       7.659   6.722  17.190  0.00  0.00    +0.000 NA
ATOM      6  C   UNL     1       7.137   5.427  17.148  0.00  0.00    +0.000 A 
ATOM      7  N   UNL     1       7.112   4.720  18.289  0.00  0.00    +0.000 NA
ATOM      8  S   UNL     1       7.801   5.673  19.472  0.00  0.00    +0.000 S 
ATOM      9  H   UNL     1       8.881   8.088  19.916  0.00  0.00    +0.000 HD
ENDROOT
BRANCH   6  10
ATOM     10  C   UNL     1       6.648   4.871  15.877  0.00  0.00    +0.000 A 
ATOM     11  C   UNL     1       7.377   5.049  14.690  0.00  0.00    +0.000 A 
ATOM     12  C   UNL     1       6.915   4.518  13.479  0.00  0.00    +0.000 A 
ATOM     13  C   UNL     1       5.717   3.807  13.447  0.00  0.00    +0.000 A 
ATOM     14 BR   UNL     1       5.082   3.102  11.812  0.00  0.00    +0.000 Br
ATOM     15  C   UNL     1       4.981   3.616  14.613  0.00  0.00    +0.000 A 
ATOM     16  C   UNL     1       5.447   4.143  15.822  0.00  0.00    +0.000 A 
ENDBRANCH   6  10
BRANCH   1  20
ATOM     17  C   UNL     1      10.351  12.740  20.104  0.00  0.00    +0.000 A 
ATOM     18  C   UNL     1      10.144  12.689  18.727  0.00  0.00    +0.000 A 
ATOM     19  C   UNL     1       9.541  11.574  18.147  0.00  0.00    +0.000 A 
ATOM     20  C   UNL     1       9.147  10.488  18.939  0.00  0.00    +0.000 A 
ATOM     21  C   UNL     1       9.371  10.527  20.322  0.00  0.00    +0.000 A 
ATOM     22  C   UNL     1       9.982  11.651  20.900  0.00  0.00    +0.000 A 
BRANCH  17  23
ATOM     23  O   UNL     1      10.948  13.884  20.554  0.00  0.00    +0.000 OA
BRANCH  23  25
ATOM     24  C   UNL     1       9.212  15.310  21.338  0.00  0.00    +0.000 C 
ATOM     25  C   UNL     1      10.268  15.105  20.268  0.00  0.00    +0.000 C 
ENDBRANCH  23  25
ENDBRANCH  17  23
ENDBRANCH   1  20
TORSDOF 4
ENDMDL
MODEL 8
REMARK VINA RESULT:      -7.2      0.986      1.470
REMARK  Name = 
REMARK  5 active torsions:
REMARK  status: ('A' for Active; 'I' for Inactive)
REMARK    1  A    between atoms: C_1  and  C_2
REMARK    2  A    between atoms: C_2  and  O_3
REMARK    3  A    between atoms: O_3  and  C_4
REMARK    4  A    between atoms: C_7  and  C_8
REMARK    5  A    between atoms: C_13  and  C_14
REMARK                            x       y       z     vdW  Elec       q    Type
REMARK                         _______ _______ _______ _____ _____    ______ ____
ROOT
ATOM      1  C   UNL     1       1.773   8.200  19.856  0.00  0.00    +0.000 C 
ATOM      2  O   UNL     1       2.051   8.629  18.738  0.00  0.00    +0.000 OA
ATOM      3  N   UNL     1       2.121   6.970  20.365  0.00  0.00    +0.000 N 
ATOM      4  C   UNL     1       2.866   6.095  19.617  0.00  0.00    +0.000 A 
ATOM      5  N   UNL     1       3.547   6.282  18.516  0.00  0.00    +0.000 NA
ATOM      6  C   UNL     1       4.118   5.068  18.125  0.00  0.00    +0.000 A 
ATOM      7  N   UNL     1       3.878   3.985  18.881  0.00  0.00    +0.000 NA
ATOM      8  S   UNL     1       2.939   4.482  20.167  0.00  0.00    +0.000 S 
ATOM      9  H   UNL     1       1.715   6.624  21.222  0.00  0.00    +0.000 HD
ENDROOT
BRANCH   6  10
ATOM     10  C   UNL     1       4.963   5.005  16.922  0.00  0.00    +0.000 A 
ATOM     11  C   UNL     1       4.633   4.150  15.858  0.00  0.00    +0.000 A 
ATOM     12  C   UNL     1       5.434   4.091  14.712  0.00  0.00    +0.000 A 
ATOM     13  C   UNL     1       6.575   4.886  14.622  0.00  0.00    +0.000 A 
ATOM     14 BR   UNL     1       7.669   4.798  13.082  0.00  0.00    +0.000 Br
ATOM     15  C   UNL     1       6.918   5.743  15.664  0.00  0.00    +0.000 A 
ATOM     16  C   UNL     1       6.114   5.804  16.807  0.00  0.00    +0.000 A 
ENDBRANCH   6  10
BRANCH   1  20
ATOM     17  C   UNL     1      -0.791  10.516  22.401  0.00  0.00    +0.000 A 
ATOM     18  C   UNL     1      -0.341   9.254  22.785  0.00  0.00    +0.000 A 
ATOM     19  C   UNL     1       0.513   8.528  21.955  0.00  0.00    +0.000 A 
ATOM     20  C   UNL     1       0.919   9.054  20.722  0.00  0.00    +0.000 A 
ATOM     21  C   UNL     1       0.453  10.314  20.323  0.00  0.00    +0.000 A 
ATOM     22  C   UNL     1      -0.409  11.038  21.161  0.00  0.00    +0.000 A 
BRANCH  17  23
ATOM     23  O   UNL     1      -1.620  11.128  23.297  0.00  0.00    +0.000 OA
BRANCH  23  25
ATOM     24  C   UNL     1      -3.577  12.398  23.762  0.00  0.00    +0.000 C 
ATOM     25  C   UNL     1      -2.437  12.179  22.785  0.00  0.00    +0.000 C 
ENDBRANCH  23  25
ENDBRANCH  17  23
ENDBRANCH   1  20
TORSDOF 4
ENDMDL
MODEL 9
REMARK VINA RESULT:      -7.1      7.475      7.956
REMARK  Name = 
REMARK  5 active torsions:
REMARK  status: ('A' for Active; 'I' for Inactive)
REMARK    1  A    between atoms: C_1  and  C_2
REMARK    2  A    between atoms: C_2  and  O_3
REMARK    3  A    between atoms: O_3  and  C_4
REMARK    4  A    between atoms: C_7  and  C_8
REMARK    5  A    between atoms: C_13  and  C_14
REMARK                            x       y       z     vdW  Elec       q    Type
REMARK                         _______ _______ _______ _____ _____    ______ ____
ROOT
ATOM      1  C   UNL     1       8.569   9.349  18.196  0.00  0.00    +0.000 C 
ATOM      2  O   UNL     1       8.050   9.520  17.094  0.00  0.00    +0.000 OA
ATOM      3  N   UNL     1       8.617   8.167  18.898  0.00  0.00    +0.000 N 
ATOM      4  C   UNL     1       8.073   7.024  18.371  0.00  0.00    +0.000 A 
ATOM      5  N   UNL     1       7.674   6.754  17.155  0.00  0.00    +0.000 NA
ATOM      6  C   UNL     1       7.167   5.452  17.123  0.00  0.00    +0.000 A 
ATOM      7  N   UNL     1       7.162   4.749  18.266  0.00  0.00    +0.000 NA
ATOM      8  S   UNL     1       7.851   5.714  19.439  0.00  0.00    +0.000 S 
ATOM      9  H   UNL     1       8.908   8.144  19.864  0.00  0.00    +0.000 HD
ENDROOT
BRANCH   6  10
ATOM     10  C   UNL     1       6.672   4.885  15.859  0.00  0.00    +0.000 A 
ATOM     11  C   UNL     1       7.377   5.084  14.660  0.00  0.00    +0.000 A 
ATOM     12  C   UNL     1       6.909   4.543  13.456  0.00  0.00    +0.000 A 
ATOM     13  C   UNL     1       5.729   3.802  13.442  0.00  0.00    +0.000 A 
ATOM     14 BR   UNL     1       5.086   3.083  11.816  0.00  0.00    +0.000 Br
ATOM     15  C   UNL     1       5.018   3.590  14.619  0.00  0.00    +0.000 A 
ATOM     16  C   UNL     1       5.490   4.128  15.822  0.00  0.00    +0.000 A 
ENDBRANCH   6  10
BRANCH   1  20
ATOM     17  C   UNL     1      10.093  12.764  20.300  0.00  0.00    +0.000 A 
ATOM     18  C   UNL     1       9.825  11.568  20.963  0.00  0.00    +0.000 A 
ATOM     19  C   UNL     1       9.355  10.462  20.256  0.00  0.00    +0.000 A 
ATOM     20  C   UNL     1       9.136  10.543  18.875  0.00  0.00    +0.000 A 
ATOM     21  C   UNL     1       9.386  11.750  18.208  0.00  0.00    +0.000 A 
ATOM     22  C   UNL     1       9.855  12.861  18.925  0.00  0.00    +0.000 A 
BRANCH  17  23
ATOM     23  O   UNL     1      10.551  13.774  21.098  0.00  0.00    +0.000 OA
BRANCH  23  25
ATOM     24  C   UNL     1       9.283  14.842  22.804  0.00  0.00    +0.000 C 
ATOM     25  C   UNL     1       9.647  14.853  21.331  0.00  0.00    +0.000 C 
ENDBRANCH  23  25
ENDBRANCH  17  23
ENDBRANCH   1  20
TORSDOF 4
ENDMDL
