MODEL 1
REMARK VINA RESULT:      -6.8      0.000      0.000
REMARK  Name = 
REMARK  4 active torsions:
REMARK  status: ('A' for Active; 'I' for Inactive)
REMARK    1  A    between atoms: C_1  and  C_2
REMARK    2  A    between atoms: C_5  and  S_6
REMARK    3  A    between atoms: N_16  and  C_17
REMARK    4  A    between atoms: C_17  and  C_18
REMARK                            x       y       z     vdW  Elec       q    Type
REMARK                         _______ _______ _______ _____ _____    ______ ____
ROOT
ATOM      1  C   UNL     1       8.034   4.489  17.781  0.00  0.00    +0.000 C 
ATOM      2  C   UNL     1       6.568   4.453  17.314  0.00  0.00    +0.000 C 
ATOM      3  C   UNL     1       5.674   4.130  18.539  0.00  0.00    +0.000 C 
ATOM      4  N   UNL     1       4.259   4.349  18.330  0.00  0.00    +0.000 N 
ATOM      5  C   UNL     1       3.199   3.494  18.419  0.00  0.00    +0.000 A 
ATOM      6  N   UNL     1       2.052   4.140  18.394  0.00  0.00    +0.000 NA
ATOM      7  C   UNL     1       2.377   5.460  18.197  0.00  0.00    +0.000 A 
ATOM      8  C   UNL     1       1.560   6.587  18.039  0.00  0.00    +0.000 A 
ATOM      9  C   UNL     1       2.178   7.815  17.781  0.00  0.00    +0.000 A 
ATOM     10 CL   UNL     1       1.204   9.222  17.570  0.00  0.00    +0.000 Cl
ATOM     11  C   UNL     1       3.565   7.926  17.637  0.00  0.00    +0.000 A 
ATOM     12  C   UNL     1       4.399   6.800  17.748  0.00  0.00    +0.000 A 
ATOM     13  C   UNL     1       3.751   5.608  18.102  0.00  0.00    +0.000 A 
ATOM     14  C   UNL     1       5.861   6.839  17.384  0.00  0.00    +0.000 C 
ATOM     15  N   UNL     1       6.304   5.698  16.546  0.00  0.00    +0.000 NA
ENDROOT
BRANCH   5  16
ATOM     16  S   UNL     1       3.331   1.772  18.528  0.00  0.00    +0.000 S 
ATOM     17  H   UNL     1       4.195   1.669  19.544  0.00  0.00    +0.000 HD
ENDBRANCH   5  16
BRANCH  15  18
ATOM     18  C   UNL     1       5.454   5.442  15.358  0.00  0.00    +0.000 C 
BRANCH  18  19
ATOM     19  C   UNL     1       5.890   4.223  14.546  0.00  0.00    +0.000 C 
ATOM     20  C   UNL     1       5.025   3.900  13.308  0.00  0.00    +0.000 C 
ATOM     21  C   UNL     1       6.314   3.702  12.498  0.00  0.00    +0.000 C 
ATOM     22  C   UNL     1       7.082   4.466  13.587  0.00  0.00    +0.000 C 
ENDBRANCH  18  19
ENDBRANCH  15  18
TORSDOF 3
ENDMDL
MODEL 2
REMARK VINA RESULT:      -6.3      2.663      5.569
REMARK  Name = 
REMARK  4 active torsions:
REMARK  status: ('A' for Active; 'I' for Inactive)
REMARK    1  A    between atoms: C_1  and  C_2
REMARK    2  A    between atoms: C_5  and  S_6
REMARK    3  A    between atoms: N_16  and  C_17
REMARK    4  A    between atoms: C_17  and  C_18
REMARK                            x       y       z     vdW  Elec       q    Type
REMARK                         _______ _______ _______ _____ _____    ______ ____
ROOT
ATOM      1  C   UNL     1       2.947   3.740  20.383  0.00  0.00    +0.000 C 
ATOM      2  C   UNL     1       3.830   4.602  19.462  0.00  0.00    +0.000 C 
ATOM      3  C   UNL     1       5.242   3.965  19.405  0.00  0.00    +0.000 C 
ATOM      4  N   UNL     1       6.098   4.483  18.359  0.00  0.00    +0.000 N 
ATOM      5  C   UNL     1       7.318   5.091  18.421  0.00  0.00    +0.000 A 
ATOM      6  N   UNL     1       7.871   5.190  17.230  0.00  0.00    +0.000 NA
ATOM      7  C   UNL     1       6.936   4.704  16.349  0.00  0.00    +0.000 A 
ATOM      8  C   UNL     1       6.962   4.613  14.951  0.00  0.00    +0.000 A 
ATOM      9  C   UNL     1       5.820   4.127  14.304  0.00  0.00    +0.000 A 
ATOM     10 CL   UNL     1       5.810   4.012  12.584  0.00  0.00    +0.000 Cl
ATOM     11  C   UNL     1       4.664   3.780  15.011  0.00  0.00    +0.000 A 
ATOM     12  C   UNL     1       4.604   3.905  16.410  0.00  0.00    +0.000 A 
ATOM     13  C   UNL     1       5.798   4.303  17.027  0.00  0.00    +0.000 A 
ATOM     14  C   UNL     1       3.316   3.753  17.179  0.00  0.00    +0.000 C 
ATOM     15  N   UNL     1       3.090   4.814  18.191  0.00  0.00    +0.000 NA
ENDROOT
BRANCH   5  16
ATOM     16  S   UNL     1       8.048   5.683  19.874  0.00  0.00    +0.000 S 
ATOM     17  H   UNL     1       7.510   4.842  20.764  0.00  0.00    +0.000 HD
ENDBRANCH   5  16
BRANCH  15  18
ATOM     18  C   UNL     1       3.258   6.196  17.680  0.00  0.00    +0.000 C 
BRANCH  18  19
ATOM     19  C   UNL     1       2.102   7.127  18.043  0.00  0.00    +0.000 C 
ATOM     20  C   UNL     1       2.063   7.602  19.513  0.00  0.00    +0.000 C 
ATOM     21  C   UNL     1       1.790   9.027  19.013  0.00  0.00    +0.000 C 
ATOM     22  C   UNL     1       2.295   8.606  17.625  0.00  0.00    +0.000 C 
ENDBRANCH  18  19
ENDBRANCH  15  18
TORSDOF 3
ENDMDL
MODEL 3
REMARK VINA RESULT:      -5.8      8.637      9.906
REMARK  Name = 
REMARK  4 active torsions:
REMARK  status: ('A' for Active; 'I' for Inactive)
REMARK    1  A    between atoms: C_1  and  C_2
REMARK    2  A    between atoms: C_5  and  S_6
REMARK    3  A    between atoms: N_16  and  C_17
REMARK    4  A    between atoms: C_17  and  C_18
REMARK                            x       y       z     vdW  Elec       q    Type
REMARK                         _______ _______ _______ _____ _____    ______ ____
ROOT
ATOM      1  C   UNL     1       1.560  12.990  18.324  0.00  0.00    +0.000 C 
ATOM      2  C   UNL     1       0.510  12.196  19.123  0.00  0.00    +0.000 C 
ATOM      3  C   UNL     1       1.039  12.005  20.568  0.00  0.00    +0.000 C 
ATOM      4  N   UNL     1       0.052  11.540  21.518  0.00  0.00    +0.000 N 
ATOM      5  C   UNL     1       0.023  10.425  22.304  0.00  0.00    +0.000 A 
ATOM      6  N   UNL     1      -0.933  10.493  23.207  0.00  0.00    +0.000 NA
ATOM      7  C   UNL     1      -1.605  11.662  22.944  0.00  0.00    +0.000 A 
ATOM      8  C   UNL     1      -2.736  12.220  23.553  0.00  0.00    +0.000 A 
ATOM      9  C   UNL     1      -3.248  13.409  23.021  0.00  0.00    +0.000 A 
ATOM     10 CL   UNL     1      -4.646  14.120  23.737  0.00  0.00    +0.000 Cl
ATOM     11  C   UNL     1      -2.688  14.012  21.890  0.00  0.00    +0.000 A 
ATOM     12  C   UNL     1      -1.579  13.444  21.239  0.00  0.00    +0.000 A 
ATOM     13  C   UNL     1      -1.038  12.309  21.858  0.00  0.00    +0.000 A 
ATOM     14  C   UNL     1      -1.088  13.939  19.902  0.00  0.00    +0.000 C 
ATOM     15  N   UNL     1      -0.806  12.857  18.926  0.00  0.00    +0.000 NA
ENDROOT
BRANCH   5  16
ATOM     16  S   UNL     1       1.087   9.071  22.130  0.00  0.00    +0.000 S 
ATOM     17  H   UNL     1       1.705   9.108  23.315  0.00  0.00    +0.000 HD
ENDBRANCH   5  16
BRANCH  15  18
ATOM     18  C   UNL     1      -1.901  11.869  18.773  0.00  0.00    +0.000 C 
BRANCH  18  19
ATOM     19  C   UNL     1      -2.113  11.411  17.330  0.00  0.00    +0.000 C 
ATOM     20  C   UNL     1      -1.848   9.914  17.057  0.00  0.00    +0.000 C 
ATOM     21  C   UNL     1      -3.154   9.861  16.253  0.00  0.00    +0.000 C 
ATOM     22  C   UNL     1      -3.590  11.170  16.929  0.00  0.00    +0.000 C 
ENDBRANCH  18  19
ENDBRANCH  15  18
TORSDOF 3
ENDMDL
MODEL 4
REMARK VINA RESULT:      -5.6      7.176      9.554
REMARK  Name = 
REMARK  4 active torsions:
REMARK  status: ('A' for Active; 'I' for Inactive)
REMARK    1  A    between atoms: C_1  and  C_2
REMARK    2  A    between atoms: C_5  and  S_6
REMARK    3  A    between atoms: N_16  and  C_17
REMARK    4  A    between atoms: C_17  and  C_18
REMARK                            x       y       z     vdW  Elec       q    Type
REMARK                         _______ _______ _______ _____ _____    ______ ____
ROOT
ATOM      1  C   UNL     1       1.048   9.613  17.955  0.00  0.00    +0.000 C 
ATOM      2  C   UNL     1       0.017  10.138  18.971  0.00  0.00    +0.000 C 
ATOM      3  C   UNL     1       0.762  10.493  20.283  0.00  0.00    +0.000 C 
ATOM      4  N   UNL     1      -0.012  11.269  21.228  0.00  0.00    +0.000 N 
ATOM      5  C   UNL     1      -0.370  11.009  22.518  0.00  0.00    +0.000 A 
ATOM      6  N   UNL     1      -0.865  12.076  23.109  0.00  0.00    +0.000 NA
ATOM      7  C   UNL     1      -0.907  13.047  22.138  0.00  0.00    +0.000 A 
ATOM      8  C   UNL     1      -1.385  14.363  22.186  0.00  0.00    +0.000 A 
ATOM      9  C   UNL     1      -1.362  15.113  21.004  0.00  0.00    +0.000 A 
ATOM     10 CL   UNL     1      -1.953  16.732  21.022  0.00  0.00    +0.000 Cl
ATOM     11  C   UNL     1      -0.921  14.567  19.794  0.00  0.00    +0.000 A 
ATOM     12  C   UNL     1      -0.478  13.236  19.717  0.00  0.00    +0.000 A 
ATOM     13  C   UNL     1      -0.426  12.550  20.939  0.00  0.00    +0.000 A 
ATOM     14  C   UNL     1      -0.206  12.551  18.402  0.00  0.00    +0.000 C 
ATOM     15  N   UNL     1      -0.788  11.191  18.299  0.00  0.00    +0.000 NA
ENDROOT
BRANCH   5  16
ATOM     16  S   UNL     1      -0.221   9.465  23.287  0.00  0.00    +0.000 S 
ATOM     17  H   UNL     1       1.074   9.497  23.622  0.00  0.00    +0.000 HD
ENDBRANCH   5  16
BRANCH  15  18
ATOM     18  C   UNL     1      -2.222  11.108  18.669  0.00  0.00    +0.000 C 
BRANCH  18  19
ATOM     19  C   UNL     1      -3.083  10.400  17.624  0.00  0.00    +0.000 C 
ATOM     20  C   UNL     1      -3.972  11.320  16.756  0.00  0.00    +0.000 C 
ATOM     21  C   UNL     1      -3.519  10.536  15.516  0.00  0.00    +0.000 C 
ATOM     22  C   UNL     1      -2.337   9.988  16.330  0.00  0.00    +0.000 C 
ENDBRANCH  18  19
ENDBRANCH  15  18
TORSDOF 3
ENDMDL
MODEL 5
REMARK VINA RESULT:      -5.6      8.581     10.558
REMARK  Name = 
REMARK  4 active torsions:
REMARK  status: ('A' for Active; 'I' for Inactive)
REMARK    1  A    between atoms: C_1  and  C_2
REMARK    2  A    between atoms: C_5  and  S_6
REMARK    3  A    between atoms: N_16  and  C_17
REMARK    4  A    between atoms: C_17  and  C_18
REMARK                            x       y       z     vdW  Elec       q    Type
REMARK                         _______ _______ _______ _____ _____    ______ ____
ROOT
ATOM      1  C   UNL     1       1.589  12.679  18.684  0.00  0.00    +0.000 C 
ATOM      2  C   UNL     1       0.409  12.314  19.601  0.00  0.00    +0.000 C 
ATOM      3  C   UNL     1      -0.401  13.603  19.891  0.00  0.00    +0.000 C 
ATOM      4  N   UNL     1      -1.698  13.381  20.492  0.00  0.00    +0.000 N 
ATOM      5  C   UNL     1      -2.224  13.820  21.672  0.00  0.00    +0.000 A 
ATOM      6  N   UNL     1      -3.521  13.600  21.737  0.00  0.00    +0.000 NA
ATOM      7  C   UNL     1      -3.836  12.917  20.587  0.00  0.00    +0.000 A 
ATOM      8  C   UNL     1      -5.055  12.385  20.148  0.00  0.00    +0.000 A 
ATOM      9  C   UNL     1      -5.063  11.667  18.946  0.00  0.00    +0.000 A 
ATOM     10 CL   UNL     1      -6.543  10.988  18.380  0.00  0.00    +0.000 Cl
ATOM     11  C   UNL     1      -3.892  11.442  18.216  0.00  0.00    +0.000 A 
ATOM     12  C   UNL     1      -2.652  11.930  18.662  0.00  0.00    +0.000 A 
ATOM     13  C   UNL     1      -2.702  12.723  19.817  0.00  0.00    +0.000 A 
ATOM     14  C   UNL     1      -1.348  11.523  18.025  0.00  0.00    +0.000 C 
ATOM     15  N   UNL     1      -0.292  11.150  18.998  0.00  0.00    +0.000 NA
ENDROOT
BRANCH   5  16
ATOM     16  S   UNL     1      -1.308  14.552  22.945  0.00  0.00    +0.000 S 
ATOM     17  H   UNL     1      -1.675  15.829  22.790  0.00  0.00    +0.000 HD
ENDBRANCH   5  16
BRANCH  15  18
ATOM     18  C   UNL     1      -0.724  10.173  20.028  0.00  0.00    +0.000 C 
BRANCH  18  19
ATOM     19  C   UNL     1       0.076  10.261  21.326  0.00  0.00    +0.000 C 
ATOM     20  C   UNL     1      -0.747  10.555  22.600  0.00  0.00    +0.000 C 
ATOM     21  C   UNL     1       0.031   9.445  23.321  0.00  0.00    +0.000 C 
ATOM     22  C   UNL     1       0.463   8.898  21.952  0.00  0.00    +0.000 C 
ENDBRANCH  18  19
ENDBRANCH  15  18
TORSDOF 3
ENDMDL
MODEL 6
REMARK VINA RESULT:      -5.6      8.205      9.904
REMARK  Name = 
REMARK  4 active torsions:
REMARK  status: ('A' for Active; 'I' for Inactive)
REMARK    1  A    between atoms: C_1  and  C_2
REMARK    2  A    between atoms: C_5  and  S_6
REMARK    3  A    between atoms: N_16  and  C_17
REMARK    4  A    between atoms: C_17  and  C_18
REMARK                            x       y       z     vdW  Elec       q    Type
REMARK                         _______ _______ _______ _____ _____    ______ ____
ROOT
ATOM      1  C   UNL     1      -0.335   9.364  20.774  0.00  0.00    +0.000 C 
ATOM      2  C   UNL     1      -0.510  10.865  20.480  0.00  0.00    +0.000 C 
ATOM      3  C   UNL     1       0.246  11.666  21.571  0.00  0.00    +0.000 C 
ATOM      4  N   UNL     1       0.426  13.071  21.275  0.00  0.00    +0.000 N 
ATOM      5  C   UNL     1       0.029  14.186  21.954  0.00  0.00    +0.000 A 
ATOM      6  N   UNL     1       0.602  15.272  21.479  0.00  0.00    +0.000 NA
ATOM      7  C   UNL     1       1.337  14.857  20.395  0.00  0.00    +0.000 A 
ATOM      8  C   UNL     1       2.108  15.588  19.483  0.00  0.00    +0.000 A 
ATOM      9  C   UNL     1       2.700  14.895  18.421  0.00  0.00    +0.000 A 
ATOM     10 CL   UNL     1       3.648  15.764  17.272  0.00  0.00    +0.000 Cl
ATOM     11  C   UNL     1       2.502  13.523  18.235  0.00  0.00    +0.000 A 
ATOM     12  C   UNL     1       1.696  12.780  19.114  0.00  0.00    +0.000 A 
ATOM     13  C   UNL     1       1.201  13.491  20.217  0.00  0.00    +0.000 A 
ATOM     14  C   UNL     1       1.283  11.360  18.825  0.00  0.00    +0.000 C 
ATOM     15  N   UNL     1      -0.158  11.093  19.054  0.00  0.00    +0.000 NA
ENDROOT
BRANCH   5  16
ATOM     16  S   UNL     1      -1.105  14.189  23.261  0.00  0.00    +0.000 S 
ATOM     17  H   UNL     1      -0.684  13.114  23.936  0.00  0.00    +0.000 HD
ENDBRANCH   5  16
BRANCH  15  18
ATOM     18  C   UNL     1      -1.073  12.067  18.411  0.00  0.00    +0.000 C 
BRANCH  18  19
ATOM     19  C   UNL     1      -2.074  11.424  17.452  0.00  0.00    +0.000 C 
ATOM     20  C   UNL     1      -1.833   9.931  17.137  0.00  0.00    +0.000 C 
ATOM     21  C   UNL     1      -3.332   9.677  17.349  0.00  0.00    +0.000 C 
ATOM     22  C   UNL     1      -3.426  11.018  18.091  0.00  0.00    +0.000 C 
ENDBRANCH  18  19
ENDBRANCH  15  18
TORSDOF 3
ENDMDL
MODEL 7
REMARK VINA RESULT:      -5.6      2.913      4.570
REMARK  Name = 
REMARK  4 active torsions:
REMARK  status: ('A' for Active; 'I' for Inactive)
REMARK    1  A    between atoms: C_1  and  C_2
REMARK    2  A    between atoms: C_5  and  S_6
REMARK    3  A    between atoms: N_16  and  C_17
REMARK    4  A    between atoms: C_17  and  C_18
REMARK                            x       y       z     vdW  Elec       q    Type
REMARK                         _______ _______ _______ _____ _____    ______ ____
ROOT
ATOM      1  C   UNL     1       5.282   4.567  15.043  0.00  0.00    +0.000 C 
ATOM      2  C   UNL     1       5.024   5.082  16.470  0.00  0.00    +0.000 C 
ATOM      3  C   UNL     1       3.586   5.658  16.528  0.00  0.00    +0.000 C 
ATOM      4  N   UNL     1       3.088   5.910  17.863  0.00  0.00    +0.000 N 
ATOM      5  C   UNL     1       2.646   7.059  18.450  0.00  0.00    +0.000 A 
ATOM      6  N   UNL     1       2.049   6.818  19.599  0.00  0.00    +0.000 NA
ATOM      7  C   UNL     1       2.183   5.467  19.807  0.00  0.00    +0.000 A 
ATOM      8  C   UNL     1       1.784   4.667  20.885  0.00  0.00    +0.000 A 
ATOM      9  C   UNL     1       2.120   3.308  20.853  0.00  0.00    +0.000 A 
ATOM     10 CL   UNL     1       1.656   2.294  22.168  0.00  0.00    +0.000 Cl
ATOM     11  C   UNL     1       2.867   2.758  19.806  0.00  0.00    +0.000 A 
ATOM     12  C   UNL     1       3.313   3.554  18.737  0.00  0.00    +0.000 A 
ATOM     13  C   UNL     1       2.876   4.885  18.758  0.00  0.00    +0.000 A 
ATOM     14  C   UNL     1       4.298   3.050  17.712  0.00  0.00    +0.000 C 
ATOM     15  N   UNL     1       5.399   3.999  17.418  0.00  0.00    +0.000 NA
ENDROOT
BRANCH   5  16
ATOM     16  S   UNL     1       2.858   8.645  17.790  0.00  0.00    +0.000 S 
ATOM     17  H   UNL     1       2.484   9.385  18.840  0.00  0.00    +0.000 HD
ENDBRANCH   5  16
BRANCH  15  18
ATOM     18  C   UNL     1       6.087   4.533  18.619  0.00  0.00    +0.000 C 
BRANCH  18  19
ATOM     19  C   UNL     1       7.380   5.283  18.299  0.00  0.00    +0.000 C 
ATOM     20  C   UNL     1       7.203   6.708  17.729  0.00  0.00    +0.000 C 
ATOM     21  C   UNL     1       8.289   7.197  18.697  0.00  0.00    +0.000 C 
ATOM     22  C   UNL     1       8.090   5.916  19.522  0.00  0.00    +0.000 C 
ENDBRANCH  18  19
ENDBRANCH  15  18
TORSDOF 3
ENDMDL
MODEL 8
REMARK VINA RESULT:      -5.5      7.147      9.720
REMARK  Name = 
REMARK  4 active torsions:
REMARK  status: ('A' for Active; 'I' for Inactive)
REMARK    1  A    between atoms: C_1  and  C_2
REMARK    2  A    between atoms: C_5  and  S_6
REMARK    3  A    between atoms: N_16  and  C_17
REMARK    4  A    between atoms: C_17  and  C_18
REMARK                            x       y       z     vdW  Elec       q    Type
REMARK                         _______ _______ _______ _____ _____    ______ ____
ROOT
ATOM      1  C   UNL     1      -2.861  13.099  21.432  0.00  0.00    +0.000 C 
ATOM      2  C   UNL     1      -1.983  13.075  20.168  0.00  0.00    +0.000 C 
ATOM      3  C   UNL     1      -0.548  13.507  20.564  0.00  0.00    +0.000 C 
ATOM      4  N   UNL     1       0.460  13.255  19.557  0.00  0.00    +0.000 N 
ATOM      5  C   UNL     1       1.311  14.104  18.912  0.00  0.00    +0.000 A 
ATOM      6  N   UNL     1       2.240  13.447  18.248  0.00  0.00    +0.000 NA
ATOM      7  C   UNL     1       1.930  12.118  18.400  0.00  0.00    +0.000 A 
ATOM      8  C   UNL     1       2.541  10.973  17.872  0.00  0.00    +0.000 A 
ATOM      9  C   UNL     1       1.957   9.731  18.147  0.00  0.00    +0.000 A 
ATOM     10 CL   UNL     1       2.675   8.301  17.505  0.00  0.00    +0.000 Cl
ATOM     11  C   UNL     1       0.775   9.621  18.886  0.00  0.00    +0.000 A 
ATOM     12  C   UNL     1       0.123  10.761  19.387  0.00  0.00    +0.000 A 
ATOM     13  C   UNL     1       0.790  11.975  19.173  0.00  0.00    +0.000 A 
ATOM     14  C   UNL     1      -1.257  10.700  19.993  0.00  0.00    +0.000 C 
ATOM     15  N   UNL     1      -2.175  11.759  19.506  0.00  0.00    +0.000 NA
ENDROOT
BRANCH   5  16
ATOM     16  S   UNL     1       1.183  15.830  18.934  0.00  0.00    +0.000 S 
ATOM     17  H   UNL     1       2.040  16.139  17.954  0.00  0.00    +0.000 HD
ENDBRANCH   5  16
BRANCH  15  18
ATOM     18  C   UNL     1      -2.234  11.889  18.029  0.00  0.00    +0.000 C 
BRANCH  18  19
ATOM     19  C   UNL     1      -2.988  10.750  17.346  0.00  0.00    +0.000 C 
ATOM     20  C   UNL     1      -3.722  11.123  16.038  0.00  0.00    +0.000 C 
ATOM     21  C   UNL     1      -3.153   9.851  15.393  0.00  0.00    +0.000 C 
ATOM     22  C   UNL     1      -2.106   9.785  16.515  0.00  0.00    +0.000 C 
ENDBRANCH  18  19
ENDBRANCH  15  18
TORSDOF 3
ENDMDL
MODEL 9
REMARK VINA RESULT:      -5.5      9.306     11.618
REMARK  Name = 
REMARK  4 active torsions:
REMARK  status: ('A' for Active; 'I' for Inactive)
REMARK    1  A    between atoms: C_1  and  C_2
REMARK    2  A    between atoms: C_5  and  S_6
REMARK    3  A    between atoms: N_16  and  C_17
REMARK    4  A    between atoms: C_17  and  C_18
REMARK                            x       y       z     vdW  Elec       q    Type
REMARK                         _______ _______ _______ _____ _____    ______ ____
ROOT
ATOM      1  C   UNL     1      10.576  16.091  22.559  0.00  0.00    +0.000 C 
ATOM      2  C   UNL     1       9.987  15.534  21.251  0.00  0.00    +0.000 C 
ATOM      3  C   UNL     1      11.160  15.120  20.325  0.00  0.00    +0.000 C 
ATOM      4  N   UNL     1      10.778  14.311  19.187  0.00  0.00    +0.000 N 
ATOM      5  C   UNL     1      10.932  14.522  17.848  0.00  0.00    +0.000 A 
ATOM      6  N   UNL     1      10.670  13.435  17.153  0.00  0.00    +0.000 NA
ATOM      7  C   UNL     1      10.248  12.504  18.071  0.00  0.00    +0.000 A 
ATOM      8  C   UNL     1       9.794  11.191  17.894  0.00  0.00    +0.000 A 
ATOM      9  C   UNL     1       9.358  10.490  19.025  0.00  0.00    +0.000 A 
ATOM     10 CL   UNL     1       8.782   8.875  18.844  0.00  0.00    +0.000 Cl
ATOM     11  C   UNL     1       9.329  11.081  20.292  0.00  0.00    +0.000 A 
ATOM     12  C   UNL     1       9.739  12.411  20.482  0.00  0.00    +0.000 A 
ATOM     13  C   UNL     1      10.257  13.046  19.345  0.00  0.00    +0.000 A 
ATOM     14  C   UNL     1       9.516  13.147  21.779  0.00  0.00    +0.000 C 
ATOM     15  N   UNL     1       8.967  14.514  21.610  0.00  0.00    +0.000 NA
ENDROOT
BRANCH   5  16
ATOM     16  S   UNL     1      11.390  16.032  17.138  0.00  0.00    +0.000 S 
ATOM     17  H   UNL     1      12.306  16.438  18.025  0.00  0.00    +0.000 HD
ENDBRANCH   5  16
BRANCH  15  18
ATOM     18  C   UNL     1       7.776  14.592  20.728  0.00  0.00    +0.000 C 
BRANCH  18  19
ATOM     19  C   UNL     1       7.620  15.943  20.031  0.00  0.00    +0.000 C 
ATOM     20  C   UNL     1       6.913  15.909  18.658  0.00  0.00    +0.000 C 
ATOM     21  C   UNL     1       6.075  17.120  19.094  0.00  0.00    +0.000 C 
ATOM     22  C   UNL     1       6.454  16.819  20.552  0.00  0.00    +0.000 C 
ENDBRANCH  18  19
ENDBRANCH  15  18
TORSDOF 3
ENDMDL
