MODEL 1
REMARK VINA RESULT:      -8.4      0.000      0.000
REMARK  Name = 
REMARK  6 active torsions:
REMARK  status: ('A' for Active; 'I' for Inactive)
REMARK    1  A    between atoms: C_1  and  C_2
REMARK    2  A    between atoms: C_7  and  C_8
REMARK    3  A    between atoms: C_11  and  C_12
REMARK    4  A    between atoms: C_14  and  C_15
REMARK    5  A    between atoms: C_26  and  C_27
REMARK    6  A    between atoms: C_27  and  O_29
REMARK                            x       y       z     vdW  Elec       q    Type
REMARK                         _______ _______ _______ _____ _____    ______ ____
ROOT
ATOM      1  C   UNL     1       0.701   9.959  19.436  0.00  0.00    +0.000 A 
ATOM      2  C   UNL     1       1.304   9.856  18.162  0.00  0.00    +0.000 A 
ATOM      3  C   UNL     1       2.198   8.839  17.818  0.00  0.00    +0.000 A 
ATOM      4  C   UNL     1       2.478   7.814  18.714  0.00  0.00    +0.000 A 
ATOM      5  C   UNL     1       1.882   7.863  19.978  0.00  0.00    +0.000 A 
ATOM      6  C   UNL     1       1.005   8.910  20.347  0.00  0.00    +0.000 A 
ENDROOT
BRANCH   1  13
ATOM      7  C   UNL     1      -3.941  12.170  19.277  0.00  0.00    +0.000 C 
ATOM      8  C   UNL     1      -2.473  12.194  19.619  0.00  0.00    +0.000 A 
ATOM      9  C   UNL     1      -1.984  13.259  20.384  0.00  0.00    +0.000 A 
ATOM     10  C   UNL     1      -0.661  13.261  20.804  0.00  0.00    +0.000 A 
ATOM     11  C   UNL     1       0.174  12.186  20.498  0.00  0.00    +0.000 A 
ATOM     12  F   UNL     1       1.397  12.191  21.052  0.00  0.00    +0.000 F 
ATOM     13  C   UNL     1      -0.234  11.105  19.693  0.00  0.00    +0.000 A 
ATOM     14  C   UNL     1      -1.586  11.151  19.240  0.00  0.00    +0.000 A 
ATOM     15 CL   UNL     1      -2.227   9.935  18.160  0.00  0.00    +0.000 Cl
ENDBRANCH   1  13
BRANCH   4  16
ATOM     16  C   UNL     1       3.281   6.644  18.344  0.00  0.00    +0.000 A 
ATOM     17  N   UNL     1       3.835   6.500  17.158  0.00  0.00    +0.000 NA
ATOM     18  C   UNL     1       4.596   5.352  17.115  0.00  0.00    +0.000 A 
ATOM     19  C   UNL     1       4.600   4.611  18.279  0.00  0.00    +0.000 A 
ATOM     20  S   UNL     1       3.601   5.365  19.450  0.00  0.00    +0.000 S 
BRANCH  18  21
ATOM     21  C   UNL     1       5.339   5.007  15.912  0.00  0.00    +0.000 A 
ATOM     22  C   UNL     1       6.706   5.313  15.835  0.00  0.00    +0.000 A 
ATOM     23  C   UNL     1       7.435   5.026  14.678  0.00  0.00    +0.000 A 
ATOM     24  C   UNL     1       6.804   4.433  13.584  0.00  0.00    +0.000 A 
ATOM     25 CL   UNL     1       7.755   4.118  12.178  0.00  0.00    +0.000 Cl
ATOM     26  C   UNL     1       5.440   4.125  13.652  0.00  0.00    +0.000 A 
ATOM     27 CL   UNL     1       4.587   3.400  12.335  0.00  0.00    +0.000 Cl
ATOM     28  C   UNL     1       4.712   4.409  14.813  0.00  0.00    +0.000 A 
ENDBRANCH  18  21
ENDBRANCH   4  16
BRANCH   6  29
ATOM     29  C   UNL     1       0.495   8.871  21.743  0.00  0.00    +0.000 C 
ATOM     30  O   UNL     1       1.087   9.377  22.676  0.00  0.00    +0.000 OA
BRANCH  29  31
ATOM     31  O   UNL     1      -0.668   8.196  21.885  0.00  0.00    +0.000 OA
ATOM     32  H   UNL     1      -1.248   8.487  22.615  0.00  0.00    +0.000 HD
ENDBRANCH  29  31
ENDBRANCH   6  29
TORSDOF 5
ENDMDL
MODEL 2
REMARK VINA RESULT:      -8.3      1.351      1.874
REMARK  Name = 
REMARK  6 active torsions:
REMARK  status: ('A' for Active; 'I' for Inactive)
REMARK    1  A    between atoms: C_1  and  C_2
REMARK    2  A    between atoms: C_7  and  C_8
REMARK    3  A    between atoms: C_11  and  C_12
REMARK    4  A    between atoms: C_14  and  C_15
REMARK    5  A    between atoms: C_26  and  C_27
REMARK    6  A    between atoms: C_27  and  O_29
REMARK                            x       y       z     vdW  Elec       q    Type
REMARK                         _______ _______ _______ _____ _____    ______ ____
ROOT
ATOM      1  C   UNL     1       0.706   9.928  19.380  0.00  0.00    +0.000 A 
ATOM      2  C   UNL     1       1.282   9.808  18.096  0.00  0.00    +0.000 A 
ATOM      3  C   UNL     1       2.188   8.800  17.754  0.00  0.00    +0.000 A 
ATOM      4  C   UNL     1       2.507   7.802  18.665  0.00  0.00    +0.000 A 
ATOM      5  C   UNL     1       1.938   7.868  19.941  0.00  0.00    +0.000 A 
ATOM      6  C   UNL     1       1.049   8.907  20.306  0.00  0.00    +0.000 A 
ENDROOT
BRANCH   1  13
ATOM      7  C   UNL     1      -0.332  14.784  20.727  0.00  0.00    +0.000 C 
ATOM      8  C   UNL     1      -0.767  13.408  20.288  0.00  0.00    +0.000 A 
ATOM      9  C   UNL     1      -2.102  13.219  19.914  0.00  0.00    +0.000 A 
ATOM     10  C   UNL     1      -2.513  11.994  19.408  0.00  0.00    +0.000 A 
ATOM     11  C   UNL     1      -1.592  10.962  19.234  0.00  0.00    +0.000 A 
ATOM     12  F   UNL     1      -2.030   9.855  18.614  0.00  0.00    +0.000 F 
ATOM     13  C   UNL     1      -0.245  11.063  19.633  0.00  0.00    +0.000 A 
ATOM     14  C   UNL     1       0.139  12.319  20.190  0.00  0.00    +0.000 A 
ATOM     15 CL   UNL     1       1.750  12.584  20.816  0.00  0.00    +0.000 Cl
ENDBRANCH   1  13
BRANCH   4  16
ATOM     16  C   UNL     1       3.324   6.639  18.303  0.00  0.00    +0.000 A 
ATOM     17  N   UNL     1       3.859   6.481  17.110  0.00  0.00    +0.000 NA
ATOM     18  C   UNL     1       4.639   5.345  17.075  0.00  0.00    +0.000 A 
ATOM     19  C   UNL     1       4.678   4.628  18.253  0.00  0.00    +0.000 A 
ATOM     20  S   UNL     1       3.688   5.388  19.429  0.00  0.00    +0.000 S 
BRANCH  18  21
ATOM     21  C   UNL     1       5.365   4.990  15.866  0.00  0.00    +0.000 A 
ATOM     22  C   UNL     1       6.735   5.275  15.775  0.00  0.00    +0.000 A 
ATOM     23  C   UNL     1       7.450   4.977  14.612  0.00  0.00    +0.000 A 
ATOM     24  C   UNL     1       6.799   4.394  13.523  0.00  0.00    +0.000 A 
ATOM     25 CL   UNL     1       7.733   4.065  12.109  0.00  0.00    +0.000 Cl
ATOM     26  C   UNL     1       5.432   4.107  13.605  0.00  0.00    +0.000 A 
ATOM     27 CL   UNL     1       4.555   3.395  12.295  0.00  0.00    +0.000 Cl
ATOM     28  C   UNL     1       4.719   4.401  14.772  0.00  0.00    +0.000 A 
ENDBRANCH  18  21
ENDBRANCH   4  16
BRANCH   6  29
ATOM     29  C   UNL     1       0.572   8.889  21.714  0.00  0.00    +0.000 C 
ATOM     30  O   UNL     1      -0.525   8.473  22.034  0.00  0.00    +0.000 OA
BRANCH  29  31
ATOM     31  O   UNL     1       1.454   9.403  22.601  0.00  0.00    +0.000 OA
ATOM     32  H   UNL     1       2.233   9.853  22.221  0.00  0.00    +0.000 HD
ENDBRANCH  29  31
ENDBRANCH   6  29
TORSDOF 5
ENDMDL
MODEL 3
REMARK VINA RESULT:      -8.1      0.782      1.451
REMARK  Name = 
REMARK  6 active torsions:
REMARK  status: ('A' for Active; 'I' for Inactive)
REMARK    1  A    between atoms: C_1  and  C_2
REMARK    2  A    between atoms: C_7  and  C_8
REMARK    3  A    between atoms: C_11  and  C_12
REMARK    4  A    between atoms: C_14  and  C_15
REMARK    5  A    between atoms: C_26  and  C_27
REMARK    6  A    between atoms: C_27  and  O_29
REMARK                            x       y       z     vdW  Elec       q    Type
REMARK                         _______ _______ _______ _____ _____    ______ ____
ROOT
ATOM      1  C   UNL     1       0.944   9.696  19.181  0.00  0.00    +0.000 A 
ATOM      2  C   UNL     1       1.597   9.671  17.928  0.00  0.00    +0.000 A 
ATOM      3  C   UNL     1       2.544   8.705  17.577  0.00  0.00    +0.000 A 
ATOM      4  C   UNL     1       2.831   7.654  18.440  0.00  0.00    +0.000 A 
ATOM      5  C   UNL     1       2.187   7.626  19.680  0.00  0.00    +0.000 A 
ATOM      6  C   UNL     1       1.255   8.622  20.058  0.00  0.00    +0.000 A 
ENDROOT
BRANCH   1  13
ATOM      7  C   UNL     1      -3.717  11.830  18.742  0.00  0.00    +0.000 C 
ATOM      8  C   UNL     1      -2.294  11.845  19.242  0.00  0.00    +0.000 A 
ATOM      9  C   UNL     1      -1.920  12.833  20.158  0.00  0.00    +0.000 A 
ATOM     10  C   UNL     1      -0.649  12.816  20.716  0.00  0.00    +0.000 A 
ATOM     11  C   UNL     1       0.243  11.793  20.397  0.00  0.00    +0.000 A 
ATOM     12  F   UNL     1       1.400  11.763  21.077  0.00  0.00    +0.000 F 
ATOM     13  C   UNL     1      -0.045  10.793  19.448  0.00  0.00    +0.000 A 
ATOM     14  C   UNL     1      -1.343  10.862  18.859  0.00  0.00    +0.000 A 
ATOM     15 CL   UNL     1      -1.831   9.751  17.600  0.00  0.00    +0.000 Cl
ENDBRANCH   1  13
BRANCH   4  16
ATOM     16  C   UNL     1       3.694   6.533  18.053  0.00  0.00    +0.000 A 
ATOM     17  N   UNL     1       4.066   6.310  16.809  0.00  0.00    +0.000 NA
ATOM     18  C   UNL     1       4.937   5.243  16.748  0.00  0.00    +0.000 A 
ATOM     19  C   UNL     1       5.210   4.644  17.961  0.00  0.00    +0.000 A 
ATOM     20  S   UNL     1       4.330   5.425  19.207  0.00  0.00    +0.000 S 
BRANCH  18  21
ATOM     21  C   UNL     1       5.514   4.838  15.476  0.00  0.00    +0.000 A 
ATOM     22  C   UNL     1       4.910   3.807  14.742  0.00  0.00    +0.000 A 
ATOM     23  C   UNL     1       5.464   3.373  13.535  0.00  0.00    +0.000 A 
ATOM     24  C   UNL     1       6.632   3.964  13.050  0.00  0.00    +0.000 A 
ATOM     25 CL   UNL     1       7.276   3.374  11.561  0.00  0.00    +0.000 Cl
ATOM     26  C   UNL     1       7.242   4.994  13.777  0.00  0.00    +0.000 A 
ATOM     27 CL   UNL     1       8.694   5.768  13.247  0.00  0.00    +0.000 Cl
ATOM     28  C   UNL     1       6.683   5.430  14.983  0.00  0.00    +0.000 A 
ENDBRANCH  18  21
ENDBRANCH   4  16
BRANCH   6  29
ATOM     29  C   UNL     1       0.695   8.502  21.430  0.00  0.00    +0.000 C 
ATOM     30  O   UNL     1      -0.459   8.191  21.648  0.00  0.00    +0.000 OA
BRANCH  29  31
ATOM     31  O   UNL     1       1.577   8.799  22.411  0.00  0.00    +0.000 OA
ATOM     32  H   UNL     1       1.223   8.802  23.322  0.00  0.00    +0.000 HD
ENDBRANCH  29  31
ENDBRANCH   6  29
TORSDOF 5
ENDMDL
MODEL 4
REMARK VINA RESULT:      -8.1      3.560     10.141
REMARK  Name = 
REMARK  6 active torsions:
REMARK  status: ('A' for Active; 'I' for Inactive)
REMARK    1  A    between atoms: C_1  and  C_2
REMARK    2  A    between atoms: C_7  and  C_8
REMARK    3  A    between atoms: C_11  and  C_12
REMARK    4  A    between atoms: C_14  and  C_15
REMARK    5  A    between atoms: C_26  and  C_27
REMARK    6  A    between atoms: C_27  and  O_29
REMARK                            x       y       z     vdW  Elec       q    Type
REMARK                         _______ _______ _______ _____ _____    ______ ____
ROOT
ATOM      1  C   UNL     1       2.712   6.992  18.209  0.00  0.00    +0.000 A 
ATOM      2  C   UNL     1       2.636   8.169  17.431  0.00  0.00    +0.000 A 
ATOM      3  C   UNL     1       1.963   9.321  17.849  0.00  0.00    +0.000 A 
ATOM      4  C   UNL     1       1.394   9.384  19.115  0.00  0.00    +0.000 A 
ATOM      5  C   UNL     1       1.470   8.250  19.928  0.00  0.00    +0.000 A 
ATOM      6  C   UNL     1       2.116   7.066  19.497  0.00  0.00    +0.000 A 
ENDROOT
BRANCH   1  13
ATOM      7  C   UNL     1       7.034   4.552  16.855  0.00  0.00    +0.000 C 
ATOM      8  C   UNL     1       5.533   4.617  16.981  0.00  0.00    +0.000 A 
ATOM      9  C   UNL     1       4.792   3.456  16.739  0.00  0.00    +0.000 A 
ATOM     10  C   UNL     1       3.420   3.452  16.944  0.00  0.00    +0.000 A 
ATOM     11  C   UNL     1       2.780   4.594  17.428  0.00  0.00    +0.000 A 
ATOM     12  F   UNL     1       1.478   4.476  17.733  0.00  0.00    +0.000 F 
ATOM     13  C   UNL     1       3.451   5.812  17.648  0.00  0.00    +0.000 A 
ATOM     14  C   UNL     1       4.854   5.797  17.387  0.00  0.00    +0.000 A 
ATOM     15 CL   UNL     1       5.821   7.247  17.523  0.00  0.00    +0.000 Cl
ENDBRANCH   1  13
BRANCH   4  16
ATOM     16  C   UNL     1       0.821  10.620  19.658  0.00  0.00    +0.000 A 
ATOM     17  N   UNL     1      -0.345  10.662  20.270  0.00  0.00    +0.000 NA
ATOM     18  C   UNL     1      -0.596  11.930  20.748  0.00  0.00    +0.000 A 
ATOM     19  C   UNL     1       0.387  12.860  20.476  0.00  0.00    +0.000 A 
ATOM     20  S   UNL     1       1.647  12.128  19.575  0.00  0.00    +0.000 S 
BRANCH  18  21
ATOM     21  C   UNL     1      -1.811  12.206  21.498  0.00  0.00    +0.000 A 
ATOM     22  C   UNL     1      -1.833  11.984  22.882  0.00  0.00    +0.000 A 
ATOM     23  C   UNL     1      -2.997  12.206  23.621  0.00  0.00    +0.000 A 
ATOM     24  C   UNL     1      -4.156  12.648  22.982  0.00  0.00    +0.000 A 
ATOM     25 CL   UNL     1      -5.567  12.889  23.947  0.00  0.00    +0.000 Cl
ATOM     26  C   UNL     1      -4.144  12.872  21.600  0.00  0.00    +0.000 A 
ATOM     27 CL   UNL     1      -5.542  13.411  20.737  0.00  0.00    +0.000 Cl
ATOM     28  C   UNL     1      -2.976  12.654  20.863  0.00  0.00    +0.000 A 
ENDBRANCH  18  21
ENDBRANCH   4  16
BRANCH   6  29
ATOM     29  C   UNL     1       2.064   5.917  20.438  0.00  0.00    +0.000 C 
ATOM     30  O   UNL     1       1.025   5.492  20.906  0.00  0.00    +0.000 OA
BRANCH  29  31
ATOM     31  O   UNL     1       3.277   5.406  20.750  0.00  0.00    +0.000 OA
ATOM     32  H   UNL     1       3.936   5.391  20.030  0.00  0.00    +0.000 HD
ENDBRANCH  29  31
ENDBRANCH   6  29
TORSDOF 5
ENDMDL
MODEL 5
REMARK VINA RESULT:      -8.1      4.024      5.588
REMARK  Name = 
REMARK  6 active torsions:
REMARK  status: ('A' for Active; 'I' for Inactive)
REMARK    1  A    between atoms: C_1  and  C_2
REMARK    2  A    between atoms: C_7  and  C_8
REMARK    3  A    between atoms: C_11  and  C_12
REMARK    4  A    between atoms: C_14  and  C_15
REMARK    5  A    between atoms: C_26  and  C_27
REMARK    6  A    between atoms: C_27  and  O_29
REMARK                            x       y       z     vdW  Elec       q    Type
REMARK                         _______ _______ _______ _____ _____    ______ ____
ROOT
ATOM      1  C   UNL     1      -1.199  12.105  22.217  0.00  0.00    +0.000 A 
ATOM      2  C   UNL     1      -0.381  11.114  22.805  0.00  0.00    +0.000 A 
ATOM      3  C   UNL     1       0.289  10.136  22.064  0.00  0.00    +0.000 A 
ATOM      4  C   UNL     1       0.239  10.147  20.676  0.00  0.00    +0.000 A 
ATOM      5  C   UNL     1      -0.538  11.127  20.052  0.00  0.00    +0.000 A 
ATOM      6  C   UNL     1      -1.250  12.098  20.797  0.00  0.00    +0.000 A 
ENDROOT
BRANCH   1  13
ATOM      7  C   UNL     1      -1.836  16.844  24.115  0.00  0.00    +0.000 C 
ATOM      8  C   UNL     1      -2.199  15.382  24.053  0.00  0.00    +0.000 A 
ATOM      9  C   UNL     1      -3.347  14.951  24.724  0.00  0.00    +0.000 A 
ATOM     10  C   UNL     1      -3.768  13.633  24.604  0.00  0.00    +0.000 A 
ATOM     11  C   UNL     1      -3.070  12.746  23.784  0.00  0.00    +0.000 A 
ATOM     12  F   UNL     1      -3.610  11.530  23.608  0.00  0.00    +0.000 F 
ATOM     13  C   UNL     1      -1.880  13.095  23.118  0.00  0.00    +0.000 A 
ATOM     14  C   UNL     1      -1.448  14.444  23.295  0.00  0.00    +0.000 A 
ATOM     15 CL   UNL     1       0.055  15.017  22.609  0.00  0.00    +0.000 Cl
ENDBRANCH   1  13
BRANCH   4  16
ATOM     16  C   UNL     1       1.051   9.244  19.853  0.00  0.00    +0.000 A 
ATOM     17  N   UNL     1       1.509   8.090  20.293  0.00  0.00    +0.000 NA
ATOM     18  C   UNL     1       2.168   7.415  19.287  0.00  0.00    +0.000 A 
ATOM     19  C   UNL     1       2.221   8.079  18.078  0.00  0.00    +0.000 A 
ATOM     20  S   UNL     1       1.446   9.602  18.216  0.00  0.00    +0.000 S 
BRANCH  18  21
ATOM     21  C   UNL     1       2.724   6.094  19.531  0.00  0.00    +0.000 A 
ATOM     22  C   UNL     1       3.904   5.711  18.877  0.00  0.00    +0.000 A 
ATOM     23  C   UNL     1       4.440   4.435  19.065  0.00  0.00    +0.000 A 
ATOM     24  C   UNL     1       3.799   3.525  19.907  0.00  0.00    +0.000 A 
ATOM     25 CL   UNL     1       4.503   1.959  20.086  0.00  0.00    +0.000 Cl
ATOM     26  C   UNL     1       2.621   3.898  20.564  0.00  0.00    +0.000 A 
ATOM     27 CL   UNL     1       1.765   2.824  21.614  0.00  0.00    +0.000 Cl
ATOM     28  C   UNL     1       2.088   5.178  20.378  0.00  0.00    +0.000 A 
ENDBRANCH  18  21
ENDBRANCH   4  16
BRANCH   6  29
ATOM     29  C   UNL     1      -2.087  13.038  20.007  0.00  0.00    +0.000 C 
ATOM     30  O   UNL     1      -3.286  12.894  19.863  0.00  0.00    +0.000 OA
BRANCH  29  31
ATOM     31  O   UNL     1      -1.393  14.051  19.440  0.00  0.00    +0.000 OA
ATOM     32  H   UNL     1      -1.843  14.530  18.718  0.00  0.00    +0.000 HD
ENDBRANCH  29  31
ENDBRANCH   6  29
TORSDOF 5
ENDMDL
MODEL 6
REMARK VINA RESULT:      -8.0      3.568     10.203
REMARK  Name = 
REMARK  6 active torsions:
REMARK  status: ('A' for Active; 'I' for Inactive)
REMARK    1  A    between atoms: C_1  and  C_2
REMARK    2  A    between atoms: C_7  and  C_8
REMARK    3  A    between atoms: C_11  and  C_12
REMARK    4  A    between atoms: C_14  and  C_15
REMARK    5  A    between atoms: C_26  and  C_27
REMARK    6  A    between atoms: C_27  and  O_29
REMARK                            x       y       z     vdW  Elec       q    Type
REMARK                         _______ _______ _______ _____ _____    ______ ____
ROOT
ATOM      1  C   UNL     1       2.707   7.006  18.243  0.00  0.00    +0.000 A 
ATOM      2  C   UNL     1       2.627   8.198  17.488  0.00  0.00    +0.000 A 
ATOM      3  C   UNL     1       1.938   9.334  17.921  0.00  0.00    +0.000 A 
ATOM      4  C   UNL     1       1.353   9.365  19.181  0.00  0.00    +0.000 A 
ATOM      5  C   UNL     1       1.431   8.215  19.972  0.00  0.00    +0.000 A 
ATOM      6  C   UNL     1       2.095   7.048  19.525  0.00  0.00    +0.000 A 
ENDROOT
BRANCH   1  13
ATOM      7  C   UNL     1       7.071   4.642  16.888  0.00  0.00    +0.000 C 
ATOM      8  C   UNL     1       5.568   4.688  16.999  0.00  0.00    +0.000 A 
ATOM      9  C   UNL     1       4.843   3.522  16.727  0.00  0.00    +0.000 A 
ATOM     10  C   UNL     1       3.469   3.499  16.918  0.00  0.00    +0.000 A 
ATOM     11  C   UNL     1       2.811   4.624  17.417  0.00  0.00    +0.000 A 
ATOM     12  F   UNL     1       1.508   4.486  17.706  0.00  0.00    +0.000 F 
ATOM     13  C   UNL     1       3.466   5.846  17.667  0.00  0.00    +0.000 A 
ATOM     14  C   UNL     1       4.872   5.852  17.420  0.00  0.00    +0.000 A 
ATOM     15 CL   UNL     1       5.820   7.310  17.595  0.00  0.00    +0.000 Cl
ENDBRANCH   1  13
BRANCH   4  16
ATOM     16  C   UNL     1       0.760  10.583  19.742  0.00  0.00    +0.000 A 
ATOM     17  N   UNL     1      -0.516  10.682  20.055  0.00  0.00    +0.000 NA
ATOM     18  C   UNL     1      -0.779  11.904  20.636  0.00  0.00    +0.000 A 
ATOM     19  C   UNL     1       0.310  12.744  20.745  0.00  0.00    +0.000 A 
ATOM     20  S   UNL     1       1.696  11.988  20.078  0.00  0.00    +0.000 S 
BRANCH  18  21
ATOM     21  C   UNL     1      -2.119  12.222  21.103  0.00  0.00    +0.000 A 
ATOM     22  C   UNL     1      -3.104  12.589  20.175  0.00  0.00    +0.000 A 
ATOM     23  C   UNL     1      -4.390  12.934  20.599  0.00  0.00    +0.000 A 
ATOM     24  C   UNL     1      -4.703  12.920  21.959  0.00  0.00    +0.000 A 
ATOM     25 CL   UNL     1      -6.304  13.372  22.422  0.00  0.00    +0.000 Cl
ATOM     26  C   UNL     1      -3.726  12.556  22.893  0.00  0.00    +0.000 A 
ATOM     27 CL   UNL     1      -4.036  12.525  24.594  0.00  0.00    +0.000 Cl
ATOM     28  C   UNL     1      -2.441  12.206  22.466  0.00  0.00    +0.000 A 
ENDBRANCH  18  21
ENDBRANCH   4  16
BRANCH   6  29
ATOM     29  C   UNL     1       2.044   5.879  20.442  0.00  0.00    +0.000 C 
ATOM     30  O   UNL     1       1.003   5.423  20.873  0.00  0.00    +0.000 OA
BRANCH  29  31
ATOM     31  O   UNL     1       3.259   5.388  20.776  0.00  0.00    +0.000 OA
ATOM     32  H   UNL     1       3.644   4.735  20.160  0.00  0.00    +0.000 HD
ENDBRANCH  29  31
ENDBRANCH   6  29
TORSDOF 5
ENDMDL
MODEL 7
REMARK VINA RESULT:      -7.9      3.902      9.546
REMARK  Name = 
REMARK  6 active torsions:
REMARK  status: ('A' for Active; 'I' for Inactive)
REMARK    1  A    between atoms: C_1  and  C_2
REMARK    2  A    between atoms: C_7  and  C_8
REMARK    3  A    between atoms: C_11  and  C_12
REMARK    4  A    between atoms: C_14  and  C_15
REMARK    5  A    between atoms: C_26  and  C_27
REMARK    6  A    between atoms: C_27  and  O_29
REMARK                            x       y       z     vdW  Elec       q    Type
REMARK                         _______ _______ _______ _____ _____    ______ ____
ROOT
ATOM      1  C   UNL     1       2.825   6.892  18.195  0.00  0.00    +0.000 A 
ATOM      2  C   UNL     1       2.721   8.078  17.436  0.00  0.00    +0.000 A 
ATOM      3  C   UNL     1       2.037   9.214  17.879  0.00  0.00    +0.000 A 
ATOM      4  C   UNL     1       1.483   9.250  19.152  0.00  0.00    +0.000 A 
ATOM      5  C   UNL     1       1.585   8.105  19.948  0.00  0.00    +0.000 A 
ATOM      6  C   UNL     1       2.244   6.938  19.491  0.00  0.00    +0.000 A 
ENDROOT
BRANCH   1  13
ATOM      7  C   UNL     1       7.168   4.519  16.790  0.00  0.00    +0.000 C 
ATOM      8  C   UNL     1       5.666   4.569  16.915  0.00  0.00    +0.000 A 
ATOM      9  C   UNL     1       4.936   3.407  16.646  0.00  0.00    +0.000 A 
ATOM     10  C   UNL     1       3.563   3.388  16.850  0.00  0.00    +0.000 A 
ATOM     11  C   UNL     1       2.914   4.512  17.359  0.00  0.00    +0.000 A 
ATOM     12  F   UNL     1       1.612   4.377  17.660  0.00  0.00    +0.000 F 
ATOM     13  C   UNL     1       3.574   5.731  17.607  0.00  0.00    +0.000 A 
ATOM     14  C   UNL     1       4.978   5.734  17.348  0.00  0.00    +0.000 A 
ATOM     15 CL   UNL     1       5.932   7.189  17.518  0.00  0.00    +0.000 Cl
ENDBRANCH   1  13
BRANCH   4  16
ATOM     16  C   UNL     1       0.898  10.469  19.720  0.00  0.00    +0.000 A 
ATOM     17  N   UNL     1       1.131  11.671  19.235  0.00  0.00    +0.000 NA
ATOM     18  C   UNL     1       0.390  12.618  19.909  0.00  0.00    +0.000 A 
ATOM     19  C   UNL     1      -0.398  12.124  20.928  0.00  0.00    +0.000 A 
ATOM     20  S   UNL     1      -0.184  10.428  21.060  0.00  0.00    +0.000 S 
BRANCH  18  21
ATOM     21  C   UNL     1       0.455  14.017  19.516  0.00  0.00    +0.000 A 
ATOM     22  C   UNL     1      -0.659  14.844  19.724  0.00  0.00    +0.000 A 
ATOM     23  C   UNL     1      -0.637  16.182  19.323  0.00  0.00    +0.000 A 
ATOM     24  C   UNL     1       0.499  16.708  18.706  0.00  0.00    +0.000 A 
ATOM     25 CL   UNL     1       0.459  18.363  18.221  0.00  0.00    +0.000 Cl
ATOM     26  C   UNL     1       1.616  15.890  18.495  0.00  0.00    +0.000 A 
ATOM     27 CL   UNL     1       3.055  16.466  17.729  0.00  0.00    +0.000 Cl
ATOM     28  C   UNL     1       1.594  14.551  18.901  0.00  0.00    +0.000 A 
ENDBRANCH  18  21
ENDBRANCH   4  16
BRANCH   6  29
ATOM     29  C   UNL     1       2.221   5.774  20.416  0.00  0.00    +0.000 C 
ATOM     30  O   UNL     1       1.191   5.297  20.851  0.00  0.00    +0.000 OA
BRANCH  29  31
ATOM     31  O   UNL     1       3.447   5.314  20.753  0.00  0.00    +0.000 OA
ATOM     32  H   UNL     1       3.594   4.356  20.635  0.00  0.00    +0.000 HD
ENDBRANCH  29  31
ENDBRANCH   6  29
TORSDOF 5
ENDMDL
MODEL 8
REMARK VINA RESULT:      -7.8      1.535      2.273
REMARK  Name = 
REMARK  6 active torsions:
REMARK  status: ('A' for Active; 'I' for Inactive)
REMARK    1  A    between atoms: C_1  and  C_2
REMARK    2  A    between atoms: C_7  and  C_8
REMARK    3  A    between atoms: C_11  and  C_12
REMARK    4  A    between atoms: C_14  and  C_15
REMARK    5  A    between atoms: C_26  and  C_27
REMARK    6  A    between atoms: C_27  and  O_29
REMARK                            x       y       z     vdW  Elec       q    Type
REMARK                         _______ _______ _______ _____ _____    ______ ____
ROOT
ATOM      1  C   UNL     1       0.912   9.735  19.196  0.00  0.00    +0.000 A 
ATOM      2  C   UNL     1       1.538   9.684  17.930  0.00  0.00    +0.000 A 
ATOM      3  C   UNL     1       2.481   8.714  17.581  0.00  0.00    +0.000 A 
ATOM      4  C   UNL     1       2.791   7.684  18.461  0.00  0.00    +0.000 A 
ATOM      5  C   UNL     1       2.174   7.682  19.715  0.00  0.00    +0.000 A 
ATOM      6  C   UNL     1       1.246   8.683  20.090  0.00  0.00    +0.000 A 
ENDROOT
BRANCH   1  13
ATOM      7  C   UNL     1      -0.290  14.521  20.651  0.00  0.00    +0.000 C 
ATOM      8  C   UNL     1      -0.678  13.146  20.167  0.00  0.00    +0.000 A 
ATOM      9  C   UNL     1      -1.999  12.930  19.761  0.00  0.00    +0.000 A 
ATOM     10  C   UNL     1      -2.365  11.708  19.215  0.00  0.00    +0.000 A 
ATOM     11  C   UNL     1      -1.411  10.707  19.032  0.00  0.00    +0.000 A 
ATOM     12  F   UNL     1      -1.806   9.606  18.374  0.00  0.00    +0.000 F 
ATOM     13  C   UNL     1      -0.076  10.835  19.460  0.00  0.00    +0.000 A 
ATOM     14  C   UNL     1       0.261  12.087  20.057  0.00  0.00    +0.000 A 
ATOM     15 CL   UNL     1       1.852  12.379  20.722  0.00  0.00    +0.000 Cl
ENDBRANCH   1  13
BRANCH   4  16
ATOM     16  C   UNL     1       3.649   6.558  18.081  0.00  0.00    +0.000 A 
ATOM     17  N   UNL     1       4.024   6.327  16.839  0.00  0.00    +0.000 NA
ATOM     18  C   UNL     1       4.890   5.256  16.785  0.00  0.00    +0.000 A 
ATOM     19  C   UNL     1       5.157   4.661  18.001  0.00  0.00    +0.000 A 
ATOM     20  S   UNL     1       4.278   5.452  19.241  0.00  0.00    +0.000 S 
BRANCH  18  21
ATOM     21  C   UNL     1       5.468   4.843  15.516  0.00  0.00    +0.000 A 
ATOM     22  C   UNL     1       4.864   3.808  14.787  0.00  0.00    +0.000 A 
ATOM     23  C   UNL     1       5.419   3.367  13.583  0.00  0.00    +0.000 A 
ATOM     24  C   UNL     1       6.589   3.954  13.097  0.00  0.00    +0.000 A 
ATOM     25 CL   UNL     1       7.233   3.354  11.612  0.00  0.00    +0.000 Cl
ATOM     26  C   UNL     1       7.198   4.987  13.818  0.00  0.00    +0.000 A 
ATOM     27 CL   UNL     1       8.653   5.756  13.285  0.00  0.00    +0.000 Cl
ATOM     28  C   UNL     1       6.639   5.430  15.021  0.00  0.00    +0.000 A 
ENDBRANCH  18  21
ENDBRANCH   4  16
BRANCH   6  29
ATOM     29  C   UNL     1       0.717   8.593  21.476  0.00  0.00    +0.000 C 
ATOM     30  O   UNL     1      -0.422   8.253  21.728  0.00  0.00    +0.000 OA
BRANCH  29  31
ATOM     31  O   UNL     1       1.607   8.952  22.429  0.00  0.00    +0.000 OA
ATOM     32  H   UNL     1       1.249   9.454  23.186  0.00  0.00    +0.000 HD
ENDBRANCH  29  31
ENDBRANCH   6  29
TORSDOF 5
ENDMDL
MODEL 9
REMARK VINA RESULT:      -7.7      3.753      5.362
REMARK  Name = 
REMARK  6 active torsions:
REMARK  status: ('A' for Active; 'I' for Inactive)
REMARK    1  A    between atoms: C_1  and  C_2
REMARK    2  A    between atoms: C_7  and  C_8
REMARK    3  A    between atoms: C_11  and  C_12
REMARK    4  A    between atoms: C_14  and  C_15
REMARK    5  A    between atoms: C_26  and  C_27
REMARK    6  A    between atoms: C_27  and  O_29
REMARK                            x       y       z     vdW  Elec       q    Type
REMARK                         _______ _______ _______ _____ _____    ______ ____
ROOT
ATOM      1  C   UNL     1      -1.099  12.252  22.176  0.00  0.00    +0.000 A 
ATOM      2  C   UNL     1      -0.443  11.107  22.681  0.00  0.00    +0.000 A 
ATOM      3  C   UNL     1       0.208  10.176  21.866  0.00  0.00    +0.000 A 
ATOM      4  C   UNL     1       0.308  10.387  20.497  0.00  0.00    +0.000 A 
ATOM      5  C   UNL     1      -0.304  11.523  19.959  0.00  0.00    +0.000 A 
ATOM      6  C   UNL     1      -0.998  12.450  20.773  0.00  0.00    +0.000 A 
ENDROOT
BRANCH   1  13
ATOM      7  C   UNL     1      -1.629  16.796  24.530  0.00  0.00    +0.000 C 
ATOM      8  C   UNL     1      -2.045  15.364  24.303  0.00  0.00    +0.000 A 
ATOM      9  C   UNL     1      -3.236  14.916  24.884  0.00  0.00    +0.000 A 
ATOM     10  C   UNL     1      -3.702  13.637  24.613  0.00  0.00    +0.000 A 
ATOM     11  C   UNL     1      -3.006  12.809  23.732  0.00  0.00    +0.000 A 
ATOM     12  F   UNL     1      -3.585  11.642  23.411  0.00  0.00    +0.000 F 
ATOM     13  C   UNL     1      -1.777  13.173  23.149  0.00  0.00    +0.000 A 
ATOM     14  C   UNL     1      -1.301  14.478  23.480  0.00  0.00    +0.000 A 
ATOM     15 CL   UNL     1       0.249  15.053  22.913  0.00  0.00    +0.000 Cl
ENDBRANCH   1  13
BRANCH   4  16
ATOM     16  C   UNL     1       1.116   9.527  19.626  0.00  0.00    +0.000 A 
ATOM     17  N   UNL     1       1.474   8.303  19.959  0.00  0.00    +0.000 NA
ATOM     18  C   UNL     1       2.155   7.700  18.923  0.00  0.00    +0.000 A 
ATOM     19  C   UNL     1       2.326   8.485  17.802  0.00  0.00    +0.000 A 
ATOM     20  S   UNL     1       1.637  10.033  18.065  0.00  0.00    +0.000 S 
BRANCH  18  21
ATOM     21  C   UNL     1       2.614   6.325  19.048  0.00  0.00    +0.000 A 
ATOM     22  C   UNL     1       2.314   5.601  20.211  0.00  0.00    +0.000 A 
ATOM     23  C   UNL     1       2.773   4.291  20.373  0.00  0.00    +0.000 A 
ATOM     24  C   UNL     1       3.541   3.692  19.374  0.00  0.00    +0.000 A 
ATOM     25 CL   UNL     1       4.092   2.078  19.640  0.00  0.00    +0.000 Cl
ATOM     26  C   UNL     1       3.846   4.408  18.210  0.00  0.00    +0.000 A 
ATOM     27 CL   UNL     1       4.800   3.737  16.933  0.00  0.00    +0.000 Cl
ATOM     28  C   UNL     1       3.381   5.717  18.047  0.00  0.00    +0.000 A 
ENDBRANCH  18  21
ENDBRANCH   4  16
BRANCH   6  29
ATOM     29  C   UNL     1      -1.656  13.576  20.059  0.00  0.00    +0.000 C 
ATOM     30  O   UNL     1      -1.071  14.598  19.758  0.00  0.00    +0.000 OA
BRANCH  29  31
ATOM     31  O   UNL     1      -2.968  13.374  19.803  0.00  0.00    +0.000 OA
ATOM     32  H   UNL     1      -3.189  13.077  18.899  0.00  0.00    +0.000 HD
ENDBRANCH  29  31
ENDBRANCH   6  29
TORSDOF 5
ENDMDL
