MODEL 1
REMARK VINA RESULT:      -9.2      0.000      0.000
REMARK  Name = 
REMARK  7 active torsions:
REMARK  status: ('A' for Active; 'I' for Inactive)
REMARK    1  A    between atoms: C_1  and  N_2
REMARK    2  A    between atoms: N_5  and  C_6
REMARK    3  A    between atoms: C_9  and  C_10
REMARK    4  A    between atoms: N_12  and  C_13
REMARK    5  A    between atoms: C_15  and  C_16
REMARK    6  A    between atoms: C_20  and  N_21
REMARK    7  A    between atoms: C_22  and  C_24
REMARK                            x       y       z     vdW  Elec       q    Type
REMARK                         _______ _______ _______ _____ _____    ______ ____
ROOT
ATOM      1  C   UNL     1       1.162   9.306  19.822  0.00  0.00    +0.000 A 
ATOM      2  C   UNL     1       1.722   8.095  20.143  0.00  0.00    +0.000 A 
ATOM      3  C   UNL     1       2.326   7.614  18.951  0.00  0.00    +0.000 A 
ATOM      4  N   UNL     1       2.117   8.476  17.942  0.00  0.00    +0.000 NA
ATOM      5  N   UNL     1       1.412   9.472  18.490  0.00  0.00    +0.000 N 
ATOM      6  H   UNL     1       1.155  10.249  17.895  0.00  0.00    +0.000 HD
ENDROOT
BRANCH   3   7
ATOM      7  C   UNL     1       3.057   6.356  18.781  0.00  0.00    +0.000 A 
ATOM      8  C   UNL     1       3.090   5.404  19.810  0.00  0.00    +0.000 A 
ATOM      9  C   UNL     1       3.757   4.194  19.628  0.00  0.00    +0.000 A 
ATOM     10  C   UNL     1       4.385   3.916  18.415  0.00  0.00    +0.000 A 
ATOM     11  C   UNL     1       4.358   4.844  17.375  0.00  0.00    +0.000 A 
ATOM     12  C   UNL     1       3.712   6.072  17.572  0.00  0.00    +0.000 A 
BRANCH  11  13
ATOM     13  N   UNL     1       4.957   4.614  16.122  0.00  0.00    +0.000 N 
ATOM     14  C   UNL     1       6.127   5.178  15.647  0.00  0.00    +0.000 C 
ATOM     15  O   UNL     1       6.891   5.911  16.258  0.00  0.00    +0.000 OA
ATOM     16  H   UNL     1       4.559   3.873  15.561  0.00  0.00    +0.000 HD
BRANCH  14  17
ATOM     17  C   UNL     1       6.490   4.760  14.267  0.00  0.00    +0.000 A 
ATOM     18  C   UNL     1       7.540   5.373  13.571  0.00  0.00    +0.000 A 
ATOM     19  C   UNL     1       7.831   4.977  12.267  0.00  0.00    +0.000 A 
ATOM     20  C   UNL     1       7.089   3.964  11.662  0.00  0.00    +0.000 A 
ATOM     21  C   UNL     1       6.060   3.334  12.361  0.00  0.00    +0.000 A 
ATOM     22  C   UNL     1       5.763   3.728  13.666  0.00  0.00    +0.000 A 
ENDBRANCH  14  17
ENDBRANCH  11  13
ENDBRANCH   3   7
BRANCH   1  25
ATOM     23  C   UNL     1      -0.663  10.945  20.164  0.00  0.00    +0.000 C 
ATOM     24  O   UNL     1      -1.103  10.765  19.038  0.00  0.00    +0.000 OA
ATOM     25  N   UNL     1       0.474  10.198  20.632  0.00  0.00    +0.000 N 
ATOM     26  H   UNL     1       0.762  10.267  21.595  0.00  0.00    +0.000 HD
BRANCH  23  30
ATOM     27  C   UNL     1      -2.672  13.719  22.790  0.00  0.00    +0.000 A 
ATOM     28  C   UNL     1      -3.146  13.424  21.508  0.00  0.00    +0.000 A 
ATOM     29  C   UNL     1      -2.480  12.526  20.669  0.00  0.00    +0.000 A 
ATOM     30  C   UNL     1      -1.309  11.894  21.100  0.00  0.00    +0.000 A 
ATOM     31  C   UNL     1      -0.812  12.179  22.371  0.00  0.00    +0.000 A 
ATOM     32  C   UNL     1      -1.491  13.081  23.194  0.00  0.00    +0.000 A 
BRANCH  27  37
ATOM     33  C   UNL     1      -5.009  18.112  25.261  0.00  0.00    +0.000 C 
ATOM     34  N   UNL     1      -4.639  16.711  25.090  0.00  0.00    +0.000 NA
ATOM     35  C   UNL     1      -3.166  16.553  25.075  0.00  0.00    +0.000 C 
ATOM     36  C   UNL     1      -2.724  15.082  24.878  0.00  0.00    +0.000 C 
ATOM     37  N   UNL     1      -3.344  14.547  23.657  0.00  0.00    +0.000 N 
ATOM     38  C   UNL     1      -4.811  14.684  23.624  0.00  0.00    +0.000 C 
ATOM     39  C   UNL     1      -5.198  16.164  23.834  0.00  0.00    +0.000 C 
ENDBRANCH  27  37
ENDBRANCH  23  30
ENDBRANCH   1  25
TORSDOF 6
ENDMDL
MODEL 2
REMARK VINA RESULT:      -8.8      1.118      1.249
REMARK  Name = 
REMARK  7 active torsions:
REMARK  status: ('A' for Active; 'I' for Inactive)
REMARK    1  A    between atoms: C_1  and  N_2
REMARK    2  A    between atoms: N_5  and  C_6
REMARK    3  A    between atoms: C_9  and  C_10
REMARK    4  A    between atoms: N_12  and  C_13
REMARK    5  A    between atoms: C_15  and  C_16
REMARK    6  A    between atoms: C_20  and  N_21
REMARK    7  A    between atoms: C_22  and  C_24
REMARK                            x       y       z     vdW  Elec       q    Type
REMARK                         _______ _______ _______ _____ _____    ______ ____
ROOT
ATOM      1  C   UNL     1       0.769   9.844  19.032  0.00  0.00    +0.000 A 
ATOM      2  C   UNL     1       1.285   8.647  19.459  0.00  0.00    +0.000 A 
ATOM      3  C   UNL     1       2.223   8.249  18.469  0.00  0.00    +0.000 A 
ATOM      4  N   UNL     1       2.254   9.147  17.468  0.00  0.00    +0.000 NA
ATOM      5  N   UNL     1       1.368  10.082  17.828  0.00  0.00    +0.000 N 
ATOM      6  H   UNL     1       1.243  10.873  17.210  0.00  0.00    +0.000 HD
ENDROOT
BRANCH   3   7
ATOM      7  C   UNL     1       3.043   7.036  18.471  0.00  0.00    +0.000 A 
ATOM      8  C   UNL     1       3.167   6.259  19.631  0.00  0.00    +0.000 A 
ATOM      9  C   UNL     1       3.919   5.086  19.616  0.00  0.00    +0.000 A 
ATOM     10  C   UNL     1       4.544   4.670  18.441  0.00  0.00    +0.000 A 
ATOM     11  C   UNL     1       4.428   5.422  17.273  0.00  0.00    +0.000 A 
ATOM     12  C   UNL     1       3.695   6.617  17.300  0.00  0.00    +0.000 A 
BRANCH  11  13
ATOM     13  N   UNL     1       5.020   5.045  16.054  0.00  0.00    +0.000 N 
ATOM     14  C   UNL     1       6.281   5.390  15.602  0.00  0.00    +0.000 C 
ATOM     15  O   UNL     1       7.136   6.014  16.215  0.00  0.00    +0.000 OA
ATOM     16  H   UNL     1       4.524   4.356  15.504  0.00  0.00    +0.000 HD
BRANCH  14  17
ATOM     17  C   UNL     1       6.613   4.861  14.253  0.00  0.00    +0.000 A 
ATOM     18  C   UNL     1       7.705   5.352  13.525  0.00  0.00    +0.000 A 
ATOM     19  C   UNL     1       7.967   4.854  12.250  0.00  0.00    +0.000 A 
ATOM     20  C   UNL     1       7.153   3.862  11.706  0.00  0.00    +0.000 A 
ATOM     21  C   UNL     1       6.081   3.354  12.438  0.00  0.00    +0.000 A 
ATOM     22  C   UNL     1       5.813   3.849  13.714  0.00  0.00    +0.000 A 
ENDBRANCH  14  17
ENDBRANCH  11  13
ENDBRANCH   3   7
BRANCH   1  25
ATOM     23  C   UNL     1      -0.043  11.093  21.011  0.00  0.00    +0.000 C 
ATOM     24  O   UNL     1       0.943  10.791  21.668  0.00  0.00    +0.000 OA
ATOM     25  N   UNL     1      -0.168  10.666  19.644  0.00  0.00    +0.000 N 
ATOM     26  H   UNL     1      -0.925  11.010  19.073  0.00  0.00    +0.000 HD
BRANCH  23  30
ATOM     27  C   UNL     1      -3.232  13.582  22.516  0.00  0.00    +0.000 A 
ATOM     28  C   UNL     1      -3.074  13.308  21.153  0.00  0.00    +0.000 A 
ATOM     29  C   UNL     1      -2.033  12.503  20.684  0.00  0.00    +0.000 A 
ATOM     30  C   UNL     1      -1.113  11.946  21.578  0.00  0.00    +0.000 A 
ATOM     31  C   UNL     1      -1.244  12.213  22.940  0.00  0.00    +0.000 A 
ATOM     32  C   UNL     1      -2.291  13.021  23.390  0.00  0.00    +0.000 A 
BRANCH  27  37
ATOM     33  C   UNL     1      -7.272  17.329  23.221  0.00  0.00    +0.000 C 
ATOM     34  N   UNL     1      -6.449  16.169  23.547  0.00  0.00    +0.000 NA
ATOM     35  C   UNL     1      -5.029  16.557  23.705  0.00  0.00    +0.000 C 
ATOM     36  C   UNL     1      -4.112  15.354  24.034  0.00  0.00    +0.000 C 
ATOM     37  N   UNL     1      -4.285  14.315  23.008  0.00  0.00    +0.000 N 
ATOM     38  C   UNL     1      -5.685  13.897  22.812  0.00  0.00    +0.000 C 
ATOM     39  C   UNL     1      -6.556  15.133  22.496  0.00  0.00    +0.000 C 
ENDBRANCH  27  37
ENDBRANCH  23  30
ENDBRANCH   1  25
TORSDOF 6
ENDMDL
MODEL 3
REMARK VINA RESULT:      -8.5      1.316      1.770
REMARK  Name = 
REMARK  7 active torsions:
REMARK  status: ('A' for Active; 'I' for Inactive)
REMARK    1  A    between atoms: C_1  and  N_2
REMARK    2  A    between atoms: N_5  and  C_6
REMARK    3  A    between atoms: C_9  and  C_10
REMARK    4  A    between atoms: N_12  and  C_13
REMARK    5  A    between atoms: C_15  and  C_16
REMARK    6  A    between atoms: C_20  and  N_21
REMARK    7  A    between atoms: C_22  and  C_24
REMARK                            x       y       z     vdW  Elec       q    Type
REMARK                         _______ _______ _______ _____ _____    ______ ____
ROOT
ATOM      1  C   UNL     1       0.734  10.011  19.057  0.00  0.00    +0.000 A 
ATOM      2  C   UNL     1       1.169   8.783  19.489  0.00  0.00    +0.000 A 
ATOM      3  C   UNL     1       2.109   8.337  18.522  0.00  0.00    +0.000 A 
ATOM      4  N   UNL     1       2.219   9.237  17.529  0.00  0.00    +0.000 NA
ATOM      5  N   UNL     1       1.379  10.220  17.872  0.00  0.00    +0.000 N 
ATOM      6  H   UNL     1       1.316  11.020  17.255  0.00  0.00    +0.000 HD
ENDROOT
BRANCH   3   7
ATOM      7  C   UNL     1       2.858   7.079  18.538  0.00  0.00    +0.000 A 
ATOM      8  C   UNL     1       2.919   6.298  19.700  0.00  0.00    +0.000 A 
ATOM      9  C   UNL     1       3.602   5.084  19.698  0.00  0.00    +0.000 A 
ATOM     10  C   UNL     1       4.220   4.630  18.533  0.00  0.00    +0.000 A 
ATOM     11  C   UNL     1       4.165   5.385  17.363  0.00  0.00    +0.000 A 
ATOM     12  C   UNL     1       3.502   6.621  17.378  0.00  0.00    +0.000 A 
BRANCH  11  13
ATOM     13  N   UNL     1       4.753   4.972  16.153  0.00  0.00    +0.000 N 
ATOM     14  C   UNL     1       5.913   5.465  15.584  0.00  0.00    +0.000 C 
ATOM     15  O   UNL     1       6.679   6.287  16.070  0.00  0.00    +0.000 OA
ATOM     16  H   UNL     1       4.355   4.154  15.714  0.00  0.00    +0.000 HD
BRANCH  14  17
ATOM     17  C   UNL     1       6.265   4.846  14.279  0.00  0.00    +0.000 A 
ATOM     18  C   UNL     1       5.455   3.863  13.696  0.00  0.00    +0.000 A 
ATOM     19  C   UNL     1       5.832   3.282  12.487  0.00  0.00    +0.000 A 
ATOM     20  C   UNL     1       7.005   3.687  11.853  0.00  0.00    +0.000 A 
ATOM     21  C   UNL     1       7.801   4.683  12.418  0.00  0.00    +0.000 A 
ATOM     22  C   UNL     1       7.429   5.267  13.629  0.00  0.00    +0.000 A 
ENDBRANCH  14  17
ENDBRANCH  11  13
ENDBRANCH   3   7
BRANCH   1  25
ATOM     23  C   UNL     1      -1.444  11.190  19.059  0.00  0.00    +0.000 C 
ATOM     24  O   UNL     1      -1.802  10.634  18.031  0.00  0.00    +0.000 OA
ATOM     25  N   UNL     1      -0.170  10.882  19.650  0.00  0.00    +0.000 N 
ATOM     26  H   UNL     1       0.072  11.256  20.554  0.00  0.00    +0.000 HD
BRANCH  23  30
ATOM     27  C   UNL     1      -4.134  13.934  21.026  0.00  0.00    +0.000 A 
ATOM     28  C   UNL     1      -4.561  13.049  20.030  0.00  0.00    +0.000 A 
ATOM     29  C   UNL     1      -3.675  12.170  19.401  0.00  0.00    +0.000 A 
ATOM     30  C   UNL     1      -2.323  12.155  19.758  0.00  0.00    +0.000 A 
ATOM     31  C   UNL     1      -1.871  13.035  20.741  0.00  0.00    +0.000 A 
ATOM     32  C   UNL     1      -2.772  13.907  21.358  0.00  0.00    +0.000 A 
BRANCH  27  37
ATOM     33  C   UNL     1      -6.347  18.073  23.996  0.00  0.00    +0.000 C 
ATOM     34  N   UNL     1      -6.337  16.836  23.223  0.00  0.00    +0.000 NA
ATOM     35  C   UNL     1      -5.489  15.813  23.876  0.00  0.00    +0.000 C 
ATOM     36  C   UNL     1      -5.433  14.485  23.082  0.00  0.00    +0.000 C 
ATOM     37  N   UNL     1      -4.996  14.760  21.705  0.00  0.00    +0.000 N 
ATOM     38  C   UNL     1      -5.809  15.776  21.013  0.00  0.00    +0.000 C 
ATOM     39  C   UNL     1      -5.840  17.074  21.850  0.00  0.00    +0.000 C 
ENDBRANCH  27  37
ENDBRANCH  23  30
ENDBRANCH   1  25
TORSDOF 6
ENDMDL
MODEL 4
REMARK VINA RESULT:      -8.5      1.928      3.031
REMARK  Name = 
REMARK  7 active torsions:
REMARK  status: ('A' for Active; 'I' for Inactive)
REMARK    1  A    between atoms: C_1  and  N_2
REMARK    2  A    between atoms: N_5  and  C_6
REMARK    3  A    between atoms: C_9  and  C_10
REMARK    4  A    between atoms: N_12  and  C_13
REMARK    5  A    between atoms: C_15  and  C_16
REMARK    6  A    between atoms: C_20  and  N_21
REMARK    7  A    between atoms: C_22  and  C_24
REMARK                            x       y       z     vdW  Elec       q    Type
REMARK                         _______ _______ _______ _____ _____    ______ ____
ROOT
ATOM      1  C   UNL     1       2.233   7.472  19.625  0.00  0.00    +0.000 A 
ATOM      2  C   UNL     1       3.289   7.386  18.753  0.00  0.00    +0.000 A 
ATOM      3  C   UNL     1       3.897   6.126  18.998  0.00  0.00    +0.000 A 
ATOM      4  N   UNL     1       3.261   5.486  19.994  0.00  0.00    +0.000 NA
ATOM      5  N   UNL     1       2.279   6.319  20.355  0.00  0.00    +0.000 N 
ATOM      6  H   UNL     1       1.658   6.020  21.096  0.00  0.00    +0.000 HD
ENDROOT
BRANCH   3   7
ATOM      7  C   UNL     1       5.065   5.565  18.314  0.00  0.00    +0.000 A 
ATOM      8  C   UNL     1       6.319   5.548  18.940  0.00  0.00    +0.000 A 
ATOM      9  C   UNL     1       7.419   4.981  18.299  0.00  0.00    +0.000 A 
ATOM     10  C   UNL     1       7.275   4.413  17.033  0.00  0.00    +0.000 A 
ATOM     11  C   UNL     1       6.035   4.410  16.395  0.00  0.00    +0.000 A 
ATOM     12  C   UNL     1       4.939   5.009  17.031  0.00  0.00    +0.000 A 
BRANCH  11  13
ATOM     13  N   UNL     1       5.824   3.837  15.128  0.00  0.00    +0.000 N 
ATOM     14  C   UNL     1       6.339   4.277  13.922  0.00  0.00    +0.000 C 
ATOM     15  O   UNL     1       7.135   5.191  13.752  0.00  0.00    +0.000 OA
ATOM     16  H   UNL     1       5.345   2.947  15.108  0.00  0.00    +0.000 HD
BRANCH  14  17
ATOM     17  C   UNL     1       5.909   3.477  12.745  0.00  0.00    +0.000 A 
ATOM     18  C   UNL     1       4.637   3.637  12.180  0.00  0.00    +0.000 A 
ATOM     19  C   UNL     1       4.256   2.847  11.096  0.00  0.00    +0.000 A 
ATOM     20  C   UNL     1       5.144   1.911  10.569  0.00  0.00    +0.000 A 
ATOM     21  C   UNL     1       6.419   1.767  11.113  0.00  0.00    +0.000 A 
ATOM     22  C   UNL     1       6.805   2.554  12.198  0.00  0.00    +0.000 A 
ENDBRANCH  14  17
ENDBRANCH  11  13
ENDBRANCH   3   7
BRANCH   1  25
ATOM     23  C   UNL     1       0.941   9.013  21.071  0.00  0.00    +0.000 C 
ATOM     24  O   UNL     1       1.498   8.614  22.082  0.00  0.00    +0.000 OA
ATOM     25  N   UNL     1       1.303   8.490  19.781  0.00  0.00    +0.000 N 
ATOM     26  H   UNL     1       0.922   8.902  18.943  0.00  0.00    +0.000 HD
BRANCH  23  30
ATOM     27  C   UNL     1      -2.022  12.136  21.399  0.00  0.00    +0.000 A 
ATOM     28  C   UNL     1      -1.412  11.560  22.518  0.00  0.00    +0.000 A 
ATOM     29  C   UNL     1      -0.458  10.547  22.393  0.00  0.00    +0.000 A 
ATOM     30  C   UNL     1      -0.086  10.080  21.129  0.00  0.00    +0.000 A 
ATOM     31  C   UNL     1      -0.686  10.632  19.998  0.00  0.00    +0.000 A 
ATOM     32  C   UNL     1      -1.639  11.643  20.143  0.00  0.00    +0.000 A 
BRANCH  27  37
ATOM     33  C   UNL     1      -6.170  15.504  22.918  0.00  0.00    +0.000 C 
ATOM     34  N   UNL     1      -5.010  15.072  22.146  0.00  0.00    +0.000 NA
ATOM     35  C   UNL     1      -5.293  13.806  21.432  0.00  0.00    +0.000 C 
ATOM     36  C   UNL     1      -4.083  13.297  20.611  0.00  0.00    +0.000 C 
ATOM     37  N   UNL     1      -2.913  13.178  21.492  0.00  0.00    +0.000 N 
ATOM     38  C   UNL     1      -2.592  14.414  22.228  0.00  0.00    +0.000 C 
ATOM     39  C   UNL     1      -3.832  14.882  23.021  0.00  0.00    +0.000 C 
ENDBRANCH  27  37
ENDBRANCH  23  30
ENDBRANCH   1  25
TORSDOF 6
ENDMDL
MODEL 5
REMARK VINA RESULT:      -8.3      1.686      2.151
REMARK  Name = 
REMARK  7 active torsions:
REMARK  status: ('A' for Active; 'I' for Inactive)
REMARK    1  A    between atoms: C_1  and  N_2
REMARK    2  A    between atoms: N_5  and  C_6
REMARK    3  A    between atoms: C_9  and  C_10
REMARK    4  A    between atoms: N_12  and  C_13
REMARK    5  A    between atoms: C_15  and  C_16
REMARK    6  A    between atoms: C_20  and  N_21
REMARK    7  A    between atoms: C_22  and  C_24
REMARK                            x       y       z     vdW  Elec       q    Type
REMARK                         _______ _______ _______ _____ _____    ______ ____
ROOT
ATOM      1  C   UNL     1       0.727  10.275  19.046  0.00  0.00    +0.000 A 
ATOM      2  C   UNL     1       1.103   9.028  19.477  0.00  0.00    +0.000 A 
ATOM      3  C   UNL     1       2.066   8.563  18.542  0.00  0.00    +0.000 A 
ATOM      4  N   UNL     1       2.246   9.471  17.568  0.00  0.00    +0.000 NA
ATOM      5  N   UNL     1       1.427  10.478  17.890  0.00  0.00    +0.000 N 
ATOM      6  H   UNL     1       1.416  11.288  17.284  0.00  0.00    +0.000 HD
ENDROOT
BRANCH   3   7
ATOM      7  C   UNL     1       2.770   7.279  18.570  0.00  0.00    +0.000 A 
ATOM      8  C   UNL     1       2.770   6.489  19.727  0.00  0.00    +0.000 A 
ATOM      9  C   UNL     1       3.411   5.252  19.736  0.00  0.00    +0.000 A 
ATOM     10  C   UNL     1       4.047   4.785  18.586  0.00  0.00    +0.000 A 
ATOM     11  C   UNL     1       4.053   5.550  17.420  0.00  0.00    +0.000 A 
ATOM     12  C   UNL     1       3.432   6.807  17.426  0.00  0.00    +0.000 A 
BRANCH  11  13
ATOM     13  N   UNL     1       4.661   5.125  16.225  0.00  0.00    +0.000 N 
ATOM     14  C   UNL     1       5.892   5.522  15.734  0.00  0.00    +0.000 C 
ATOM     15  O   UNL     1       6.706   6.246  16.290  0.00  0.00    +0.000 OA
ATOM     16  H   UNL     1       4.209   4.366  15.733  0.00  0.00    +0.000 HD
BRANCH  14  17
ATOM     17  C   UNL     1       6.250   4.919  14.423  0.00  0.00    +0.000 A 
ATOM     18  C   UNL     1       5.446   3.939  13.826  0.00  0.00    +0.000 A 
ATOM     19  C   UNL     1       5.830   3.373  12.612  0.00  0.00    +0.000 A 
ATOM     20  C   UNL     1       7.005   3.790  11.987  0.00  0.00    +0.000 A 
ATOM     21  C   UNL     1       7.794   4.783  12.566  0.00  0.00    +0.000 A 
ATOM     22  C   UNL     1       7.415   5.352  13.782  0.00  0.00    +0.000 A 
ENDBRANCH  14  17
ENDBRANCH  11  13
ENDBRANCH   3   7
BRANCH   1  25
ATOM     23  C   UNL     1      -1.527  11.296  19.155  0.00  0.00    +0.000 C 
ATOM     24  O   UNL     1      -1.956  10.562  18.277  0.00  0.00    +0.000 OA
ATOM     25  N   UNL     1      -0.170  11.169  19.613  0.00  0.00    +0.000 N 
ATOM     26  H   UNL     1       0.145  11.697  20.412  0.00  0.00    +0.000 HD
BRANCH  23  30
ATOM     27  C   UNL     1      -3.924  14.311  21.103  0.00  0.00    +0.000 A 
ATOM     28  C   UNL     1      -2.528  14.295  21.184  0.00  0.00    +0.000 A 
ATOM     29  C   UNL     1      -1.768  13.308  20.550  0.00  0.00    +0.000 A 
ATOM     30  C   UNL     1      -2.395  12.301  19.810  0.00  0.00    +0.000 A 
ATOM     31  C   UNL     1      -3.787  12.290  19.723  0.00  0.00    +0.000 A 
ATOM     32  C   UNL     1      -4.530  13.284  20.364  0.00  0.00    +0.000 A 
BRANCH  27  37
ATOM     33  C   UNL     1      -7.802  18.169  22.069  0.00  0.00    +0.000 C 
ATOM     34  N   UNL     1      -6.631  17.347  22.353  0.00  0.00    +0.000 NA
ATOM     35  C   UNL     1      -5.562  17.589  21.356  0.00  0.00    +0.000 C 
ATOM     36  C   UNL     1      -4.302  16.723  21.606  0.00  0.00    +0.000 C 
ATOM     37  N   UNL     1      -4.689  15.306  21.662  0.00  0.00    +0.000 N 
ATOM     38  C   UNL     1      -5.754  15.015  22.639  0.00  0.00    +0.000 C 
ATOM     39  C   UNL     1      -6.980  15.909  22.351  0.00  0.00    +0.000 C 
ENDBRANCH  27  37
ENDBRANCH  23  30
ENDBRANCH   1  25
TORSDOF 6
ENDMDL
MODEL 6
REMARK VINA RESULT:      -8.3      1.055      1.109
REMARK  Name = 
REMARK  7 active torsions:
REMARK  status: ('A' for Active; 'I' for Inactive)
REMARK    1  A    between atoms: C_1  and  N_2
REMARK    2  A    between atoms: N_5  and  C_6
REMARK    3  A    between atoms: C_9  and  C_10
REMARK    4  A    between atoms: N_12  and  C_13
REMARK    5  A    between atoms: C_15  and  C_16
REMARK    6  A    between atoms: C_20  and  N_21
REMARK    7  A    between atoms: C_22  and  C_24
REMARK                            x       y       z     vdW  Elec       q    Type
REMARK                         _______ _______ _______ _____ _____    ______ ____
ROOT
ATOM      1  C   UNL     1       0.722   9.983  19.434  0.00  0.00    +0.000 A 
ATOM      2  C   UNL     1       1.363   8.837  19.831  0.00  0.00    +0.000 A 
ATOM      3  C   UNL     1       2.037   8.346  18.682  0.00  0.00    +0.000 A 
ATOM      4  N   UNL     1       1.793   9.138  17.624  0.00  0.00    +0.000 NA
ATOM      5  N   UNL     1       0.997  10.101  18.101  0.00  0.00    +0.000 N 
ATOM      6  H   UNL     1       0.699  10.825  17.460  0.00  0.00    +0.000 HD
ENDROOT
BRANCH   3   7
ATOM      7  C   UNL     1       2.868   7.142  18.596  0.00  0.00    +0.000 A 
ATOM      8  C   UNL     1       2.915   6.230  19.659  0.00  0.00    +0.000 A 
ATOM      9  C   UNL     1       3.679   5.068  19.557  0.00  0.00    +0.000 A 
ATOM     10  C   UNL     1       4.392   4.800  18.389  0.00  0.00    +0.000 A 
ATOM     11  C   UNL     1       4.353   5.689  17.316  0.00  0.00    +0.000 A 
ATOM     12  C   UNL     1       3.607   6.870  17.434  0.00  0.00    +0.000 A 
BRANCH  11  13
ATOM     13  N   UNL     1       5.035   5.465  16.106  0.00  0.00    +0.000 N 
ATOM     14  C   UNL     1       5.494   4.252  15.625  0.00  0.00    +0.000 C 
ATOM     15  O   UNL     1       5.317   3.148  16.123  0.00  0.00    +0.000 OA
ATOM     16  H   UNL     1       5.092   6.247  15.467  0.00  0.00    +0.000 HD
BRANCH  14  17
ATOM     17  C   UNL     1       6.209   4.341  14.324  0.00  0.00    +0.000 A 
ATOM     18  C   UNL     1       7.273   5.233  14.135  0.00  0.00    +0.000 A 
ATOM     19  C   UNL     1       7.898   5.311  12.893  0.00  0.00    +0.000 A 
ATOM     20  C   UNL     1       7.475   4.496  11.845  0.00  0.00    +0.000 A 
ATOM     21  C   UNL     1       6.434   3.589  12.037  0.00  0.00    +0.000 A 
ATOM     22  C   UNL     1       5.802   3.507  13.278  0.00  0.00    +0.000 A 
ENDBRANCH  14  17
ENDBRANCH  11  13
ENDBRANCH   3   7
BRANCH   1  25
ATOM     23  C   UNL     1      -1.256  11.457  19.656  0.00  0.00    +0.000 C 
ATOM     24  O   UNL     1      -1.665  11.160  18.543  0.00  0.00    +0.000 OA
ATOM     25  N   UNL     1      -0.058  10.857  20.178  0.00  0.00    +0.000 N 
ATOM     26  H   UNL     1       0.213  11.019  21.135  0.00  0.00    +0.000 HD
BRANCH  23  30
ATOM     27  C   UNL     1      -3.558  14.173  22.098  0.00  0.00    +0.000 A 
ATOM     28  C   UNL     1      -4.082  13.568  20.951  0.00  0.00    +0.000 A 
ATOM     29  C   UNL     1      -3.321  12.694  20.170  0.00  0.00    +0.000 A 
ATOM     30  C   UNL     1      -2.000  12.401  20.523  0.00  0.00    +0.000 A 
ATOM     31  C   UNL     1      -1.451  12.999  21.656  0.00  0.00    +0.000 A 
ATOM     32  C   UNL     1      -2.227  13.871  22.424  0.00  0.00    +0.000 A 
BRANCH  27  37
ATOM     33  C   UNL     1      -5.648  18.511  24.866  0.00  0.00    +0.000 C 
ATOM     34  N   UNL     1      -5.543  17.121  24.437  0.00  0.00    +0.000 NA
ATOM     35  C   UNL     1      -4.230  16.549  24.817  0.00  0.00    +0.000 C 
ATOM     36  C   UNL     1      -4.064  15.077  24.366  0.00  0.00    +0.000 C 
ATOM     37  N   UNL     1      -4.305  14.982  22.919  0.00  0.00    +0.000 N 
ATOM     38  C   UNL     1      -5.601  15.541  22.491  0.00  0.00    +0.000 C 
ATOM     39  C   UNL     1      -5.718  17.004  22.973  0.00  0.00    +0.000 C 
ENDBRANCH  27  37
ENDBRANCH  23  30
ENDBRANCH   1  25
TORSDOF 6
ENDMDL
MODEL 7
REMARK VINA RESULT:      -8.2      1.049      1.336
REMARK  Name = 
REMARK  7 active torsions:
REMARK  status: ('A' for Active; 'I' for Inactive)
REMARK    1  A    between atoms: C_1  and  N_2
REMARK    2  A    between atoms: N_5  and  C_6
REMARK    3  A    between atoms: C_9  and  C_10
REMARK    4  A    between atoms: N_12  and  C_13
REMARK    5  A    between atoms: C_15  and  C_16
REMARK    6  A    between atoms: C_20  and  N_21
REMARK    7  A    between atoms: C_22  and  C_24
REMARK                            x       y       z     vdW  Elec       q    Type
REMARK                         _______ _______ _______ _____ _____    ______ ____
ROOT
ATOM      1  C   UNL     1       0.846   9.850  19.111  0.00  0.00    +0.000 A 
ATOM      2  C   UNL     1       1.212   8.588  19.506  0.00  0.00    +0.000 A 
ATOM      3  C   UNL     1       2.179   8.147  18.563  0.00  0.00    +0.000 A 
ATOM      4  N   UNL     1       2.371   9.084  17.619  0.00  0.00    +0.000 NA
ATOM      5  N   UNL     1       1.554  10.085  17.967  0.00  0.00    +0.000 N 
ATOM      6  H   UNL     1       1.552  10.913  17.386  0.00  0.00    +0.000 HD
ENDROOT
BRANCH   3   7
ATOM      7  C   UNL     1       2.877   6.860  18.556  0.00  0.00    +0.000 A 
ATOM      8  C   UNL     1       2.875   6.039  19.692  0.00  0.00    +0.000 A 
ATOM      9  C   UNL     1       3.510   4.799  19.666  0.00  0.00    +0.000 A 
ATOM     10  C   UNL     1       4.143   4.360  18.504  0.00  0.00    +0.000 A 
ATOM     11  C   UNL     1       4.150   5.156  17.359  0.00  0.00    +0.000 A 
ATOM     12  C   UNL     1       3.536   6.415  17.399  0.00  0.00    +0.000 A 
BRANCH  11  13
ATOM     13  N   UNL     1       4.756   4.760  16.152  0.00  0.00    +0.000 N 
ATOM     14  C   UNL     1       5.624   5.506  15.376  0.00  0.00    +0.000 C 
ATOM     15  O   UNL     1       6.086   6.608  15.642  0.00  0.00    +0.000 OA
ATOM     16  H   UNL     1       4.639   3.792  15.884  0.00  0.00    +0.000 HD
BRANCH  14  17
ATOM     17  C   UNL     1       6.075   4.824  14.134  0.00  0.00    +0.000 A 
ATOM     18  C   UNL     1       5.293   3.838  13.519  0.00  0.00    +0.000 A 
ATOM     19  C   UNL     1       5.761   3.197  12.374  0.00  0.00    +0.000 A 
ATOM     20  C   UNL     1       6.998   3.546  11.834  0.00  0.00    +0.000 A 
ATOM     21  C   UNL     1       7.767   4.546  12.429  0.00  0.00    +0.000 A 
ATOM     22  C   UNL     1       7.304   5.189  13.577  0.00  0.00    +0.000 A 
ENDBRANCH  14  17
ENDBRANCH  11  13
ENDBRANCH   3   7
BRANCH   1  25
ATOM     23  C   UNL     1       0.287  11.518  20.855  0.00  0.00    +0.000 C 
ATOM     24  O   UNL     1       1.416  11.482  21.322  0.00  0.00    +0.000 OA
ATOM     25  N   UNL     1      -0.051  10.730  19.700  0.00  0.00    +0.000 N 
ATOM     26  H   UNL     1      -0.946  10.848  19.252  0.00  0.00    +0.000 HD
BRANCH  23  30
ATOM     27  C   UNL     1      -2.844  14.060  22.394  0.00  0.00    +0.000 A 
ATOM     28  C   UNL     1      -2.937  13.422  21.152  0.00  0.00    +0.000 A 
ATOM     29  C   UNL     1      -1.912  12.606  20.668  0.00  0.00    +0.000 A 
ATOM     30  C   UNL     1      -0.753  12.405  21.424  0.00  0.00    +0.000 A 
ATOM     31  C   UNL     1      -0.632  13.038  22.661  0.00  0.00    +0.000 A 
ATOM     32  C   UNL     1      -1.667  13.851  23.128  0.00  0.00    +0.000 A 
BRANCH  27  37
ATOM     33  C   UNL     1      -6.064  18.250  24.103  0.00  0.00    +0.000 C 
ATOM     34  N   UNL     1      -5.690  16.861  23.862  0.00  0.00    +0.000 NA
ATOM     35  C   UNL     1      -4.455  16.512  24.603  0.00  0.00    +0.000 C 
ATOM     36  C   UNL     1      -4.007  15.049  24.365  0.00  0.00    +0.000 C 
ATOM     37  N   UNL     1      -3.865  14.813  22.921  0.00  0.00    +0.000 N 
ATOM     38  C   UNL     1      -5.068  15.149  22.139  0.00  0.00    +0.000 C 
ATOM     39  C   UNL     1      -5.477  16.612  22.420  0.00  0.00    +0.000 C 
ENDBRANCH  27  37
ENDBRANCH  23  30
ENDBRANCH   1  25
TORSDOF 6
ENDMDL
MODEL 8
REMARK VINA RESULT:      -8.1      1.959      3.118
REMARK  Name = 
REMARK  7 active torsions:
REMARK  status: ('A' for Active; 'I' for Inactive)
REMARK    1  A    between atoms: C_1  and  N_2
REMARK    2  A    between atoms: N_5  and  C_6
REMARK    3  A    between atoms: C_9  and  C_10
REMARK    4  A    between atoms: N_12  and  C_13
REMARK    5  A    between atoms: C_15  and  C_16
REMARK    6  A    between atoms: C_20  and  N_21
REMARK    7  A    between atoms: C_22  and  C_24
REMARK                            x       y       z     vdW  Elec       q    Type
REMARK                         _______ _______ _______ _____ _____    ______ ____
ROOT
ATOM      1  C   UNL     1       2.213   7.117  19.956  0.00  0.00    +0.000 A 
ATOM      2  C   UNL     1       3.278   7.165  19.092  0.00  0.00    +0.000 A 
ATOM      3  C   UNL     1       3.918   5.901  19.189  0.00  0.00    +0.000 A 
ATOM      4  N   UNL     1       3.292   5.129  20.094  0.00  0.00    +0.000 NA
ATOM      5  N   UNL     1       2.284   5.886  20.542  0.00  0.00    +0.000 N 
ATOM      6  H   UNL     1       1.666   5.484  21.234  0.00  0.00    +0.000 HD
ENDROOT
BRANCH   3   7
ATOM      7  C   UNL     1       5.107   5.458  18.457  0.00  0.00    +0.000 A 
ATOM      8  C   UNL     1       6.378   5.536  19.042  0.00  0.00    +0.000 A 
ATOM      9  C   UNL     1       7.500   5.079  18.354  0.00  0.00    +0.000 A 
ATOM     10  C   UNL     1       7.364   4.528  17.080  0.00  0.00    +0.000 A 
ATOM     11  C   UNL     1       6.108   4.432  16.481  0.00  0.00    +0.000 A 
ATOM     12  C   UNL     1       4.986   4.921  17.165  0.00  0.00    +0.000 A 
BRANCH  11  13
ATOM     13  N   UNL     1       5.905   3.870  15.207  0.00  0.00    +0.000 N 
ATOM     14  C   UNL     1       6.435   4.315  14.010  0.00  0.00    +0.000 C 
ATOM     15  O   UNL     1       7.239   5.224  13.855  0.00  0.00    +0.000 OA
ATOM     16  H   UNL     1       5.420   2.983  15.177  0.00  0.00    +0.000 HD
BRANCH  14  17
ATOM     17  C   UNL     1       6.010   3.527  12.823  0.00  0.00    +0.000 A 
ATOM     18  C   UNL     1       4.706   3.613  12.318  0.00  0.00    +0.000 A 
ATOM     19  C   UNL     1       4.334   2.836  11.223  0.00  0.00    +0.000 A 
ATOM     20  C   UNL     1       5.261   1.985  10.624  0.00  0.00    +0.000 A 
ATOM     21  C   UNL     1       6.567   1.916  11.108  0.00  0.00    +0.000 A 
ATOM     22  C   UNL     1       6.945   2.691  12.205  0.00  0.00    +0.000 A 
ENDBRANCH  14  17
ENDBRANCH  11  13
ENDBRANCH   3   7
BRANCH   1  25
ATOM     23  C   UNL     1       1.090   9.255  19.403  0.00  0.00    +0.000 C 
ATOM     24  O   UNL     1       1.762   9.405  18.393  0.00  0.00    +0.000 OA
ATOM     25  N   UNL     1       1.253   8.084  20.222  0.00  0.00    +0.000 N 
ATOM     26  H   UNL     1       0.621   7.911  20.988  0.00  0.00    +0.000 HD
BRANCH  23  30
ATOM     27  C   UNL     1      -1.998  12.105  20.392  0.00  0.00    +0.000 A 
ATOM     28  C   UNL     1      -1.860  11.563  19.110  0.00  0.00    +0.000 A 
ATOM     29  C   UNL     1      -0.851  10.644  18.806  0.00  0.00    +0.000 A 
ATOM     30  C   UNL     1       0.055  10.241  19.792  0.00  0.00    +0.000 A 
ATOM     31  C   UNL     1      -0.056  10.774  21.075  0.00  0.00    +0.000 A 
ATOM     32  C   UNL     1      -1.070  11.692  21.359  0.00  0.00    +0.000 A 
BRANCH  27  37
ATOM     33  C   UNL     1      -6.000  14.842  23.103  0.00  0.00    +0.000 C 
ATOM     34  N   UNL     1      -5.131  14.506  21.980  0.00  0.00    +0.000 NA
ATOM     35  C   UNL     1      -5.335  13.101  21.557  0.00  0.00    +0.000 C 
ATOM     36  C   UNL     1      -4.421  12.691  20.376  0.00  0.00    +0.000 C 
ATOM     37  N   UNL     1      -3.020  12.958  20.731  0.00  0.00    +0.000 N 
ATOM     38  C   UNL     1      -2.766  14.345  21.162  0.00  0.00    +0.000 C 
ATOM     39  C   UNL     1      -3.708  14.704  22.333  0.00  0.00    +0.000 C 
ENDBRANCH  27  37
ENDBRANCH  23  30
ENDBRANCH   1  25
TORSDOF 6
ENDMDL
MODEL 9
REMARK VINA RESULT:      -8.1      0.839      1.089
REMARK  Name = 
REMARK  7 active torsions:
REMARK  status: ('A' for Active; 'I' for Inactive)
REMARK    1  A    between atoms: C_1  and  N_2
REMARK    2  A    between atoms: N_5  and  C_6
REMARK    3  A    between atoms: C_9  and  C_10
REMARK    4  A    between atoms: N_12  and  C_13
REMARK    5  A    between atoms: C_15  and  C_16
REMARK    6  A    between atoms: C_20  and  N_21
REMARK    7  A    between atoms: C_22  and  C_24
REMARK                            x       y       z     vdW  Elec       q    Type
REMARK                         _______ _______ _______ _____ _____    ______ ____
ROOT
ATOM      1  C   UNL     1       1.203   9.482  19.665  0.00  0.00    +0.000 A 
ATOM      2  C   UNL     1       1.816   8.323  20.069  0.00  0.00    +0.000 A 
ATOM      3  C   UNL     1       2.214   7.655  18.880  0.00  0.00    +0.000 A 
ATOM      4  N   UNL     1       1.833   8.359  17.800  0.00  0.00    +0.000 NA
ATOM      5  N   UNL     1       1.223   9.439  18.300  0.00  0.00    +0.000 N 
ATOM      6  H   UNL     1       0.865  10.123  17.645  0.00  0.00    +0.000 HD
ENDROOT
BRANCH   3   7
ATOM      7  C   UNL     1       2.914   6.372  18.783  0.00  0.00    +0.000 A 
ATOM      8  C   UNL     1       2.884   5.460  19.847  0.00  0.00    +0.000 A 
ATOM      9  C   UNL     1       3.521   4.226  19.736  0.00  0.00    +0.000 A 
ATOM     10  C   UNL     1       4.183   3.884  18.557  0.00  0.00    +0.000 A 
ATOM     11  C   UNL     1       4.219   4.772  17.482  0.00  0.00    +0.000 A 
ATOM     12  C   UNL     1       3.601   6.024  17.610  0.00  0.00    +0.000 A 
BRANCH  11  13
ATOM     13  N   UNL     1       4.854   4.477  16.262  0.00  0.00    +0.000 N 
ATOM     14  C   UNL     1       5.435   5.380  15.390  0.00  0.00    +0.000 C 
ATOM     15  O   UNL     1       5.573   6.584  15.562  0.00  0.00    +0.000 OA
ATOM     16  H   UNL     1       5.008   3.499  16.057  0.00  0.00    +0.000 HD
BRANCH  14  17
ATOM     17  C   UNL     1       6.003   4.765  14.161  0.00  0.00    +0.000 A 
ATOM     18  C   UNL     1       7.263   5.136  13.675  0.00  0.00    +0.000 A 
ATOM     19  C   UNL     1       7.750   4.561  12.503  0.00  0.00    +0.000 A 
ATOM     20  C   UNL     1       6.990   3.611  11.823  0.00  0.00    +0.000 A 
ATOM     21  C   UNL     1       5.747   3.221  12.318  0.00  0.00    +0.000 A 
ATOM     22  C   UNL     1       5.253   3.794  13.490  0.00  0.00    +0.000 A 
ENDBRANCH  14  17
ENDBRANCH  11  13
ENDBRANCH   3   7
BRANCH   1  25
ATOM     23  C   UNL     1      -0.582  11.147  20.086  0.00  0.00    +0.000 C 
ATOM     24  O   UNL     1      -1.230  10.770  19.121  0.00  0.00    +0.000 OA
ATOM     25  N   UNL     1       0.655  10.500  20.433  0.00  0.00    +0.000 N 
ATOM     26  H   UNL     1       1.127  10.739  21.291  0.00  0.00    +0.000 HD
BRANCH  23  30
ATOM     27  C   UNL     1      -1.989  14.238  22.751  0.00  0.00    +0.000 A 
ATOM     28  C   UNL     1      -1.890  12.899  23.142  0.00  0.00    +0.000 A 
ATOM     29  C   UNL     1      -1.436  11.911  22.264  0.00  0.00    +0.000 A 
ATOM     30  C   UNL     1      -1.065  12.244  20.958  0.00  0.00    +0.000 A 
ATOM     31  C   UNL     1      -1.164  13.571  20.541  0.00  0.00    +0.000 A 
ATOM     32  C   UNL     1      -1.621  14.544  21.433  0.00  0.00    +0.000 A 
BRANCH  27  37
ATOM     33  C   UNL     1      -4.621  18.470  25.205  0.00  0.00    +0.000 C 
ATOM     34  N   UNL     1      -3.612  17.426  25.054  0.00  0.00    +0.000 NA
ATOM     35  C   UNL     1      -2.797  17.652  23.838  0.00  0.00    +0.000 C 
ATOM     36  C   UNL     1      -1.722  16.558  23.626  0.00  0.00    +0.000 C 
ATOM     37  N   UNL     1      -2.368  15.237  23.614  0.00  0.00    +0.000 N 
ATOM     38  C   UNL     1      -3.195  14.966  24.804  0.00  0.00    +0.000 C 
ATOM     39  C   UNL     1      -4.242  16.089  24.975  0.00  0.00    +0.000 C 
ENDBRANCH  27  37
ENDBRANCH  23  30
ENDBRANCH   1  25
TORSDOF 6
ENDMDL
