MODEL 1
REMARK VINA RESULT:      -5.8      0.000      0.000
REMARK  Name = 
REMARK  11 active torsions:
REMARK  status: ('A' for Active; 'I' for Inactive)
REMARK    1  A    between atoms: C_1  and  C_2
REMARK    2  A    between atoms: C_2  and  C_3
REMARK    3  A    between atoms: C_2  and  C_4
REMARK    4  A    between atoms: C_2  and  C_6
REMARK    5  A    between atoms: C_4  and  O_5
REMARK    6  A    between atoms: C_6  and  O_7
REMARK    7  A    between atoms: C_6  and  C_8
REMARK    8  A    between atoms: N_10  and  C_11
REMARK    9  A    between atoms: C_11  and  C_12
REMARK   10  A    between atoms: C_12  and  S_13
REMARK   11  A    between atoms: S_13  and  O_16
REMARK                            x       y       z     vdW  Elec       q    Type
REMARK                         _______ _______ _______ _____ _____    ______ ____
ROOT
ATOM      1  C   UNL     1       4.172   4.759  19.456  0.00  0.00    +0.000 C 
ATOM      2  O   UNL     1       3.838   5.921  19.657  0.00  0.00    +0.000 OA
ATOM      3  N   UNL     1       5.380   4.458  18.855  0.00  0.00    +0.000 N 
ATOM      4  H   UNL     1       5.483   3.526  18.462  0.00  0.00    +0.000 HD
ENDROOT
BRANCH   1   5
ATOM      5  C   UNL     1       3.321   3.531  19.850  0.00  0.00    +0.000 C 
BRANCH   5   7
ATOM      6  C   UNL     1       2.216   4.136  17.643  0.00  0.00    +0.000 C 
ATOM      7  C   UNL     1       2.361   3.035  18.722  0.00  0.00    +0.000 C 
ATOM      8  C   UNL     1       0.940   2.752  19.257  0.00  0.00    +0.000 C 
BRANCH   7   9
ATOM      9  C   UNL     1       2.968   1.780  18.041  0.00  0.00    +0.000 C 
BRANCH   9  10
ATOM     10  O   UNL     1       4.279   2.028  17.547  0.00  0.00    +0.000 OA
ATOM     11  H   UNL     1       4.209   2.082  16.578  0.00  0.00    +0.000 HD
ENDBRANCH   9  10
ENDBRANCH   7   9
ENDBRANCH   5   7
BRANCH   5  12
ATOM     12  O   UNL     1       4.188   2.496  20.326  0.00  0.00    +0.000 OA
ATOM     13  H   UNL     1       3.707   2.001  21.012  0.00  0.00    +0.000 HD
ENDBRANCH   5  12
ENDBRANCH   1   5
BRANCH   3  14
ATOM     14  C   UNL     1       6.233   5.566  18.459  0.00  0.00    +0.000 C 
BRANCH  14  15
ATOM     15  C   UNL     1       6.103   5.951  17.006  0.00  0.00    +0.000 C 
BRANCH  15  16
ATOM     16  S   UNL     1       6.902   4.711  16.006  0.00  0.00    +0.000 S 
ATOM     17  O   UNL     1       6.016   3.588  15.817  0.00  0.00    +0.000 OA
ATOM     18  O   UNL     1       7.621   5.343  14.923  0.00  0.00    +0.000 OA
BRANCH  16  19
ATOM     19  O   UNL     1       7.980   4.224  17.110  0.00  0.00    +0.000 OA
ATOM     20  H   UNL     1       8.031   3.243  17.067  0.00  0.00    +0.000 HD
ENDBRANCH  16  19
ENDBRANCH  15  16
ENDBRANCH  14  15
ENDBRANCH   3  14
TORSDOF 9
ENDMDL
MODEL 2
REMARK VINA RESULT:      -5.8      1.180      1.545
REMARK  Name = 
REMARK  11 active torsions:
REMARK  status: ('A' for Active; 'I' for Inactive)
REMARK    1  A    between atoms: C_1  and  C_2
REMARK    2  A    between atoms: C_2  and  C_3
REMARK    3  A    between atoms: C_2  and  C_4
REMARK    4  A    between atoms: C_2  and  C_6
REMARK    5  A    between atoms: C_4  and  O_5
REMARK    6  A    between atoms: C_6  and  O_7
REMARK    7  A    between atoms: C_6  and  C_8
REMARK    8  A    between atoms: N_10  and  C_11
REMARK    9  A    between atoms: C_11  and  C_12
REMARK   10  A    between atoms: C_12  and  S_13
REMARK   11  A    between atoms: S_13  and  O_16
REMARK                            x       y       z     vdW  Elec       q    Type
REMARK                         _______ _______ _______ _____ _____    ______ ____
ROOT
ATOM      1  C   UNL     1       4.594   4.206  19.442  0.00  0.00    +0.000 C 
ATOM      2  O   UNL     1       4.461   5.335  19.902  0.00  0.00    +0.000 OA
ATOM      3  N   UNL     1       5.731   3.854  18.738  0.00  0.00    +0.000 N 
ATOM      4  H   UNL     1       5.675   3.026  18.150  0.00  0.00    +0.000 HD
ENDROOT
BRANCH   1   5
ATOM      5  C   UNL     1       3.555   3.075  19.602  0.00  0.00    +0.000 C 
BRANCH   5   7
ATOM      6  C   UNL     1       1.374   4.308  20.027  0.00  0.00    +0.000 C 
ATOM      7  C   UNL     1       2.146   3.420  19.022  0.00  0.00    +0.000 C 
ATOM      8  C   UNL     1       1.288   2.156  18.800  0.00  0.00    +0.000 C 
BRANCH   7   9
ATOM      9  C   UNL     1       2.312   4.227  17.706  0.00  0.00    +0.000 C 
BRANCH   9  10
ATOM     10  O   UNL     1       3.234   3.606  16.818  0.00  0.00    +0.000 OA
ATOM     11  H   UNL     1       2.707   3.180  16.119  0.00  0.00    +0.000 HD
ENDBRANCH   9  10
ENDBRANCH   7   9
ENDBRANCH   5   7
BRANCH   5  12
ATOM     12  O   UNL     1       4.092   1.866  19.053  0.00  0.00    +0.000 OA
ATOM     13  H   UNL     1       4.933   1.684  19.507  0.00  0.00    +0.000 HD
ENDBRANCH   5  12
ENDBRANCH   1   5
BRANCH   3  14
ATOM     14  C   UNL     1       6.753   4.870  18.550  0.00  0.00    +0.000 C 
BRANCH  14  15
ATOM     15  C   UNL     1       7.601   4.666  17.320  0.00  0.00    +0.000 C 
BRANCH  15  16
ATOM     16  S   UNL     1       6.587   4.895  15.873  0.00  0.00    +0.000 S 
ATOM     17  O   UNL     1       5.409   5.655  16.215  0.00  0.00    +0.000 OA
ATOM     18  O   UNL     1       7.420   5.198  14.732  0.00  0.00    +0.000 OA
BRANCH  16  19
ATOM     19  O   UNL     1       6.081   3.364  15.737  0.00  0.00    +0.000 OA
ATOM     20  H   UNL     1       5.756   3.076  16.619  0.00  0.00    +0.000 HD
ENDBRANCH  16  19
ENDBRANCH  15  16
ENDBRANCH  14  15
ENDBRANCH   3  14
TORSDOF 9
ENDMDL
MODEL 3
REMARK VINA RESULT:      -5.8      1.672      2.426
REMARK  Name = 
REMARK  11 active torsions:
REMARK  status: ('A' for Active; 'I' for Inactive)
REMARK    1  A    between atoms: C_1  and  C_2
REMARK    2  A    between atoms: C_2  and  C_3
REMARK    3  A    between atoms: C_2  and  C_4
REMARK    4  A    between atoms: C_2  and  C_6
REMARK    5  A    between atoms: C_4  and  O_5
REMARK    6  A    between atoms: C_6  and  O_7
REMARK    7  A    between atoms: C_6  and  C_8
REMARK    8  A    between atoms: N_10  and  C_11
REMARK    9  A    between atoms: C_11  and  C_12
REMARK   10  A    between atoms: C_12  and  S_13
REMARK   11  A    between atoms: S_13  and  O_16
REMARK                            x       y       z     vdW  Elec       q    Type
REMARK                         _______ _______ _______ _____ _____    ______ ____
ROOT
ATOM      1  C   UNL     1       2.631   5.037  18.452  0.00  0.00    +0.000 C 
ATOM      2  O   UNL     1       2.005   4.878  17.411  0.00  0.00    +0.000 OA
ATOM      3  N   UNL     1       3.891   5.607  18.448  0.00  0.00    +0.000 N 
ATOM      4  H   UNL     1       4.469   5.460  19.271  0.00  0.00    +0.000 HD
ENDROOT
BRANCH   1   5
ATOM      5  C   UNL     1       2.101   4.650  19.851  0.00  0.00    +0.000 C 
BRANCH   5   7
ATOM      6  C   UNL     1       0.686   2.592  19.376  0.00  0.00    +0.000 C 
ATOM      7  C   UNL     1       1.967   3.109  20.075  0.00  0.00    +0.000 C 
ATOM      8  C   UNL     1       1.827   2.754  21.571  0.00  0.00    +0.000 C 
BRANCH   7   9
ATOM      9  C   UNL     1       3.181   2.386  19.434  0.00  0.00    +0.000 C 
BRANCH   9  10
ATOM     10  O   UNL     1       4.417   2.863  19.956  0.00  0.00    +0.000 OA
ATOM     11  H   UNL     1       4.812   2.129  20.457  0.00  0.00    +0.000 HD
ENDBRANCH   9  10
ENDBRANCH   7   9
ENDBRANCH   5   7
BRANCH   5  12
ATOM     12  O   UNL     1       2.912   5.279  20.849  0.00  0.00    +0.000 OA
ATOM     13  H   UNL     1       3.709   5.622  20.408  0.00  0.00    +0.000 HD
ENDBRANCH   5  12
ENDBRANCH   1   5
BRANCH   3  14
ATOM     14  C   UNL     1       4.452   5.997  17.165  0.00  0.00    +0.000 C 
BRANCH  14  15
ATOM     15  C   UNL     1       5.947   6.191  17.183  0.00  0.00    +0.000 C 
BRANCH  15  16
ATOM     16  S   UNL     1       6.716   4.708  17.804  0.00  0.00    +0.000 S 
ATOM     17  O   UNL     1       7.941   4.453  17.085  0.00  0.00    +0.000 OA
ATOM     18  O   UNL     1       6.622   4.672  19.245  0.00  0.00    +0.000 OA
BRANCH  16  19
ATOM     19  O   UNL     1       5.642   3.657  17.201  0.00  0.00    +0.000 OA
ATOM     20  H   UNL     1       5.731   2.817  17.703  0.00  0.00    +0.000 HD
ENDBRANCH  16  19
ENDBRANCH  15  16
ENDBRANCH  14  15
ENDBRANCH   3  14
TORSDOF 9
ENDMDL
MODEL 4
REMARK VINA RESULT:      -5.7      1.067      1.515
REMARK  Name = 
REMARK  11 active torsions:
REMARK  status: ('A' for Active; 'I' for Inactive)
REMARK    1  A    between atoms: C_1  and  C_2
REMARK    2  A    between atoms: C_2  and  C_3
REMARK    3  A    between atoms: C_2  and  C_4
REMARK    4  A    between atoms: C_2  and  C_6
REMARK    5  A    between atoms: C_4  and  O_5
REMARK    6  A    between atoms: C_6  and  O_7
REMARK    7  A    between atoms: C_6  and  C_8
REMARK    8  A    between atoms: N_10  and  C_11
REMARK    9  A    between atoms: C_11  and  C_12
REMARK   10  A    between atoms: C_12  and  S_13
REMARK   11  A    between atoms: S_13  and  O_16
REMARK                            x       y       z     vdW  Elec       q    Type
REMARK                         _______ _______ _______ _____ _____    ______ ____
ROOT
ATOM      1  C   UNL     1       4.408   4.021  19.463  0.00  0.00    +0.000 C 
ATOM      2  O   UNL     1       5.303   3.184  19.475  0.00  0.00    +0.000 OA
ATOM      3  N   UNL     1       4.664   5.334  19.116  0.00  0.00    +0.000 N 
ATOM      4  H   UNL     1       3.975   6.030  19.388  0.00  0.00    +0.000 HD
ENDROOT
BRANCH   1   5
ATOM      5  C   UNL     1       2.932   3.719  19.806  0.00  0.00    +0.000 C 
BRANCH   5   7
ATOM      6  C   UNL     1       1.682   4.457  17.719  0.00  0.00    +0.000 C 
ATOM      7  C   UNL     1       2.082   3.238  18.585  0.00  0.00    +0.000 C 
ATOM      8  C   UNL     1       0.767   2.561  19.029  0.00  0.00    +0.000 C 
BRANCH   7   9
ATOM      9  C   UNL     1       2.936   2.288  17.703  0.00  0.00    +0.000 C 
BRANCH   9  10
ATOM     10  O   UNL     1       3.297   1.101  18.400  0.00  0.00    +0.000 OA
ATOM     11  H   UNL     1       4.267   1.111  18.488  0.00  0.00    +0.000 HD
ENDBRANCH   9  10
ENDBRANCH   7   9
ENDBRANCH   5   7
BRANCH   5  12
ATOM     12  O   UNL     1       2.886   2.798  20.901  0.00  0.00    +0.000 OA
ATOM     13  H   UNL     1       2.033   2.919  21.353  0.00  0.00    +0.000 HD
ENDBRANCH   5  12
ENDBRANCH   1   5
BRANCH   3  14
ATOM     14  C   UNL     1       6.033   5.690  18.779  0.00  0.00    +0.000 C 
BRANCH  14  15
ATOM     15  C   UNL     1       6.232   6.054  17.328  0.00  0.00    +0.000 C 
BRANCH  15  16
ATOM     16  S   UNL     1       6.947   4.662  16.475  0.00  0.00    +0.000 S 
ATOM     17  O   UNL     1       8.118   4.203  17.182  0.00  0.00    +0.000 OA
ATOM     18  O   UNL     1       5.901   3.777  16.018  0.00  0.00    +0.000 OA
BRANCH  16  19
ATOM     19  O   UNL     1       7.514   5.478  15.198  0.00  0.00    +0.000 OA
ATOM     20  H   UNL     1       7.991   4.840  14.623  0.00  0.00    +0.000 HD
ENDBRANCH  16  19
ENDBRANCH  15  16
ENDBRANCH  14  15
ENDBRANCH   3  14
TORSDOF 9
ENDMDL
MODEL 5
REMARK VINA RESULT:      -5.7      1.122      1.244
REMARK  Name = 
REMARK  11 active torsions:
REMARK  status: ('A' for Active; 'I' for Inactive)
REMARK    1  A    between atoms: C_1  and  C_2
REMARK    2  A    between atoms: C_2  and  C_3
REMARK    3  A    between atoms: C_2  and  C_4
REMARK    4  A    between atoms: C_2  and  C_6
REMARK    5  A    between atoms: C_4  and  O_5
REMARK    6  A    between atoms: C_6  and  O_7
REMARK    7  A    between atoms: C_6  and  C_8
REMARK    8  A    between atoms: N_10  and  C_11
REMARK    9  A    between atoms: C_11  and  C_12
REMARK   10  A    between atoms: C_12  and  S_13
REMARK   11  A    between atoms: S_13  and  O_16
REMARK                            x       y       z     vdW  Elec       q    Type
REMARK                         _______ _______ _______ _____ _____    ______ ____
ROOT
ATOM      1  C   UNL     1       4.071   4.647  19.102  0.00  0.00    +0.000 C 
ATOM      2  O   UNL     1       4.022   5.794  19.529  0.00  0.00    +0.000 OA
ATOM      3  N   UNL     1       4.377   4.391  17.778  0.00  0.00    +0.000 N 
ATOM      4  H   UNL     1       4.132   3.474  17.414  0.00  0.00    +0.000 HD
ENDROOT
BRANCH   1   5
ATOM      5  C   UNL     1       3.824   3.388  19.964  0.00  0.00    +0.000 C 
BRANCH   5   7
ATOM      6  C   UNL     1       1.431   4.016  19.381  0.00  0.00    +0.000 C 
ATOM      7  C   UNL     1       2.336   2.911  19.978  0.00  0.00    +0.000 C 
ATOM      8  C   UNL     1       1.827   2.651  21.412  0.00  0.00    +0.000 C 
BRANCH   7   9
ATOM      9  C   UNL     1       2.190   1.647  19.089  0.00  0.00    +0.000 C 
BRANCH   9  10
ATOM     10  O   UNL     1       2.398   1.941  17.713  0.00  0.00    +0.000 OA
ATOM     11  H   UNL     1       3.283   2.339  17.641  0.00  0.00    +0.000 HD
ENDBRANCH   9  10
ENDBRANCH   7   9
ENDBRANCH   5   7
BRANCH   5  12
ATOM     12  O   UNL     1       4.726   2.355  19.553  0.00  0.00    +0.000 OA
ATOM     13  H   UNL     1       4.450   2.058  18.668  0.00  0.00    +0.000 HD
ENDBRANCH   5  12
ENDBRANCH   1   5
BRANCH   3  14
ATOM     14  C   UNL     1       4.624   5.530  16.909  0.00  0.00    +0.000 C 
BRANCH  14  15
ATOM     15  C   UNL     1       6.079   5.907  16.792  0.00  0.00    +0.000 C 
BRANCH  15  16
ATOM     16  S   UNL     1       6.919   4.680  15.809  0.00  0.00    +0.000 S 
ATOM     17  O   UNL     1       6.034   3.569  15.552  0.00  0.00    +0.000 OA
ATOM     18  O   UNL     1       7.698   5.326  14.778  0.00  0.00    +0.000 OA
BRANCH  16  19
ATOM     19  O   UNL     1       7.933   4.160  16.958  0.00  0.00    +0.000 OA
ATOM     20  H   UNL     1       8.298   3.296  16.666  0.00  0.00    +0.000 HD
ENDBRANCH  16  19
ENDBRANCH  15  16
ENDBRANCH  14  15
ENDBRANCH   3  14
TORSDOF 9
ENDMDL
MODEL 6
REMARK VINA RESULT:      -5.6      1.248      2.316
REMARK  Name = 
REMARK  11 active torsions:
REMARK  status: ('A' for Active; 'I' for Inactive)
REMARK    1  A    between atoms: C_1  and  C_2
REMARK    2  A    between atoms: C_2  and  C_3
REMARK    3  A    between atoms: C_2  and  C_4
REMARK    4  A    between atoms: C_2  and  C_6
REMARK    5  A    between atoms: C_4  and  O_5
REMARK    6  A    between atoms: C_6  and  O_7
REMARK    7  A    between atoms: C_6  and  C_8
REMARK    8  A    between atoms: N_10  and  C_11
REMARK    9  A    between atoms: C_11  and  C_12
REMARK   10  A    between atoms: C_12  and  S_13
REMARK   11  A    between atoms: S_13  and  O_16
REMARK                            x       y       z     vdW  Elec       q    Type
REMARK                         _______ _______ _______ _____ _____    ______ ____
ROOT
ATOM      1  C   UNL     1       4.471   4.170  19.282  0.00  0.00    +0.000 C 
ATOM      2  O   UNL     1       4.318   5.290  19.755  0.00  0.00    +0.000 OA
ATOM      3  N   UNL     1       5.619   3.842  18.583  0.00  0.00    +0.000 N 
ATOM      4  H   UNL     1       5.579   3.022  17.984  0.00  0.00    +0.000 HD
ENDROOT
BRANCH   1   5
ATOM      5  C   UNL     1       3.446   3.022  19.416  0.00  0.00    +0.000 C 
BRANCH   5   7
ATOM      6  C   UNL     1       1.139   2.219  18.714  0.00  0.00    +0.000 C 
ATOM      7  C   UNL     1       1.970   3.454  19.140  0.00  0.00    +0.000 C 
ATOM      8  C   UNL     1       1.875   4.471  17.982  0.00  0.00    +0.000 C 
BRANCH   7   9
ATOM      9  C   UNL     1       1.344   4.021  20.442  0.00  0.00    +0.000 C 
BRANCH   9  10
ATOM     10  O   UNL     1       1.496   5.433  20.531  0.00  0.00    +0.000 OA
ATOM     11  H   UNL     1       2.453   5.611  20.561  0.00  0.00    +0.000 HD
ENDBRANCH   9  10
ENDBRANCH   7   9
ENDBRANCH   5   7
BRANCH   5  12
ATOM     12  O   UNL     1       3.859   1.927  18.592  0.00  0.00    +0.000 OA
ATOM     13  H   UNL     1       4.410   2.288  17.875  0.00  0.00    +0.000 HD
ENDBRANCH   5  12
ENDBRANCH   1   5
BRANCH   3  14
ATOM     14  C   UNL     1       6.629   4.874  18.419  0.00  0.00    +0.000 C 
BRANCH  14  15
ATOM     15  C   UNL     1       7.604   4.606  17.300  0.00  0.00    +0.000 C 
BRANCH  15  16
ATOM     16  S   UNL     1       6.746   4.729  15.743  0.00  0.00    +0.000 S 
ATOM     17  O   UNL     1       7.594   5.368  14.765  0.00  0.00    +0.000 OA
ATOM     18  O   UNL     1       6.021   3.506  15.483  0.00  0.00    +0.000 OA
BRANCH  16  19
ATOM     19  O   UNL     1       5.681   5.863  16.188  0.00  0.00    +0.000 OA
ATOM     20  H   UNL     1       4.986   5.911  15.495  0.00  0.00    +0.000 HD
ENDBRANCH  16  19
ENDBRANCH  15  16
ENDBRANCH  14  15
ENDBRANCH   3  14
TORSDOF 9
ENDMDL
MODEL 7
REMARK VINA RESULT:      -5.6      1.225      1.640
REMARK  Name = 
REMARK  11 active torsions:
REMARK  status: ('A' for Active; 'I' for Inactive)
REMARK    1  A    between atoms: C_1  and  C_2
REMARK    2  A    between atoms: C_2  and  C_3
REMARK    3  A    between atoms: C_2  and  C_4
REMARK    4  A    between atoms: C_2  and  C_6
REMARK    5  A    between atoms: C_4  and  O_5
REMARK    6  A    between atoms: C_6  and  O_7
REMARK    7  A    between atoms: C_6  and  C_8
REMARK    8  A    between atoms: N_10  and  C_11
REMARK    9  A    between atoms: C_11  and  C_12
REMARK   10  A    between atoms: C_12  and  S_13
REMARK   11  A    between atoms: S_13  and  O_16
REMARK                            x       y       z     vdW  Elec       q    Type
REMARK                         _______ _______ _______ _____ _____    ______ ____
ROOT
ATOM      1  C   UNL     1       4.305   4.587  19.568  0.00  0.00    +0.000 C 
ATOM      2  O   UNL     1       3.847   5.709  19.756  0.00  0.00    +0.000 OA
ATOM      3  N   UNL     1       5.604   4.412  19.129  0.00  0.00    +0.000 N 
ATOM      4  H   UNL     1       5.840   3.509  18.725  0.00  0.00    +0.000 HD
ENDROOT
BRANCH   1   5
ATOM      5  C   UNL     1       3.520   3.278  19.805  0.00  0.00    +0.000 C 
BRANCH   5   7
ATOM      6  C   UNL     1       1.994   4.071  17.933  0.00  0.00    +0.000 C 
ATOM      7  C   UNL     1       2.047   3.318  19.285  0.00  0.00    +0.000 C 
ATOM      8  C   UNL     1       1.114   4.079  20.251  0.00  0.00    +0.000 C 
BRANCH   7   9
ATOM      9  C   UNL     1       1.545   1.869  19.041  0.00  0.00    +0.000 C 
BRANCH   9  10
ATOM     10  O   UNL     1       0.301   1.849  18.351  0.00  0.00    +0.000 OA
ATOM     11  H   UNL     1      -0.386   2.075  19.003  0.00  0.00    +0.000 HD
ENDBRANCH   9  10
ENDBRANCH   7   9
ENDBRANCH   5   7
BRANCH   5  12
ATOM     12  O   UNL     1       4.263   2.182  19.261  0.00  0.00    +0.000 OA
ATOM     13  H   UNL     1       4.373   2.345  18.308  0.00  0.00    +0.000 HD
ENDBRANCH   5  12
ENDBRANCH   1   5
BRANCH   3  14
ATOM     14  C   UNL     1       6.403   5.602  18.887  0.00  0.00    +0.000 C 
BRANCH  14  15
ATOM     15  C   UNL     1       6.418   6.048  17.446  0.00  0.00    +0.000 C 
BRANCH  15  16
ATOM     16  S   UNL     1       7.224   4.799  16.463  0.00  0.00    +0.000 S 
ATOM     17  O   UNL     1       7.462   5.303  15.131  0.00  0.00    +0.000 OA
ATOM     18  O   UNL     1       8.236   4.132  17.249  0.00  0.00    +0.000 OA
BRANCH  16  19
ATOM     19  O   UNL     1       5.956   3.804  16.321  0.00  0.00    +0.000 OA
ATOM     20  H   UNL     1       5.474   4.047  15.500  0.00  0.00    +0.000 HD
ENDBRANCH  16  19
ENDBRANCH  15  16
ENDBRANCH  14  15
ENDBRANCH   3  14
TORSDOF 9
ENDMDL
MODEL 8
REMARK VINA RESULT:      -5.6      0.987      1.562
REMARK  Name = 
REMARK  11 active torsions:
REMARK  status: ('A' for Active; 'I' for Inactive)
REMARK    1  A    between atoms: C_1  and  C_2
REMARK    2  A    between atoms: C_2  and  C_3
REMARK    3  A    between atoms: C_2  and  C_4
REMARK    4  A    between atoms: C_2  and  C_6
REMARK    5  A    between atoms: C_4  and  O_5
REMARK    6  A    between atoms: C_6  and  O_7
REMARK    7  A    between atoms: C_6  and  C_8
REMARK    8  A    between atoms: N_10  and  C_11
REMARK    9  A    between atoms: C_11  and  C_12
REMARK   10  A    between atoms: C_12  and  S_13
REMARK   11  A    between atoms: S_13  and  O_16
REMARK                            x       y       z     vdW  Elec       q    Type
REMARK                         _______ _______ _______ _____ _____    ______ ____
ROOT
ATOM      1  C   UNL     1       4.405   4.720  19.299  0.00  0.00    +0.000 C 
ATOM      2  O   UNL     1       3.965   5.812  19.638  0.00  0.00    +0.000 OA
ATOM      3  N   UNL     1       5.540   4.620  18.515  0.00  0.00    +0.000 N 
ATOM      4  H   UNL     1       5.697   3.737  18.036  0.00  0.00    +0.000 HD
ENDROOT
BRANCH   1   5
ATOM      5  C   UNL     1       3.779   3.367  19.706  0.00  0.00    +0.000 C 
BRANCH   5   7
ATOM      6  C   UNL     1       3.123   1.891  17.743  0.00  0.00    +0.000 C 
ATOM      7  C   UNL     1       2.602   2.911  18.785  0.00  0.00    +0.000 C 
ATOM      8  C   UNL     1       2.003   4.090  17.988  0.00  0.00    +0.000 C 
BRANCH   7   9
ATOM      9  C   UNL     1       1.520   2.202  19.643  0.00  0.00    +0.000 C 
BRANCH   9  10
ATOM     10  O   UNL     1       0.705   3.135  20.344  0.00  0.00    +0.000 OA
ATOM     11  H   UNL     1       1.270   3.901  20.551  0.00  0.00    +0.000 HD
ENDBRANCH   9  10
ENDBRANCH   7   9
ENDBRANCH   5   7
BRANCH   5  12
ATOM     12  O   UNL     1       4.814   2.382  19.799  0.00  0.00    +0.000 OA
ATOM     13  H   UNL     1       5.107   2.175  18.895  0.00  0.00    +0.000 HD
ENDBRANCH   5  12
ENDBRANCH   1   5
BRANCH   3  14
ATOM     14  C   UNL     1       6.183   5.855  18.097  0.00  0.00    +0.000 C 
BRANCH  14  15
ATOM     15  C   UNL     1       6.102   6.116  16.613  0.00  0.00    +0.000 C 
BRANCH  15  16
ATOM     16  S   UNL     1       6.896   4.778  15.745  0.00  0.00    +0.000 S 
ATOM     17  O   UNL     1       6.005   3.644  15.673  0.00  0.00    +0.000 OA
ATOM     18  O   UNL     1       7.616   5.292  14.603  0.00  0.00    +0.000 OA
BRANCH  16  19
ATOM     19  O   UNL     1       7.972   4.402  16.894  0.00  0.00    +0.000 OA
ATOM     20  H   UNL     1       7.520   4.476  17.764  0.00  0.00    +0.000 HD
ENDBRANCH  16  19
ENDBRANCH  15  16
ENDBRANCH  14  15
ENDBRANCH   3  14
TORSDOF 9
ENDMDL
MODEL 9
REMARK VINA RESULT:      -5.6      1.222      1.873
REMARK  Name = 
REMARK  11 active torsions:
REMARK  status: ('A' for Active; 'I' for Inactive)
REMARK    1  A    between atoms: C_1  and  C_2
REMARK    2  A    between atoms: C_2  and  C_3
REMARK    3  A    between atoms: C_2  and  C_4
REMARK    4  A    between atoms: C_2  and  C_6
REMARK    5  A    between atoms: C_4  and  O_5
REMARK    6  A    between atoms: C_6  and  O_7
REMARK    7  A    between atoms: C_6  and  C_8
REMARK    8  A    between atoms: N_10  and  C_11
REMARK    9  A    between atoms: C_11  and  C_12
REMARK   10  A    between atoms: C_12  and  S_13
REMARK   11  A    between atoms: S_13  and  O_16
REMARK                            x       y       z     vdW  Elec       q    Type
REMARK                         _______ _______ _______ _____ _____    ______ ____
ROOT
ATOM      1  C   UNL     1       4.217   4.610  19.501  0.00  0.00    +0.000 C 
ATOM      2  O   UNL     1       3.979   5.807  19.619  0.00  0.00    +0.000 OA
ATOM      3  N   UNL     1       5.466   4.168  19.104  0.00  0.00    +0.000 N 
ATOM      4  H   UNL     1       5.531   3.215  18.755  0.00  0.00    +0.000 HD
ENDROOT
BRANCH   1   5
ATOM      5  C   UNL     1       3.194   3.489  19.788  0.00  0.00    +0.000 C 
BRANCH   5   7
ATOM      6  C   UNL     1       2.929   2.072  17.695  0.00  0.00    +0.000 C 
ATOM      7  C   UNL     1       2.263   3.154  18.579  0.00  0.00    +0.000 C 
ATOM      8  C   UNL     1       2.031   4.383  17.673  0.00  0.00    +0.000 C 
BRANCH   7   9
ATOM      9  C   UNL     1       0.921   2.579  19.103  0.00  0.00    +0.000 C 
BRANCH   9  10
ATOM     10  O   UNL     1       0.469   3.265  20.265  0.00  0.00    +0.000 OA
ATOM     11  H   UNL     1      -0.504   3.269  20.228  0.00  0.00    +0.000 HD
ENDBRANCH   9  10
ENDBRANCH   7   9
ENDBRANCH   5   7
BRANCH   5  12
ATOM     12  O   UNL     1       3.889   2.337  20.279  0.00  0.00    +0.000 OA
ATOM     13  H   UNL     1       4.435   2.621  21.033  0.00  0.00    +0.000 HD
ENDBRANCH   5  12
ENDBRANCH   1   5
BRANCH   3  14
ATOM     14  C   UNL     1       6.479   5.170  18.819  0.00  0.00    +0.000 C 
BRANCH  14  15
ATOM     15  C   UNL     1       7.405   4.801  17.686  0.00  0.00    +0.000 C 
BRANCH  15  16
ATOM     16  S   UNL     1       6.527   4.962  16.144  0.00  0.00    +0.000 S 
ATOM     17  O   UNL     1       5.335   5.753  16.339  0.00  0.00    +0.000 OA
ATOM     18  O   UNL     1       7.462   5.194  15.068  0.00  0.00    +0.000 OA
BRANCH  16  19
ATOM     19  O   UNL     1       6.010   3.432  16.045  0.00  0.00    +0.000 OA
ATOM     20  H   UNL     1       5.042   3.452  15.878  0.00  0.00    +0.000 HD
ENDBRANCH  16  19
ENDBRANCH  15  16
ENDBRANCH  14  15
ENDBRANCH   3  14
TORSDOF 9
ENDMDL
