MODEL 1
REMARK VINA RESULT:      -8.0      0.000      0.000
REMARK  Name = 
REMARK  5 active torsions:
REMARK  status: ('A' for Active; 'I' for Inactive)
REMARK    1  A    between atoms: C_2  and  O_3
REMARK    2  A    between atoms: C_2  and  C_4
REMARK    3  A    between atoms: C_9  and  N_10
REMARK    4  A    between atoms: N_10  and  C_11
REMARK    5  A    between atoms: C_14  and  N_15
REMARK                            x       y       z     vdW  Elec       q    Type
REMARK                         _______ _______ _______ _____ _____    ______ ____
ROOT
ATOM      1  N   UNL     1       4.845   4.890  19.299  0.00  0.00    +0.000 N 
ATOM      2  H   UNL     1       5.525   4.476  19.950  0.00  0.00    +0.000 HD
ENDROOT
BRANCH   1   8
ATOM      3  C   UNL     1       3.115   3.150  19.687  0.00  0.00    +0.000 A 
ATOM      4  C   UNL     1       1.800   2.800  20.046  0.00  0.00    +0.000 A 
ATOM      5  C   UNL     1       0.890   3.778  20.441  0.00  0.00    +0.000 A 
ATOM      6  C   UNL     1       1.304   5.099  20.534  0.00  0.00    +0.000 A 
ATOM      7  C   UNL     1       2.616   5.445  20.203  0.00  0.00    +0.000 A 
ATOM      8  C   UNL     1       3.522   4.505  19.682  0.00  0.00    +0.000 A 
BRANCH   3  10
ATOM      9  O   UNL     1       3.742   1.195  18.473  0.00  0.00    +0.000 OA
ATOM     10  C   UNL     1       4.012   2.021  19.328  0.00  0.00    +0.000 C 
BRANCH  10  11
ATOM     11  O   UNL     1       5.142   1.971  20.068  0.00  0.00    +0.000 OA
ATOM     12  H   UNL     1       5.192   2.675  20.750  0.00  0.00    +0.000 HD
ENDBRANCH  10  11
ENDBRANCH   3  10
ENDBRANCH   1   8
BRANCH   1  13
ATOM     13  C   UNL     1       5.430   4.832  18.003  0.00  0.00    +0.000 A 
ATOM     14  C   UNL     1       4.637   5.127  16.889  0.00  0.00    +0.000 A 
ATOM     15  C   UNL     1       5.176   5.128  15.596  0.00  0.00    +0.000 A 
ATOM     16  C   UNL     1       6.537   4.853  15.417  0.00  0.00    +0.000 A 
ATOM     17  C   UNL     1       7.355   4.593  16.519  0.00  0.00    +0.000 A 
ATOM     18  C   UNL     1       6.804   4.619  17.804  0.00  0.00    +0.000 A 
BRANCH  16  19
ATOM     19  N   UNL     1       7.121   4.868  14.070  0.00  0.00    +0.000 N 
ATOM     20  O   UNL     1       6.644   4.096  13.227  0.00  0.00    +0.000 OA
ATOM     21  O   UNL     1       8.052   5.658  13.855  0.00  0.00    +0.000 OA
ENDBRANCH  16  19
ENDBRANCH   1  13
TORSDOF 5
ENDMDL
MODEL 2
REMARK VINA RESULT:      -8.0      0.298      1.348
REMARK  Name = 
REMARK  5 active torsions:
REMARK  status: ('A' for Active; 'I' for Inactive)
REMARK    1  A    between atoms: C_2  and  O_3
REMARK    2  A    between atoms: C_2  and  C_4
REMARK    3  A    between atoms: C_9  and  N_10
REMARK    4  A    between atoms: N_10  and  C_11
REMARK    5  A    between atoms: C_14  and  N_15
REMARK                            x       y       z     vdW  Elec       q    Type
REMARK                         _______ _______ _______ _____ _____    ______ ____
ROOT
ATOM      1  N   UNL     1       4.708   5.085  19.405  0.00  0.00    +0.000 N 
ATOM      2  H   UNL     1       5.428   4.755  20.060  0.00  0.00    +0.000 HD
ENDROOT
BRANCH   1   8
ATOM      3  C   UNL     1       3.225   3.156  19.906  0.00  0.00    +0.000 A 
ATOM      4  C   UNL     1       1.959   2.654  20.258  0.00  0.00    +0.000 A 
ATOM      5  C   UNL     1       0.904   3.521  20.531  0.00  0.00    +0.000 A 
ATOM      6  C   UNL     1       1.122   4.892  20.511  0.00  0.00    +0.000 A 
ATOM      7  C   UNL     1       2.386   5.392  20.187  0.00  0.00    +0.000 A 
ATOM      8  C   UNL     1       3.436   4.549  19.784  0.00  0.00    +0.000 A 
BRANCH   3  10
ATOM      9  O   UNL     1       5.211   1.954  20.457  0.00  0.00    +0.000 OA
ATOM     10  C   UNL     1       4.287   2.141  19.683  0.00  0.00    +0.000 C 
BRANCH  10  11
ATOM     11  O   UNL     1       4.157   1.468  18.518  0.00  0.00    +0.000 OA
ATOM     12  H   UNL     1       3.793   0.564  18.630  0.00  0.00    +0.000 HD
ENDBRANCH  10  11
ENDBRANCH   3  10
ENDBRANCH   1   8
BRANCH   1  13
ATOM     13  C   UNL     1       5.300   5.094  18.112  0.00  0.00    +0.000 A 
ATOM     14  C   UNL     1       6.587   4.570  17.953  0.00  0.00    +0.000 A 
ATOM     15  C   UNL     1       7.197   4.514  16.693  0.00  0.00    +0.000 A 
ATOM     16  C   UNL     1       6.497   4.969  15.569  0.00  0.00    +0.000 A 
ATOM     17  C   UNL     1       5.196   5.462  15.700  0.00  0.00    +0.000 A 
ATOM     18  C   UNL     1       4.596   5.488  16.962  0.00  0.00    +0.000 A 
BRANCH  16  19
ATOM     19  N   UNL     1       7.115   4.901  14.239  0.00  0.00    +0.000 N 
ATOM     20  O   UNL     1       6.637   4.100  13.423  0.00  0.00    +0.000 OA
ATOM     21  O   UNL     1       8.073   5.653  14.010  0.00  0.00    +0.000 OA
ENDBRANCH  16  19
ENDBRANCH   1  13
TORSDOF 5
ENDMDL
MODEL 3
REMARK VINA RESULT:      -8.0      0.319      1.065
REMARK  Name = 
REMARK  5 active torsions:
REMARK  status: ('A' for Active; 'I' for Inactive)
REMARK    1  A    between atoms: C_2  and  O_3
REMARK    2  A    between atoms: C_2  and  C_4
REMARK    3  A    between atoms: C_9  and  N_10
REMARK    4  A    between atoms: N_10  and  C_11
REMARK    5  A    between atoms: C_14  and  N_15
REMARK                            x       y       z     vdW  Elec       q    Type
REMARK                         _______ _______ _______ _____ _____    ______ ____
ROOT
ATOM      1  N   UNL     1       4.932   4.776  19.374  0.00  0.00    +0.000 N 
ATOM      2  H   UNL     1       5.637   4.387  20.013  0.00  0.00    +0.000 HD
ENDROOT
BRANCH   1   8
ATOM      3  C   UNL     1       3.321   2.984  19.976  0.00  0.00    +0.000 A 
ATOM      4  C   UNL     1       2.025   2.590  20.357  0.00  0.00    +0.000 A 
ATOM      5  C   UNL     1       1.035   3.542  20.589  0.00  0.00    +0.000 A 
ATOM      6  C   UNL     1       1.349   4.891  20.498  0.00  0.00    +0.000 A 
ATOM      7  C   UNL     1       2.643   5.284  20.146  0.00  0.00    +0.000 A 
ATOM      8  C   UNL     1       3.629   4.350  19.783  0.00  0.00    +0.000 A 
BRANCH   3  10
ATOM      9  O   UNL     1       5.226   1.679  20.576  0.00  0.00    +0.000 OA
ATOM     10  C   UNL     1       4.308   1.886  19.801  0.00  0.00    +0.000 C 
BRANCH  10  11
ATOM     11  O   UNL     1       4.117   1.160  18.678  0.00  0.00    +0.000 OA
ATOM     12  H   UNL     1       4.370   1.637  17.859  0.00  0.00    +0.000 HD
ENDBRANCH  10  11
ENDBRANCH   3  10
ENDBRANCH   1   8
BRANCH   1  13
ATOM     13  C   UNL     1       5.493   4.733  18.067  0.00  0.00    +0.000 A 
ATOM     14  C   UNL     1       4.636   4.729  16.962  0.00  0.00    +0.000 A 
ATOM     15  C   UNL     1       5.140   4.732  15.654  0.00  0.00    +0.000 A 
ATOM     16  C   UNL     1       6.524   4.764  15.450  0.00  0.00    +0.000 A 
ATOM     17  C   UNL     1       7.397   4.805  16.539  0.00  0.00    +0.000 A 
ATOM     18  C   UNL     1       6.876   4.825  17.836  0.00  0.00    +0.000 A 
BRANCH  16  19
ATOM     19  N   UNL     1       7.067   4.785  14.086  0.00  0.00    +0.000 N 
ATOM     20  O   UNL     1       7.991   5.575  13.846  0.00  0.00    +0.000 OA
ATOM     21  O   UNL     1       6.572   4.008  13.257  0.00  0.00    +0.000 OA
ENDBRANCH  16  19
ENDBRANCH   1  13
TORSDOF 5
ENDMDL
MODEL 4
REMARK VINA RESULT:      -7.7      2.110      2.961
REMARK  Name = 
REMARK  5 active torsions:
REMARK  status: ('A' for Active; 'I' for Inactive)
REMARK    1  A    between atoms: C_2  and  O_3
REMARK    2  A    between atoms: C_2  and  C_4
REMARK    3  A    between atoms: C_9  and  N_10
REMARK    4  A    between atoms: N_10  and  C_11
REMARK    5  A    between atoms: C_14  and  N_15
REMARK                            x       y       z     vdW  Elec       q    Type
REMARK                         _______ _______ _______ _____ _____    ______ ____
ROOT
ATOM      1  N   UNL     1       4.713   5.299  19.339  0.00  0.00    +0.000 N 
ATOM      2  H   UNL     1       5.466   5.135  20.019  0.00  0.00    +0.000 HD
ENDROOT
BRANCH   1   8
ATOM      3  C   UNL     1       2.346   5.359  20.087  0.00  0.00    +0.000 A 
ATOM      4  C   UNL     1       1.194   4.687  20.537  0.00  0.00    +0.000 A 
ATOM      5  C   UNL     1       1.181   3.298  20.643  0.00  0.00    +0.000 A 
ATOM      6  C   UNL     1       2.295   2.572  20.248  0.00  0.00    +0.000 A 
ATOM      7  C   UNL     1       3.430   3.236  19.777  0.00  0.00    +0.000 A 
ATOM      8  C   UNL     1       3.522   4.639  19.776  0.00  0.00    +0.000 A 
BRANCH   3  10
ATOM      9  O   UNL     1       2.515   7.452  18.955  0.00  0.00    +0.000 OA
ATOM     10  C   UNL     1       2.230   6.836  19.968  0.00  0.00    +0.000 C 
BRANCH  10  11
ATOM     11  O   UNL     1       1.817   7.441  21.104  0.00  0.00    +0.000 OA
ATOM     12  H   UNL     1       1.818   8.420  21.046  0.00  0.00    +0.000 HD
ENDBRANCH  10  11
ENDBRANCH   3  10
ENDBRANCH   1   8
BRANCH   1  13
ATOM     13  C   UNL     1       5.309   5.258  18.047  0.00  0.00    +0.000 A 
ATOM     14  C   UNL     1       6.576   4.682  17.904  0.00  0.00    +0.000 A 
ATOM     15  C   UNL     1       7.186   4.578  16.647  0.00  0.00    +0.000 A 
ATOM     16  C   UNL     1       6.507   5.035  15.512  0.00  0.00    +0.000 A 
ATOM     17  C   UNL     1       5.226   5.580  15.628  0.00  0.00    +0.000 A 
ATOM     18  C   UNL     1       4.623   5.655  16.887  0.00  0.00    +0.000 A 
BRANCH  16  19
ATOM     19  N   UNL     1       7.125   4.916  14.186  0.00  0.00    +0.000 N 
ATOM     20  O   UNL     1       8.113   5.624  13.945  0.00  0.00    +0.000 OA
ATOM     21  O   UNL     1       6.626   4.110  13.387  0.00  0.00    +0.000 OA
ENDBRANCH  16  19
ENDBRANCH   1  13
TORSDOF 5
ENDMDL
MODEL 5
REMARK VINA RESULT:      -7.6      2.040      2.677
REMARK  Name = 
REMARK  5 active torsions:
REMARK  status: ('A' for Active; 'I' for Inactive)
REMARK    1  A    between atoms: C_2  and  O_3
REMARK    2  A    between atoms: C_2  and  C_4
REMARK    3  A    between atoms: C_9  and  N_10
REMARK    4  A    between atoms: N_10  and  C_11
REMARK    5  A    between atoms: C_14  and  N_15
REMARK                            x       y       z     vdW  Elec       q    Type
REMARK                         _______ _______ _______ _____ _____    ______ ____
ROOT
ATOM      1  N   UNL     1       4.737   4.958  19.404  0.00  0.00    +0.000 N 
ATOM      2  H   UNL     1       5.459   4.698  20.089  0.00  0.00    +0.000 HD
ENDROOT
BRANCH   1   8
ATOM      3  C   UNL     1       2.345   5.255  20.004  0.00  0.00    +0.000 A 
ATOM      4  C   UNL     1       1.121   4.709  20.429  0.00  0.00    +0.000 A 
ATOM      5  C   UNL     1       0.990   3.337  20.632  0.00  0.00    +0.000 A 
ATOM      6  C   UNL     1       2.061   2.500  20.357  0.00  0.00    +0.000 A 
ATOM      7  C   UNL     1       3.270   3.038  19.908  0.00  0.00    +0.000 A 
ATOM      8  C   UNL     1       3.475   4.426  19.814  0.00  0.00    +0.000 A 
BRANCH   3  10
ATOM      9  O   UNL     1       2.619   7.233  18.698  0.00  0.00    +0.000 OA
ATOM     10  C   UNL     1       2.356   6.724  19.774  0.00  0.00    +0.000 C 
BRANCH  10  11
ATOM     11  O   UNL     1       2.087   7.447  20.883  0.00  0.00    +0.000 OA
ATOM     12  H   UNL     1       2.507   8.334  20.880  0.00  0.00    +0.000 HD
ENDBRANCH  10  11
ENDBRANCH   3  10
ENDBRANCH   1   8
BRANCH   1  13
ATOM     13  C   UNL     1       5.342   4.877  18.118  0.00  0.00    +0.000 A 
ATOM     14  C   UNL     1       4.535   4.995  16.982  0.00  0.00    +0.000 A 
ATOM     15  C   UNL     1       5.088   4.966  15.695  0.00  0.00    +0.000 A 
ATOM     16  C   UNL     1       6.473   4.841  15.543  0.00  0.00    +0.000 A 
ATOM     17  C   UNL     1       7.301   4.759  16.666  0.00  0.00    +0.000 A 
ATOM     18  C   UNL     1       6.734   4.813  17.942  0.00  0.00    +0.000 A 
BRANCH  16  19
ATOM     19  N   UNL     1       7.069   4.827  14.202  0.00  0.00    +0.000 N 
ATOM     20  O   UNL     1       8.025   5.587  13.988  0.00  0.00    +0.000 OA
ATOM     21  O   UNL     1       6.585   4.052  13.364  0.00  0.00    +0.000 OA
ENDBRANCH  16  19
ENDBRANCH   1  13
TORSDOF 5
ENDMDL
MODEL 6
REMARK VINA RESULT:      -7.6      0.647      1.418
REMARK  Name = 
REMARK  5 active torsions:
REMARK  status: ('A' for Active; 'I' for Inactive)
REMARK    1  A    between atoms: C_2  and  O_3
REMARK    2  A    between atoms: C_2  and  C_4
REMARK    3  A    between atoms: C_9  and  N_10
REMARK    4  A    between atoms: N_10  and  C_11
REMARK    5  A    between atoms: C_14  and  N_15
REMARK                            x       y       z     vdW  Elec       q    Type
REMARK                         _______ _______ _______ _____ _____    ______ ____
ROOT
ATOM      1  N   UNL     1       5.320   4.578  18.870  0.00  0.00    +0.000 N 
ATOM      2  H   UNL     1       5.926   3.883  19.324  0.00  0.00    +0.000 HD
ENDROOT
BRANCH   1   8
ATOM      3  C   UNL     1       3.377   3.216  19.606  0.00  0.00    +0.000 A 
ATOM      4  C   UNL     1       2.064   3.139  20.104  0.00  0.00    +0.000 A 
ATOM      5  C   UNL     1       1.364   4.296  20.438  0.00  0.00    +0.000 A 
ATOM      6  C   UNL     1       1.992   5.530  20.330  0.00  0.00    +0.000 A 
ATOM      7  C   UNL     1       3.305   5.606  19.860  0.00  0.00    +0.000 A 
ATOM      8  C   UNL     1       3.994   4.471  19.397  0.00  0.00    +0.000 A 
BRANCH   3  10
ATOM      9  O   UNL     1       3.672   1.143  18.461  0.00  0.00    +0.000 OA
ATOM     10  C   UNL     1       4.043   1.916  19.328  0.00  0.00    +0.000 C 
BRANCH  10  11
ATOM     11  O   UNL     1       5.078   1.650  20.155  0.00  0.00    +0.000 OA
ATOM     12  H   UNL     1       5.001   0.784  20.609  0.00  0.00    +0.000 HD
ENDBRANCH  10  11
ENDBRANCH   3  10
ENDBRANCH   1   8
BRANCH   1  13
ATOM     13  C   UNL     1       5.713   4.637  17.504  0.00  0.00    +0.000 A 
ATOM     14  C   UNL     1       7.041   4.949  17.195  0.00  0.00    +0.000 A 
ATOM     15  C   UNL     1       7.488   4.976  15.867  0.00  0.00    +0.000 A 
ATOM     16  C   UNL     1       6.597   4.663  14.834  0.00  0.00    +0.000 A 
ATOM     17  C   UNL     1       5.276   4.314  15.123  0.00  0.00    +0.000 A 
ATOM     18  C   UNL     1       4.854   4.269  16.455  0.00  0.00    +0.000 A 
BRANCH  16  19
ATOM     19  N   UNL     1       7.055   4.670  13.439  0.00  0.00    +0.000 N 
ATOM     20  O   UNL     1       7.891   5.524  13.111  0.00  0.00    +0.000 OA
ATOM     21  O   UNL     1       6.583   3.817  12.673  0.00  0.00    +0.000 OA
ENDBRANCH  16  19
ENDBRANCH   1  13
TORSDOF 5
ENDMDL
MODEL 7
REMARK VINA RESULT:      -7.2      2.043      2.848
REMARK  Name = 
REMARK  5 active torsions:
REMARK  status: ('A' for Active; 'I' for Inactive)
REMARK    1  A    between atoms: C_2  and  O_3
REMARK    2  A    between atoms: C_2  and  C_4
REMARK    3  A    between atoms: C_9  and  N_10
REMARK    4  A    between atoms: N_10  and  C_11
REMARK    5  A    between atoms: C_14  and  N_15
REMARK                            x       y       z     vdW  Elec       q    Type
REMARK                         _______ _______ _______ _____ _____    ______ ____
ROOT
ATOM      1  N   UNL     1       4.773   4.780  19.420  0.00  0.00    +0.000 N 
ATOM      2  H   UNL     1       5.517   4.392  20.014  0.00  0.00    +0.000 HD
ENDROOT
BRANCH   1   8
ATOM      3  C   UNL     1       2.365   5.150  19.906  0.00  0.00    +0.000 A 
ATOM      4  C   UNL     1       1.132   4.668  20.381  0.00  0.00    +0.000 A 
ATOM      5  C   UNL     1       1.000   3.343  20.791  0.00  0.00    +0.000 A 
ATOM      6  C   UNL     1       2.080   2.480  20.675  0.00  0.00    +0.000 A 
ATOM      7  C   UNL     1       3.299   2.951  20.179  0.00  0.00    +0.000 A 
ATOM      8  C   UNL     1       3.502   4.308  19.876  0.00  0.00    +0.000 A 
BRANCH   3  10
ATOM      9  O   UNL     1       2.149   7.509  20.189  0.00  0.00    +0.000 OA
ATOM     10  C   UNL     1       2.378   6.565  19.452  0.00  0.00    +0.000 C 
BRANCH  10  11
ATOM     11  O   UNL     1       2.629   6.708  18.132  0.00  0.00    +0.000 OA
ATOM     12  H   UNL     1       1.864   6.473  17.563  0.00  0.00    +0.000 HD
ENDBRANCH  10  11
ENDBRANCH   3  10
ENDBRANCH   1   8
BRANCH   1  13
ATOM     13  C   UNL     1       5.273   4.787  18.088  0.00  0.00    +0.000 A 
ATOM     14  C   UNL     1       6.482   5.440  17.822  0.00  0.00    +0.000 A 
ATOM     15  C   UNL     1       7.038   5.437  16.536  0.00  0.00    +0.000 A 
ATOM     16  C   UNL     1       6.387   4.751  15.505  0.00  0.00    +0.000 A 
ATOM     17  C   UNL     1       5.198   4.062  15.757  0.00  0.00    +0.000 A 
ATOM     18  C   UNL     1       4.669   4.056  17.051  0.00  0.00    +0.000 A 
BRANCH  16  19
ATOM     19  N   UNL     1       6.967   4.724  14.156  0.00  0.00    +0.000 N 
ATOM     20  O   UNL     1       7.825   5.575  13.881  0.00  0.00    +0.000 OA
ATOM     21  O   UNL     1       6.568   3.848  13.375  0.00  0.00    +0.000 OA
ENDBRANCH  16  19
ENDBRANCH   1  13
TORSDOF 5
ENDMDL
MODEL 8
REMARK VINA RESULT:      -7.2      2.092      2.801
REMARK  Name = 
REMARK  5 active torsions:
REMARK  status: ('A' for Active; 'I' for Inactive)
REMARK    1  A    between atoms: C_2  and  O_3
REMARK    2  A    between atoms: C_2  and  C_4
REMARK    3  A    between atoms: C_9  and  N_10
REMARK    4  A    between atoms: N_10  and  C_11
REMARK    5  A    between atoms: C_14  and  N_15
REMARK                            x       y       z     vdW  Elec       q    Type
REMARK                         _______ _______ _______ _____ _____    ______ ____
ROOT
ATOM      1  N   UNL     1       5.043   3.824  18.126  0.00  0.00    +0.000 N 
ATOM      2  H   UNL     1       5.659   3.133  18.573  0.00  0.00    +0.000 HD
ENDROOT
BRANCH   1   8
ATOM      3  C   UNL     1       2.724   4.454  18.757  0.00  0.00    +0.000 A 
ATOM      4  C   UNL     1       1.392   4.086  19.020  0.00  0.00    +0.000 A 
ATOM      5  C   UNL     1       0.981   2.763  18.872  0.00  0.00    +0.000 A 
ATOM      6  C   UNL     1       1.880   1.815  18.406  0.00  0.00    +0.000 A 
ATOM      7  C   UNL     1       3.197   2.184  18.119  0.00  0.00    +0.000 A 
ATOM      8  C   UNL     1       3.677   3.480  18.378  0.00  0.00    +0.000 A 
BRANCH   3  10
ATOM      9  O   UNL     1       3.488   6.583  17.998  0.00  0.00    +0.000 OA
ATOM     10  C   UNL     1       3.039   5.900  18.902  0.00  0.00    +0.000 C 
BRANCH  10  11
ATOM     11  O   UNL     1       2.818   6.379  20.146  0.00  0.00    +0.000 OA
ATOM     12  H   UNL     1       3.096   7.314  20.257  0.00  0.00    +0.000 HD
ENDBRANCH  10  11
ENDBRANCH   3  10
ENDBRANCH   1   8
BRANCH   1  13
ATOM     13  C   UNL     1       5.641   4.165  16.881  0.00  0.00    +0.000 A 
ATOM     14  C   UNL     1       6.945   4.671  16.873  0.00  0.00    +0.000 A 
ATOM     15  C   UNL     1       7.595   4.979  15.670  0.00  0.00    +0.000 A 
ATOM     16  C   UNL     1       6.937   4.755  14.455  0.00  0.00    +0.000 A 
ATOM     17  C   UNL     1       5.648   4.216  14.440  0.00  0.00    +0.000 A 
ATOM     18  C   UNL     1       5.024   3.893  15.648  0.00  0.00    +0.000 A 
BRANCH  16  19
ATOM     19  N   UNL     1       7.611   5.056  13.186  0.00  0.00    +0.000 N 
ATOM     20  O   UNL     1       7.233   4.447  12.175  0.00  0.00    +0.000 OA
ATOM     21  O   UNL     1       8.513   5.906  13.200  0.00  0.00    +0.000 OA
ENDBRANCH  16  19
ENDBRANCH   1  13
TORSDOF 5
ENDMDL
MODEL 9
REMARK VINA RESULT:      -7.1      1.150      1.621
REMARK  Name = 
REMARK  5 active torsions:
REMARK  status: ('A' for Active; 'I' for Inactive)
REMARK    1  A    between atoms: C_2  and  O_3
REMARK    2  A    between atoms: C_2  and  C_4
REMARK    3  A    between atoms: C_9  and  N_10
REMARK    4  A    between atoms: N_10  and  C_11
REMARK    5  A    between atoms: C_14  and  N_15
REMARK                            x       y       z     vdW  Elec       q    Type
REMARK                         _______ _______ _______ _____ _____    ______ ____
ROOT
ATOM      1  N   UNL     1       5.003   4.247  19.031  0.00  0.00    +0.000 N 
ATOM      2  H   UNL     1       4.988   3.248  19.274  0.00  0.00    +0.000 HD
ENDROOT
BRANCH   1   8
ATOM      3  C   UNL     1       2.888   4.184  20.331  0.00  0.00    +0.000 A 
ATOM      4  C   UNL     1       1.712   4.817  20.773  0.00  0.00    +0.000 A 
ATOM      5  C   UNL     1       1.457   6.147  20.444  0.00  0.00    +0.000 A 
ATOM      6  C   UNL     1       2.400   6.866  19.724  0.00  0.00    +0.000 A 
ATOM      7  C   UNL     1       3.581   6.246  19.307  0.00  0.00    +0.000 A 
ATOM      8  C   UNL     1       3.811   4.874  19.512  0.00  0.00    +0.000 A 
BRANCH   3  10
ATOM      9  O   UNL     1       3.548   1.906  20.073  0.00  0.00    +0.000 OA
ATOM     10  C   UNL     1       3.077   2.780  20.781  0.00  0.00    +0.000 C 
BRANCH  10  11
ATOM     11  O   UNL     1       2.641   2.551  22.039  0.00  0.00    +0.000 OA
ATOM     12  H   UNL     1       2.975   3.203  22.691  0.00  0.00    +0.000 HD
ENDBRANCH  10  11
ENDBRANCH   3  10
ENDBRANCH   1   8
BRANCH   1  13
ATOM     13  C   UNL     1       5.577   4.345  17.733  0.00  0.00    +0.000 A 
ATOM     14  C   UNL     1       4.764   4.128  16.615  0.00  0.00    +0.000 A 
ATOM     15  C   UNL     1       5.271   4.257  15.315  0.00  0.00    +0.000 A 
ATOM     16  C   UNL     1       6.607   4.632  15.131  0.00  0.00    +0.000 A 
ATOM     17  C   UNL     1       7.426   4.889  16.233  0.00  0.00    +0.000 A 
ATOM     18  C   UNL     1       6.897   4.778  17.522  0.00  0.00    +0.000 A 
BRANCH  16  19
ATOM     19  N   UNL     1       7.148   4.789  13.775  0.00  0.00    +0.000 N 
ATOM     20  O   UNL     1       8.049   5.622  13.607  0.00  0.00    +0.000 OA
ATOM     21  O   UNL     1       6.674   4.074  12.880  0.00  0.00    +0.000 OA
ENDBRANCH  16  19
ENDBRANCH   1  13
TORSDOF 5
ENDMDL
