MODEL 1
REMARK VINA RESULT:      -7.4      0.000      0.000
REMARK  Name = 
REMARK  10 active torsions:
REMARK  status: ('A' for Active; 'I' for Inactive)
REMARK    1  A    between atoms: C_1  and  C_2
REMARK    2  A    between atoms: C_5  and  O_6
REMARK    3  A    between atoms: C_7  and  C_8
REMARK    4  A    between atoms: C_8  and  S_9
REMARK    5  A    between atoms: N_10  and  C_11
REMARK    6  A    between atoms: C_11  and  C_12
REMARK    7  A    between atoms: C_12  and  C_13
REMARK    8  A    between atoms: C_15  and  O_16
REMARK    9  A    between atoms: C_18  and  C_19
REMARK   10  A    between atoms: C_18  and  C_20
REMARK                            x       y       z     vdW  Elec       q    Type
REMARK                         _______ _______ _______ _____ _____    ______ ____
ROOT
ATOM      1  C   UNL     1       6.067   4.710  16.224  0.00  0.00    +0.000 C 
ATOM      2  N   UNL     1       4.870   4.985  16.623  0.00  0.00    +0.000 NA
ENDROOT
BRANCH   1   8
ATOM      3  C   UNL     1       4.387   2.888  11.895  0.00  0.00    +0.000 C 
ATOM      4  C   UNL     1       5.438   3.671  12.626  0.00  0.00    +0.000 A 
ATOM      5  C   UNL     1       6.542   4.197  11.957  0.00  0.00    +0.000 A 
ATOM      6  C   UNL     1       7.513   4.916  12.657  0.00  0.00    +0.000 A 
ATOM      7  C   UNL     1       7.390   5.116  14.038  0.00  0.00    +0.000 A 
ATOM      8  C   UNL     1       6.291   4.600  14.739  0.00  0.00    +0.000 A 
ATOM      9  C   UNL     1       5.325   3.878  14.010  0.00  0.00    +0.000 A 
BRANCH   7  10
ATOM     10  O   UNL     1       8.380   5.803  14.684  0.00  0.00    +0.000 OA
ATOM     11  H   UNL     1       9.120   5.948  14.069  0.00  0.00    +0.000 HD
ENDBRANCH   7  10
ENDBRANCH   1   8
BRANCH   1  12
ATOM     12  S   UNL     1       7.416   4.538  17.319  0.00  0.00    +0.000 S 
ATOM     13  H   UNL     1       8.117   3.669  16.575  0.00  0.00    +0.000 HD
ENDBRANCH   1  12
BRANCH   2  14
ATOM     14  C   UNL     1       4.469   5.203  18.012  0.00  0.00    +0.000 C 
BRANCH  14  15
ATOM     15  C   UNL     1       2.974   4.763  18.159  0.00  0.00    +0.000 C 
ATOM     16  C   UNL     1       2.108   6.014  17.810  0.00  0.00    +0.000 C 
ATOM     17  C   UNL     1       2.591   3.646  17.142  0.00  0.00    +0.000 C 
ATOM     18  C   UNL     1       2.733   2.200  17.610  0.00  0.00    +0.000 C 
ATOM     19  C   UNL     1       2.136   1.989  18.994  0.00  0.00    +0.000 C 
ATOM     20  C   UNL     1       2.729   2.910  20.076  0.00  0.00    +0.000 C 
ATOM     21  C   UNL     1       4.177   2.529  20.430  0.00  0.00    +0.000 C 
ATOM     22  C   UNL     1       1.897   2.711  21.367  0.00  0.00    +0.000 C 
ATOM     23  C   UNL     1       2.613   4.391  19.634  0.00  0.00    +0.000 C 
BRANCH  18  24
ATOM     24  O   UNL     1       4.073   1.731  17.571  0.00  0.00    +0.000 OA
ATOM     25  H   UNL     1       4.375   1.720  16.649  0.00  0.00    +0.000 HD
ENDBRANCH  18  24
ENDBRANCH  14  15
ENDBRANCH   2  14
TORSDOF 6
ENDMDL
MODEL 2
REMARK VINA RESULT:      -7.0      3.871      7.605
REMARK  Name = 
REMARK  10 active torsions:
REMARK  status: ('A' for Active; 'I' for Inactive)
REMARK    1  A    between atoms: C_1  and  C_2
REMARK    2  A    between atoms: C_5  and  O_6
REMARK    3  A    between atoms: C_7  and  C_8
REMARK    4  A    between atoms: C_8  and  S_9
REMARK    5  A    between atoms: N_10  and  C_11
REMARK    6  A    between atoms: C_11  and  C_12
REMARK    7  A    between atoms: C_12  and  C_13
REMARK    8  A    between atoms: C_15  and  O_16
REMARK    9  A    between atoms: C_18  and  C_19
REMARK   10  A    between atoms: C_18  and  C_20
REMARK                            x       y       z     vdW  Elec       q    Type
REMARK                         _______ _______ _______ _____ _____    ______ ____
ROOT
ATOM      1  C   UNL     1       2.271   6.927  19.539  0.00  0.00    +0.000 C 
ATOM      2  N   UNL     1       3.022   6.971  18.489  0.00  0.00    +0.000 NA
ENDROOT
BRANCH   1   8
ATOM      3  C   UNL     1       0.081   9.468  23.230  0.00  0.00    +0.000 C 
ATOM      4  C   UNL     1       0.491   9.416  21.787  0.00  0.00    +0.000 A 
ATOM      5  C   UNL     1       0.194  10.461  20.914  0.00  0.00    +0.000 A 
ATOM      6  C   UNL     1       0.578  10.389  19.573  0.00  0.00    +0.000 A 
ATOM      7  C   UNL     1       1.264   9.268  19.091  0.00  0.00    +0.000 A 
ATOM      8  C   UNL     1       1.578   8.201  19.944  0.00  0.00    +0.000 A 
ATOM      9  C   UNL     1       1.179   8.297  21.292  0.00  0.00    +0.000 A 
BRANCH   7  10
ATOM     10  O   UNL     1       1.596   9.232  17.764  0.00  0.00    +0.000 OA
ATOM     11  H   UNL     1       1.681  10.143  17.433  0.00  0.00    +0.000 HD
ENDBRANCH   7  10
ENDBRANCH   1   8
BRANCH   1  12
ATOM     12  S   UNL     1       1.983   5.459  20.438  0.00  0.00    +0.000 S 
ATOM     13  H   UNL     1       2.854   5.704  21.428  0.00  0.00    +0.000 HD
ENDBRANCH   1  12
BRANCH   2  14
ATOM     14  C   UNL     1       3.718   5.829  17.896  0.00  0.00    +0.000 C 
BRANCH  14  15
ATOM     15  C   UNL     1       5.000   6.365  17.175  0.00  0.00    +0.000 C 
ATOM     16  C   UNL     1       4.782   7.895  16.962  0.00  0.00    +0.000 C 
ATOM     17  C   UNL     1       6.276   6.204  18.057  0.00  0.00    +0.000 C 
ATOM     18  C   UNL     1       7.091   4.926  17.876  0.00  0.00    +0.000 C 
ATOM     19  C   UNL     1       7.326   4.606  16.407  0.00  0.00    +0.000 C 
ATOM     20  C   UNL     1       6.032   4.477  15.582  0.00  0.00    +0.000 C 
ATOM     21  C   UNL     1       5.246   3.203  15.934  0.00  0.00    +0.000 C 
ATOM     22  C   UNL     1       6.440   4.341  14.093  0.00  0.00    +0.000 C 
ATOM     23  C   UNL     1       5.170   5.753  15.747  0.00  0.00    +0.000 C 
BRANCH  18  24
ATOM     24  O   UNL     1       6.529   3.807  18.544  0.00  0.00    +0.000 OA
ATOM     25  H   UNL     1       6.011   3.288  17.907  0.00  0.00    +0.000 HD
ENDBRANCH  18  24
ENDBRANCH  14  15
ENDBRANCH   2  14
TORSDOF 6
ENDMDL
MODEL 3
REMARK VINA RESULT:      -6.8      1.097      1.195
REMARK  Name = 
REMARK  10 active torsions:
REMARK  status: ('A' for Active; 'I' for Inactive)
REMARK    1  A    between atoms: C_1  and  C_2
REMARK    2  A    between atoms: C_5  and  O_6
REMARK    3  A    between atoms: C_7  and  C_8
REMARK    4  A    between atoms: C_8  and  S_9
REMARK    5  A    between atoms: N_10  and  C_11
REMARK    6  A    between atoms: C_11  and  C_12
REMARK    7  A    between atoms: C_12  and  C_13
REMARK    8  A    between atoms: C_15  and  O_16
REMARK    9  A    between atoms: C_18  and  C_19
REMARK   10  A    between atoms: C_18  and  C_20
REMARK                            x       y       z     vdW  Elec       q    Type
REMARK                         _______ _______ _______ _____ _____    ______ ____
ROOT
ATOM      1  C   UNL     1       6.279   4.107  15.953  0.00  0.00    +0.000 C 
ATOM      2  N   UNL     1       5.151   3.635  16.367  0.00  0.00    +0.000 NA
ENDROOT
BRANCH   1   8
ATOM      3  C   UNL     1       4.793   2.590  11.440  0.00  0.00    +0.000 C 
ATOM      4  C   UNL     1       5.721   3.441  12.257  0.00  0.00    +0.000 A 
ATOM      5  C   UNL     1       6.700   4.227  11.651  0.00  0.00    +0.000 A 
ATOM      6  C   UNL     1       7.559   5.006  12.430  0.00  0.00    +0.000 A 
ATOM      7  C   UNL     1       7.447   5.006  13.826  0.00  0.00    +0.000 A 
ATOM      8  C   UNL     1       6.472   4.226  14.464  0.00  0.00    +0.000 A 
ATOM      9  C   UNL     1       5.618   3.449  13.657  0.00  0.00    +0.000 A 
BRANCH   7  10
ATOM     10  O   UNL     1       8.328   5.764  14.547  0.00  0.00    +0.000 OA
ATOM     11  H   UNL     1       7.835   6.449  15.031  0.00  0.00    +0.000 HD
ENDBRANCH   7  10
ENDBRANCH   1   8
BRANCH   1  12
ATOM     12  S   UNL     1       7.529   4.667  17.036  0.00  0.00    +0.000 S 
ATOM     13  H   UNL     1       7.057   5.913  17.195  0.00  0.00    +0.000 HD
ENDBRANCH   1  12
BRANCH   2  14
ATOM     14  C   UNL     1       4.747   3.511  17.767  0.00  0.00    +0.000 C 
BRANCH  14  15
ATOM     15  C   UNL     1       3.514   4.448  18.001  0.00  0.00    +0.000 C 
ATOM     16  C   UNL     1       3.843   5.798  17.290  0.00  0.00    +0.000 C 
ATOM     17  C   UNL     1       2.221   3.887  17.337  0.00  0.00    +0.000 C 
ATOM     18  C   UNL     1       1.318   3.009  18.201  0.00  0.00    +0.000 C 
ATOM     19  C   UNL     1       1.079   3.621  19.574  0.00  0.00    +0.000 C 
ATOM     20  C   UNL     1       2.370   3.914  20.361  0.00  0.00    +0.000 C 
ATOM     21  C   UNL     1       3.059   2.625  20.841  0.00  0.00    +0.000 C 
ATOM     22  C   UNL     1       1.971   4.697  21.637  0.00  0.00    +0.000 C 
ATOM     23  C   UNL     1       3.319   4.796  19.512  0.00  0.00    +0.000 C 
BRANCH  18  24
ATOM     24  O   UNL     1       1.792   1.677  18.328  0.00  0.00    +0.000 OA
ATOM     25  H   UNL     1       2.757   1.696  18.440  0.00  0.00    +0.000 HD
ENDBRANCH  18  24
ENDBRANCH  14  15
ENDBRANCH   2  14
TORSDOF 6
ENDMDL
MODEL 4
REMARK VINA RESULT:      -6.8      4.267      7.456
REMARK  Name = 
REMARK  10 active torsions:
REMARK  status: ('A' for Active; 'I' for Inactive)
REMARK    1  A    between atoms: C_1  and  C_2
REMARK    2  A    between atoms: C_5  and  O_6
REMARK    3  A    between atoms: C_7  and  C_8
REMARK    4  A    between atoms: C_8  and  S_9
REMARK    5  A    between atoms: N_10  and  C_11
REMARK    6  A    between atoms: C_11  and  C_12
REMARK    7  A    between atoms: C_12  and  C_13
REMARK    8  A    between atoms: C_15  and  O_16
REMARK    9  A    between atoms: C_18  and  C_19
REMARK   10  A    between atoms: C_18  and  C_20
REMARK                            x       y       z     vdW  Elec       q    Type
REMARK                         _______ _______ _______ _____ _____    ______ ____
ROOT
ATOM      1  C   UNL     1       1.912   7.974  19.428  0.00  0.00    +0.000 C 
ATOM      2  N   UNL     1       2.198   6.892  20.071  0.00  0.00    +0.000 NA
ENDROOT
BRANCH   1   8
ATOM      3  C   UNL     1      -1.604  11.473  18.901  0.00  0.00    +0.000 C 
ATOM      4  C   UNL     1      -0.697  10.705  19.818  0.00  0.00    +0.000 A 
ATOM      5  C   UNL     1      -0.673  10.960  21.188  0.00  0.00    +0.000 A 
ATOM      6  C   UNL     1       0.184  10.240  22.023  0.00  0.00    +0.000 A 
ATOM      7  C   UNL     1       1.028   9.254  21.495  0.00  0.00    +0.000 A 
ATOM      8  C   UNL     1       1.025   8.975  20.121  0.00  0.00    +0.000 A 
ATOM      9  C   UNL     1       0.153   9.716  19.299  0.00  0.00    +0.000 A 
BRANCH   7  10
ATOM     10  O   UNL     1       1.868   8.594  22.348  0.00  0.00    +0.000 OA
ATOM     11  H   UNL     1       1.561   8.727  23.262  0.00  0.00    +0.000 HD
ENDBRANCH   7  10
ENDBRANCH   1   8
BRANCH   1  12
ATOM     12  S   UNL     1       2.562   8.340  17.849  0.00  0.00    +0.000 S 
ATOM     13  H   UNL     1       2.210   9.634  17.826  0.00  0.00    +0.000 HD
ENDBRANCH   1  12
BRANCH   2  14
ATOM     14  C   UNL     1       3.096   5.838  19.600  0.00  0.00    +0.000 C 
BRANCH  14  15
ATOM     15  C   UNL     1       2.540   4.465  20.108  0.00  0.00    +0.000 C 
ATOM     16  C   UNL     1       2.500   4.553  21.665  0.00  0.00    +0.000 C 
ATOM     17  C   UNL     1       1.079   4.213  19.627  0.00  0.00    +0.000 C 
ATOM     18  C   UNL     1       0.899   3.444  18.321  0.00  0.00    +0.000 C 
ATOM     19  C   UNL     1       1.777   2.203  18.266  0.00  0.00    +0.000 C 
ATOM     20  C   UNL     1       3.278   2.491  18.456  0.00  0.00    +0.000 C 
ATOM     21  C   UNL     1       3.887   3.212  17.242  0.00  0.00    +0.000 C 
ATOM     22  C   UNL     1       4.005   1.128  18.565  0.00  0.00    +0.000 C 
ATOM     23  C   UNL     1       3.503   3.281  19.770  0.00  0.00    +0.000 C 
BRANCH  18  24
ATOM     24  O   UNL     1       1.104   4.248  17.169  0.00  0.00    +0.000 OA
ATOM     25  H   UNL     1       2.001   4.619  17.200  0.00  0.00    +0.000 HD
ENDBRANCH  18  24
ENDBRANCH  14  15
ENDBRANCH   2  14
TORSDOF 6
ENDMDL
MODEL 5
REMARK VINA RESULT:      -6.8      1.466      2.090
REMARK  Name = 
REMARK  10 active torsions:
REMARK  status: ('A' for Active; 'I' for Inactive)
REMARK    1  A    between atoms: C_1  and  C_2
REMARK    2  A    between atoms: C_5  and  O_6
REMARK    3  A    between atoms: C_7  and  C_8
REMARK    4  A    between atoms: C_8  and  S_9
REMARK    5  A    between atoms: N_10  and  C_11
REMARK    6  A    between atoms: C_11  and  C_12
REMARK    7  A    between atoms: C_12  and  C_13
REMARK    8  A    between atoms: C_15  and  O_16
REMARK    9  A    between atoms: C_18  and  C_19
REMARK   10  A    between atoms: C_18  and  C_20
REMARK                            x       y       z     vdW  Elec       q    Type
REMARK                         _______ _______ _______ _____ _____    ______ ____
ROOT
ATOM      1  C   UNL     1       6.056   5.018  17.153  0.00  0.00    +0.000 C 
ATOM      2  N   UNL     1       4.859   5.017  17.639  0.00  0.00    +0.000 NA
ENDROOT
BRANCH   1   8
ATOM      3  C   UNL     1       8.606   5.852  12.948  0.00  0.00    +0.000 C 
ATOM      4  C   UNL     1       7.479   5.137  13.635  0.00  0.00    +0.000 A 
ATOM      5  C   UNL     1       6.634   4.281  12.931  0.00  0.00    +0.000 A 
ATOM      6  C   UNL     1       5.586   3.631  13.588  0.00  0.00    +0.000 A 
ATOM      7  C   UNL     1       5.372   3.832  14.958  0.00  0.00    +0.000 A 
ATOM      8  C   UNL     1       6.206   4.686  15.691  0.00  0.00    +0.000 A 
ATOM      9  C   UNL     1       7.256   5.331  15.007  0.00  0.00    +0.000 A 
BRANCH   7  10
ATOM     10  O   UNL     1       4.318   3.194  15.550  0.00  0.00    +0.000 OA
ATOM     11  H   UNL     1       4.445   3.198  16.515  0.00  0.00    +0.000 HD
ENDBRANCH   7  10
ENDBRANCH   1   8
BRANCH   1  12
ATOM     12  S   UNL     1       7.462   5.451  18.093  0.00  0.00    +0.000 S 
ATOM     13  H   UNL     1       6.925   6.518  18.703  0.00  0.00    +0.000 HD
ENDBRANCH   1  12
BRANCH   2  14
ATOM     14  C   UNL     1       4.502   5.381  19.010  0.00  0.00    +0.000 C 
BRANCH  14  15
ATOM     15  C   UNL     1       2.945   5.279  19.147  0.00  0.00    +0.000 C 
ATOM     16  C   UNL     1       2.401   6.741  19.121  0.00  0.00    +0.000 C 
ATOM     17  C   UNL     1       2.300   4.531  17.941  0.00  0.00    +0.000 C 
ATOM     18  C   UNL     1       2.096   3.024  18.085  0.00  0.00    +0.000 C 
ATOM     19  C   UNL     1       1.475   2.661  19.425  0.00  0.00    +0.000 C 
ATOM     20  C   UNL     1       2.278   3.160  20.641  0.00  0.00    +0.000 C 
ATOM     21  C   UNL     1       3.594   2.386  20.822  0.00  0.00    +0.000 C 
ATOM     22  C   UNL     1       1.429   2.881  21.907  0.00  0.00    +0.000 C 
ATOM     23  C   UNL     1       2.515   4.686  20.528  0.00  0.00    +0.000 C 
BRANCH  18  24
ATOM     24  O   UNL     1       3.285   2.279  17.870  0.00  0.00    +0.000 OA
ATOM     25  H   UNL     1       3.046   1.376  17.604  0.00  0.00    +0.000 HD
ENDBRANCH  18  24
ENDBRANCH  14  15
ENDBRANCH   2  14
TORSDOF 6
ENDMDL
MODEL 6
REMARK VINA RESULT:      -6.7      4.478      7.644
REMARK  Name = 
REMARK  10 active torsions:
REMARK  status: ('A' for Active; 'I' for Inactive)
REMARK    1  A    between atoms: C_1  and  C_2
REMARK    2  A    between atoms: C_5  and  O_6
REMARK    3  A    between atoms: C_7  and  C_8
REMARK    4  A    between atoms: C_8  and  S_9
REMARK    5  A    between atoms: N_10  and  C_11
REMARK    6  A    between atoms: C_11  and  C_12
REMARK    7  A    between atoms: C_12  and  C_13
REMARK    8  A    between atoms: C_15  and  O_16
REMARK    9  A    between atoms: C_18  and  C_19
REMARK   10  A    between atoms: C_18  and  C_20
REMARK                            x       y       z     vdW  Elec       q    Type
REMARK                         _______ _______ _______ _____ _____    ______ ____
ROOT
ATOM      1  C   UNL     1       1.643   8.420  19.408  0.00  0.00    +0.000 C 
ATOM      2  N   UNL     1       2.010   7.296  19.927  0.00  0.00    +0.000 NA
ENDROOT
BRANCH   1   8
ATOM      3  C   UNL     1      -1.913  11.917  19.476  0.00  0.00    +0.000 C 
ATOM      4  C   UNL     1      -0.952  11.062  20.249  0.00  0.00    +0.000 A 
ATOM      5  C   UNL     1      -0.851  11.163  21.635  0.00  0.00    +0.000 A 
ATOM      6  C   UNL     1       0.056  10.363  22.335  0.00  0.00    +0.000 A 
ATOM      7  C   UNL     1       0.872   9.452  21.652  0.00  0.00    +0.000 A 
ATOM      8  C   UNL     1       0.793   9.328  20.259  0.00  0.00    +0.000 A 
ATOM      9  C   UNL     1      -0.129  10.146  19.575  0.00  0.00    +0.000 A 
BRANCH   7  10
ATOM     10  O   UNL     1       1.763   8.710  22.378  0.00  0.00    +0.000 OA
ATOM     11  H   UNL     1       1.418   7.805  22.475  0.00  0.00    +0.000 HD
ENDBRANCH   7  10
ENDBRANCH   1   8
BRANCH   1  12
ATOM     12  S   UNL     1       2.148   8.942  17.821  0.00  0.00    +0.000 S 
ATOM     13  H   UNL     1       1.117   9.768  17.588  0.00  0.00    +0.000 HD
ENDBRANCH   1  12
BRANCH   2  14
ATOM     14  C   UNL     1       2.891   6.317  19.292  0.00  0.00    +0.000 C 
BRANCH  14  15
ATOM     15  C   UNL     1       2.264   4.897  19.495  0.00  0.00    +0.000 C 
ATOM     16  C   UNL     1       1.043   5.084  20.448  0.00  0.00    +0.000 C 
ATOM     17  C   UNL     1       1.714   4.306  18.161  0.00  0.00    +0.000 C 
ATOM     18  C   UNL     1       2.659   3.425  17.348  0.00  0.00    +0.000 C 
ATOM     19  C   UNL     1       3.369   2.399  18.218  0.00  0.00    +0.000 C 
ATOM     20  C   UNL     1       4.163   3.013  19.386  0.00  0.00    +0.000 C 
ATOM     21  C   UNL     1       5.418   3.759  18.904  0.00  0.00    +0.000 C 
ATOM     22  C   UNL     1       4.662   1.847  20.276  0.00  0.00    +0.000 C 
ATOM     23  C   UNL     1       3.239   3.924  20.233  0.00  0.00    +0.000 C 
BRANCH  18  24
ATOM     24  O   UNL     1       3.601   4.170  16.591  0.00  0.00    +0.000 OA
ATOM     25  H   UNL     1       3.154   4.940  16.202  0.00  0.00    +0.000 HD
ENDBRANCH  18  24
ENDBRANCH  14  15
ENDBRANCH   2  14
TORSDOF 6
ENDMDL
MODEL 7
REMARK VINA RESULT:      -6.6      4.172      7.383
REMARK  Name = 
REMARK  10 active torsions:
REMARK  status: ('A' for Active; 'I' for Inactive)
REMARK    1  A    between atoms: C_1  and  C_2
REMARK    2  A    between atoms: C_5  and  O_6
REMARK    3  A    between atoms: C_7  and  C_8
REMARK    4  A    between atoms: C_8  and  S_9
REMARK    5  A    between atoms: N_10  and  C_11
REMARK    6  A    between atoms: C_11  and  C_12
REMARK    7  A    between atoms: C_12  and  C_13
REMARK    8  A    between atoms: C_15  and  O_16
REMARK    9  A    between atoms: C_18  and  C_19
REMARK   10  A    between atoms: C_18  and  C_20
REMARK                            x       y       z     vdW  Elec       q    Type
REMARK                         _______ _______ _______ _____ _____    ______ ____
ROOT
ATOM      1  C   UNL     1       2.090   7.812  19.308  0.00  0.00    +0.000 C 
ATOM      2  N   UNL     1       2.323   6.768  20.033  0.00  0.00    +0.000 NA
ENDROOT
BRANCH   1   8
ATOM      3  C   UNL     1      -0.166   9.584  23.388  0.00  0.00    +0.000 C 
ATOM      4  C   UNL     1       0.049   9.683  21.906  0.00  0.00    +0.000 A 
ATOM      5  C   UNL     1      -0.618  10.641  21.143  0.00  0.00    +0.000 A 
ATOM      6  C   UNL     1      -0.409  10.711  19.764  0.00  0.00    +0.000 A 
ATOM      7  C   UNL     1       0.470   9.821  19.133  0.00  0.00    +0.000 A 
ATOM      8  C   UNL     1       1.155   8.849  19.874  0.00  0.00    +0.000 A 
ATOM      9  C   UNL     1       0.928   8.797  21.263  0.00  0.00    +0.000 A 
BRANCH   7  10
ATOM     10  O   UNL     1       0.620   9.912  17.776  0.00  0.00    +0.000 OA
ATOM     11  H   UNL     1      -0.206  10.248  17.387  0.00  0.00    +0.000 HD
ENDBRANCH   7  10
ENDBRANCH   1   8
BRANCH   1  12
ATOM     12  S   UNL     1       2.860   8.088  17.766  0.00  0.00    +0.000 S 
ATOM     13  H   UNL     1       2.266   9.260  17.498  0.00  0.00    +0.000 HD
ENDBRANCH   1  12
BRANCH   2  14
ATOM     14  C   UNL     1       3.252   5.692  19.692  0.00  0.00    +0.000 C 
BRANCH  14  15
ATOM     15  C   UNL     1       2.613   4.338  20.150  0.00  0.00    +0.000 C 
ATOM     16  C   UNL     1       2.533   4.390  21.708  0.00  0.00    +0.000 C 
ATOM     17  C   UNL     1       1.154   4.174  19.625  0.00  0.00    +0.000 C 
ATOM     18  C   UNL     1       0.971   3.447  18.295  0.00  0.00    +0.000 C 
ATOM     19  C   UNL     1       1.785   2.163  18.232  0.00  0.00    +0.000 C 
ATOM     20  C   UNL     1       3.293   2.368  18.469  0.00  0.00    +0.000 C 
ATOM     21  C   UNL     1       3.972   3.085  17.290  0.00  0.00    +0.000 C 
ATOM     22  C   UNL     1       3.946   0.966  18.563  0.00  0.00    +0.000 C 
ATOM     23  C   UNL     1       3.522   3.113  19.808  0.00  0.00    +0.000 C 
BRANCH  18  24
ATOM     24  O   UNL     1       1.249   4.267  17.170  0.00  0.00    +0.000 OA
ATOM     25  H   UNL     1       1.955   4.891  17.403  0.00  0.00    +0.000 HD
ENDBRANCH  18  24
ENDBRANCH  14  15
ENDBRANCH   2  14
TORSDOF 6
ENDMDL
MODEL 8
REMARK VINA RESULT:      -6.6      3.505      7.125
REMARK  Name = 
REMARK  10 active torsions:
REMARK  status: ('A' for Active; 'I' for Inactive)
REMARK    1  A    between atoms: C_1  and  C_2
REMARK    2  A    between atoms: C_5  and  O_6
REMARK    3  A    between atoms: C_7  and  C_8
REMARK    4  A    between atoms: C_8  and  S_9
REMARK    5  A    between atoms: N_10  and  C_11
REMARK    6  A    between atoms: C_11  and  C_12
REMARK    7  A    between atoms: C_12  and  C_13
REMARK    8  A    between atoms: C_15  and  O_16
REMARK    9  A    between atoms: C_18  and  C_19
REMARK   10  A    between atoms: C_18  and  C_20
REMARK                            x       y       z     vdW  Elec       q    Type
REMARK                         _______ _______ _______ _____ _____    ______ ____
ROOT
ATOM      1  C   UNL     1       2.160   6.112  19.261  0.00  0.00    +0.000 C 
ATOM      2  N   UNL     1       2.837   5.885  18.185  0.00  0.00    +0.000 NA
ENDROOT
BRANCH   1   8
ATOM      3  C   UNL     1       0.514   9.341  22.687  0.00  0.00    +0.000 C 
ATOM      4  C   UNL     1       0.984   9.104  21.282  0.00  0.00    +0.000 A 
ATOM      5  C   UNL     1       1.039  10.142  20.355  0.00  0.00    +0.000 A 
ATOM      6  C   UNL     1       1.472   9.898  19.049  0.00  0.00    +0.000 A 
ATOM      7  C   UNL     1       1.857   8.609  18.659  0.00  0.00    +0.000 A 
ATOM      8  C   UNL     1       1.814   7.545  19.569  0.00  0.00    +0.000 A 
ATOM      9  C   UNL     1       1.373   7.816  20.880  0.00  0.00    +0.000 A 
BRANCH   7  10
ATOM     10  O   UNL     1       2.249   8.415  17.363  0.00  0.00    +0.000 OA
ATOM     11  H   UNL     1       1.850   9.104  16.803  0.00  0.00    +0.000 HD
ENDBRANCH   7  10
ENDBRANCH   1   8
BRANCH   1  12
ATOM     12  S   UNL     1       1.582   4.838  20.305  0.00  0.00    +0.000 S 
ATOM     13  H   UNL     1       1.194   5.624  21.320  0.00  0.00    +0.000 HD
ENDBRANCH   1  12
BRANCH   2  14
ATOM     14  C   UNL     1       3.205   4.563  17.679  0.00  0.00    +0.000 C 
BRANCH  14  15
ATOM     15  C   UNL     1       4.728   4.341  17.968  0.00  0.00    +0.000 C 
ATOM     16  C   UNL     1       4.816   3.631  19.355  0.00  0.00    +0.000 C 
ATOM     17  C   UNL     1       5.387   3.388  16.926  0.00  0.00    +0.000 C 
ATOM     18  C   UNL     1       6.037   4.034  15.705  0.00  0.00    +0.000 C 
ATOM     19  C   UNL     1       6.917   5.215  16.088  0.00  0.00    +0.000 C 
ATOM     20  C   UNL     1       6.182   6.310  16.883  0.00  0.00    +0.000 C 
ATOM     21  C   UNL     1       5.185   7.088  16.009  0.00  0.00    +0.000 C 
ATOM     22  C   UNL     1       7.242   7.335  17.356  0.00  0.00    +0.000 C 
ATOM     23  C   UNL     1       5.499   5.691  18.129  0.00  0.00    +0.000 C 
BRANCH  18  24
ATOM     24  O   UNL     1       5.098   4.417  14.712  0.00  0.00    +0.000 OA
ATOM     25  H   UNL     1       5.416   4.116  13.845  0.00  0.00    +0.000 HD
ENDBRANCH  18  24
ENDBRANCH  14  15
ENDBRANCH   2  14
TORSDOF 6
ENDMDL
MODEL 9
REMARK VINA RESULT:      -6.5      4.366      7.981
REMARK  Name = 
REMARK  10 active torsions:
REMARK  status: ('A' for Active; 'I' for Inactive)
REMARK    1  A    between atoms: C_1  and  C_2
REMARK    2  A    between atoms: C_5  and  O_6
REMARK    3  A    between atoms: C_7  and  C_8
REMARK    4  A    between atoms: C_8  and  S_9
REMARK    5  A    between atoms: N_10  and  C_11
REMARK    6  A    between atoms: C_11  and  C_12
REMARK    7  A    between atoms: C_12  and  C_13
REMARK    8  A    between atoms: C_15  and  O_16
REMARK    9  A    between atoms: C_18  and  C_19
REMARK   10  A    between atoms: C_18  and  C_20
REMARK                            x       y       z     vdW  Elec       q    Type
REMARK                         _______ _______ _______ _____ _____    ______ ____
ROOT
ATOM      1  C   UNL     1       1.815   8.745  18.929  0.00  0.00    +0.000 C 
ATOM      2  N   UNL     1       2.258   7.534  18.877  0.00  0.00    +0.000 NA
ENDROOT
BRANCH   1   8
ATOM      3  C   UNL     1      -1.303  12.067  20.960  0.00  0.00    +0.000 C 
ATOM      4  C   UNL     1      -0.506  10.805  21.118  0.00  0.00    +0.000 A 
ATOM      5  C   UNL     1      -0.493  10.106  22.324  0.00  0.00    +0.000 A 
ATOM      6  C   UNL     1       0.262   8.938  22.452  0.00  0.00    +0.000 A 
ATOM      7  C   UNL     1       1.013   8.456  21.372  0.00  0.00    +0.000 A 
ATOM      8  C   UNL     1       1.019   9.136  20.147  0.00  0.00    +0.000 A 
ATOM      9  C   UNL     1       0.250  10.313  20.042  0.00  0.00    +0.000 A 
BRANCH   7  10
ATOM     10  O   UNL     1       1.756   7.322  21.554  0.00  0.00    +0.000 OA
ATOM     11  H   UNL     1       2.038   6.984  20.686  0.00  0.00    +0.000 HD
ENDBRANCH   7  10
ENDBRANCH   1   8
BRANCH   1  12
ATOM     12  S   UNL     1       2.162   9.937  17.702  0.00  0.00    +0.000 S 
ATOM     13  H   UNL     1       0.932   9.983  17.169  0.00  0.00    +0.000 HD
ENDBRANCH   1  12
BRANCH   2  14
ATOM     14  C   UNL     1       3.107   6.987  17.819  0.00  0.00    +0.000 C 
BRANCH  14  15
ATOM     15  C   UNL     1       3.760   5.668  18.354  0.00  0.00    +0.000 C 
ATOM     16  C   UNL     1       2.806   5.120  19.461  0.00  0.00    +0.000 C 
ATOM     17  C   UNL     1       3.852   4.573  17.250  0.00  0.00    +0.000 C 
ATOM     18  C   UNL     1       5.144   4.509  16.438  0.00  0.00    +0.000 C 
ATOM     19  C   UNL     1       6.377   4.578  17.327  0.00  0.00    +0.000 C 
ATOM     20  C   UNL     1       6.429   5.828  18.226  0.00  0.00    +0.000 C 
ATOM     21  C   UNL     1       6.700   7.109  17.419  0.00  0.00    +0.000 C 
ATOM     22  C   UNL     1       7.627   5.658  19.193  0.00  0.00    +0.000 C 
ATOM     23  C   UNL     1       5.128   5.935  19.061  0.00  0.00    +0.000 C 
BRANCH  18  24
ATOM     24  O   UNL     1       5.211   5.495  15.420  0.00  0.00    +0.000 OA
ATOM     25  H   UNL     1       6.137   5.609  15.153  0.00  0.00    +0.000 HD
ENDBRANCH  18  24
ENDBRANCH  14  15
ENDBRANCH   2  14
TORSDOF 6
ENDMDL
