MODEL 1
REMARK VINA RESULT:      -7.1      0.000      0.000
REMARK  Name = 
REMARK  6 active torsions:
REMARK  status: ('A' for Active; 'I' for Inactive)
REMARK    1  A    between atoms: N_7  and  C_8
REMARK    2  A    between atoms: C_8  and  C_9
REMARK    3  A    between atoms: C_9  and  P_10
REMARK    4  A    between atoms: P_10  and  C_11
REMARK    5  A    between atoms: P_10  and  C_17
REMARK    6  A    between atoms: P_10  and  C_23
REMARK                            x       y       z     vdW  Elec       q    Type
REMARK                         _______ _______ _______ _____ _____    ______ ____
ROOT
ATOM      1  P   UNL     1      -0.395  11.010  19.464  0.00  0.00    +0.000 P 
ENDROOT
BRANCH   1   2
ATOM      2  C   UNL     1       0.336  12.635  19.345  0.00  0.00    +0.000 A 
ATOM      3  C   UNL     1      -0.436  13.773  19.070  0.00  0.00    +0.000 A 
ATOM      4  C   UNL     1       0.154  15.035  18.955  0.00  0.00    +0.000 A 
ATOM      5  C   UNL     1       1.534  15.175  19.087  0.00  0.00    +0.000 A 
ATOM      6  C   UNL     1       2.318  14.054  19.338  0.00  0.00    +0.000 A 
ATOM      7  C   UNL     1       1.724  12.796  19.465  0.00  0.00    +0.000 A 
ENDBRANCH   1   2
BRANCH   1   8
ATOM      8  C   UNL     1       0.768   9.685  19.203  0.00  0.00    +0.000 A 
ATOM      9  C   UNL     1       1.415   9.532  17.971  0.00  0.00    +0.000 A 
ATOM     10  C   UNL     1       2.286   8.463  17.743  0.00  0.00    +0.000 A 
ATOM     11  C   UNL     1       2.536   7.535  18.751  0.00  0.00    +0.000 A 
ATOM     12  C   UNL     1       1.934   7.696  19.996  0.00  0.00    +0.000 A 
ATOM     13  C   UNL     1       1.069   8.769  20.224  0.00  0.00    +0.000 A 
ENDBRANCH   1   8
BRANCH   1  14
ATOM     14  C   UNL     1      -1.741  10.844  18.284  0.00  0.00    +0.000 A 
ATOM     15  C   UNL     1      -2.942  11.557  18.436  0.00  0.00    +0.000 A 
ATOM     16  C   UNL     1      -3.977  11.442  17.508  0.00  0.00    +0.000 A 
ATOM     17  C   UNL     1      -3.826  10.613  16.404  0.00  0.00    +0.000 A 
ATOM     18  C   UNL     1      -2.639   9.903  16.226  0.00  0.00    +0.000 A 
ATOM     19  C   UNL     1      -1.603  10.019  17.161  0.00  0.00    +0.000 A 
ENDBRANCH   1  14
BRANCH   1  20
ATOM     20  C   UNL     1      -1.136  10.888  21.118  0.00  0.00    +0.000 C 
BRANCH  20  21
ATOM     21  C   UNL     1      -0.416  11.528  22.288  0.00  0.00    +0.000 C 
BRANCH  21  28
ATOM     22  O   UNL     1      -3.123  11.856  23.621  0.00  0.00    +0.000 OA
ATOM     23  C   UNL     1      -2.376  12.758  23.283  0.00  0.00    +0.000 C 
ATOM     24  C   UNL     1      -2.727  14.171  23.455  0.00  0.00    +0.000 C 
ATOM     25  C   UNL     1      -1.660  14.895  23.117  0.00  0.00    +0.000 C 
ATOM     26  C   UNL     1      -0.591  13.963  22.732  0.00  0.00    +0.000 C 
ATOM     27  O   UNL     1       0.554  14.313  22.496  0.00  0.00    +0.000 OA
ATOM     28  N   UNL     1      -1.101  12.706  22.810  0.00  0.00    +0.000 N 
ENDBRANCH  21  28
ENDBRANCH  20  21
ENDBRANCH   1  20
TORSDOF 6
ENDMDL
MODEL 2
REMARK VINA RESULT:      -7.0      0.155      4.522
REMARK  Name = 
REMARK  6 active torsions:
REMARK  status: ('A' for Active; 'I' for Inactive)
REMARK    1  A    between atoms: N_7  and  C_8
REMARK    2  A    between atoms: C_8  and  C_9
REMARK    3  A    between atoms: C_9  and  P_10
REMARK    4  A    between atoms: P_10  and  C_11
REMARK    5  A    between atoms: P_10  and  C_17
REMARK    6  A    between atoms: P_10  and  C_23
REMARK                            x       y       z     vdW  Elec       q    Type
REMARK                         _______ _______ _______ _____ _____    ______ ____
ROOT
ATOM      1  P   UNL     1      -0.459  10.909  19.341  0.00  0.00    +0.000 P 
ENDROOT
BRANCH   1   2
ATOM      2  C   UNL     1       0.749   9.608  19.146  0.00  0.00    +0.000 A 
ATOM      3  C   UNL     1       1.402   9.386  17.925  0.00  0.00    +0.000 A 
ATOM      4  C   UNL     1       2.327   8.347  17.781  0.00  0.00    +0.000 A 
ATOM      5  C   UNL     1       2.595   7.497  18.851  0.00  0.00    +0.000 A 
ATOM      6  C   UNL     1       1.939   7.688  20.063  0.00  0.00    +0.000 A 
ATOM      7  C   UNL     1       1.025   8.735  20.208  0.00  0.00    +0.000 A 
ENDBRANCH   1   2
BRANCH   1   8
ATOM      8  C   UNL     1      -1.811  10.807  18.184  0.00  0.00    +0.000 A 
ATOM      9  C   UNL     1      -1.724   9.988  17.052  0.00  0.00    +0.000 A 
ATOM     10  C   UNL     1      -2.758   9.945  16.112  0.00  0.00    +0.000 A 
ATOM     11  C   UNL     1      -3.905  10.712  16.298  0.00  0.00    +0.000 A 
ATOM     12  C   UNL     1      -4.027  11.499  17.439  0.00  0.00    +0.000 A 
ATOM     13  C   UNL     1      -2.995  11.535  18.380  0.00  0.00    +0.000 A 
ENDBRANCH   1   8
BRANCH   1  14
ATOM     14  C   UNL     1       0.326  12.518  19.179  0.00  0.00    +0.000 A 
ATOM     15  C   UNL     1      -0.430  13.685  18.975  0.00  0.00    +0.000 A 
ATOM     16  C   UNL     1       0.180  14.935  18.870  0.00  0.00    +0.000 A 
ATOM     17  C   UNL     1       1.561  15.041  18.972  0.00  0.00    +0.000 A 
ATOM     18  C   UNL     1       2.331  13.898  19.184  0.00  0.00    +0.000 A 
ATOM     19  C   UNL     1       1.716  12.644  19.287  0.00  0.00    +0.000 A 
ENDBRANCH   1  14
BRANCH   1  20
ATOM     20  C   UNL     1      -1.075  10.802  21.047  0.00  0.00    +0.000 C 
BRANCH  20  21
ATOM     21  C   UNL     1      -0.291  11.486  22.149  0.00  0.00    +0.000 C 
BRANCH  21  28
ATOM     22  O   UNL     1      -2.976  11.769  23.537  0.00  0.00    +0.000 OA
ATOM     23  C   UNL     1      -2.241  12.683  23.201  0.00  0.00    +0.000 C 
ATOM     24  C   UNL     1      -2.600  14.090  23.405  0.00  0.00    +0.000 C 
ATOM     25  C   UNL     1      -1.545  14.829  23.060  0.00  0.00    +0.000 C 
ATOM     26  C   UNL     1      -0.476  13.912  22.639  0.00  0.00    +0.000 C 
ATOM     27  O   UNL     1       0.662  14.274  22.389  0.00  0.00    +0.000 OA
ATOM     28  N   UNL     1      -0.975  12.649  22.704  0.00  0.00    +0.000 N 
ENDBRANCH  21  28
ENDBRANCH  20  21
ENDBRANCH   1  20
TORSDOF 6
ENDMDL
MODEL 3
REMARK VINA RESULT:      -7.0      0.082      1.288
REMARK  Name = 
REMARK  6 active torsions:
REMARK  status: ('A' for Active; 'I' for Inactive)
REMARK    1  A    between atoms: N_7  and  C_8
REMARK    2  A    between atoms: C_8  and  C_9
REMARK    3  A    between atoms: C_9  and  P_10
REMARK    4  A    between atoms: P_10  and  C_11
REMARK    5  A    between atoms: P_10  and  C_17
REMARK    6  A    between atoms: P_10  and  C_23
REMARK                            x       y       z     vdW  Elec       q    Type
REMARK                         _______ _______ _______ _____ _____    ______ ____
ROOT
ATOM      1  P   UNL     1      -0.394  11.018  19.439  0.00  0.00    +0.000 P 
ENDROOT
BRANCH   1   2
ATOM      2  C   UNL     1       0.381  12.618  19.265  0.00  0.00    +0.000 A 
ATOM      3  C   UNL     1       1.763  12.790  19.427  0.00  0.00    +0.000 A 
ATOM      4  C   UNL     1       2.351  14.053  19.313  0.00  0.00    +0.000 A 
ATOM      5  C   UNL     1       1.560  15.171  19.061  0.00  0.00    +0.000 A 
ATOM      6  C   UNL     1       0.184  15.023  18.920  0.00  0.00    +0.000 A 
ATOM      7  C   UNL     1      -0.399  13.757  19.022  0.00  0.00    +0.000 A 
ENDBRANCH   1   2
BRANCH   1   8
ATOM      8  C   UNL     1       0.727   9.654  19.198  0.00  0.00    +0.000 A 
ATOM      9  C   UNL     1       0.991   8.751  20.235  0.00  0.00    +0.000 A 
ATOM     10  C   UNL     1       1.909   7.711  20.069  0.00  0.00    +0.000 A 
ATOM     11  C   UNL     1       2.571   7.547  18.854  0.00  0.00    +0.000 A 
ATOM     12  C   UNL     1       2.289   8.409  17.799  0.00  0.00    +0.000 A 
ATOM     13  C   UNL     1       1.366   9.444  17.965  0.00  0.00    +0.000 A 
ENDBRANCH   1   8
BRANCH   1  14
ATOM     14  C   UNL     1      -1.761  10.859  18.282  0.00  0.00    +0.000 A 
ATOM     15  C   UNL     1      -2.958  11.572  18.459  0.00  0.00    +0.000 A 
ATOM     16  C   UNL     1      -4.010  11.462  17.549  0.00  0.00    +0.000 A 
ATOM     17  C   UNL     1      -3.880  10.639  16.438  0.00  0.00    +0.000 A 
ATOM     18  C   UNL     1      -2.696   9.929  16.236  0.00  0.00    +0.000 A 
ATOM     19  C   UNL     1      -1.644  10.039  17.152  0.00  0.00    +0.000 A 
ENDBRANCH   1  14
BRANCH   1  20
ATOM     20  C   UNL     1      -1.114  10.960  21.105  0.00  0.00    +0.000 C 
BRANCH  20  21
ATOM     21  C   UNL     1      -0.380  11.648  22.240  0.00  0.00    +0.000 C 
BRANCH  21  28
ATOM     22  O   UNL     1      -3.079  11.818  23.620  0.00  0.00    +0.000 OA
ATOM     23  C   UNL     1      -2.381  12.761  23.288  0.00  0.00    +0.000 C 
ATOM     24  C   UNL     1      -2.798  14.152  23.494  0.00  0.00    +0.000 C 
ATOM     25  C   UNL     1      -1.773  14.934  23.154  0.00  0.00    +0.000 C 
ATOM     26  C   UNL     1      -0.667  14.063  22.734  0.00  0.00    +0.000 C 
ATOM     27  O   UNL     1       0.456  14.472  22.488  0.00  0.00    +0.000 OA
ATOM     28  N   UNL     1      -1.113  12.781  22.795  0.00  0.00    +0.000 N 
ENDBRANCH  21  28
ENDBRANCH  20  21
ENDBRANCH   1  20
TORSDOF 6
ENDMDL
MODEL 4
REMARK VINA RESULT:      -6.8      1.037      4.644
REMARK  Name = 
REMARK  6 active torsions:
REMARK  status: ('A' for Active; 'I' for Inactive)
REMARK    1  A    between atoms: N_7  and  C_8
REMARK    2  A    between atoms: C_8  and  C_9
REMARK    3  A    between atoms: C_9  and  P_10
REMARK    4  A    between atoms: P_10  and  C_11
REMARK    5  A    between atoms: P_10  and  C_17
REMARK    6  A    between atoms: P_10  and  C_23
REMARK                            x       y       z     vdW  Elec       q    Type
REMARK                         _______ _______ _______ _____ _____    ______ ____
ROOT
ATOM      1  P   UNL     1      -0.335  11.208  19.603  0.00  0.00    +0.000 P 
ENDROOT
BRANCH   1   2
ATOM      2  C   UNL     1      -1.791  11.037  18.583  0.00  0.00    +0.000 A 
ATOM      3  C   UNL     1      -1.792  10.245  17.426  0.00  0.00    +0.000 A 
ATOM      4  C   UNL     1      -2.932  10.141  16.624  0.00  0.00    +0.000 A 
ATOM      5  C   UNL     1      -4.084  10.850  16.953  0.00  0.00    +0.000 A 
ATOM      6  C   UNL     1      -4.095  11.659  18.084  0.00  0.00    +0.000 A 
ATOM      7  C   UNL     1      -2.957  11.751  18.891  0.00  0.00    +0.000 A 
ENDBRANCH   1   2
BRANCH   1   8
ATOM      8  C   UNL     1       0.595  12.693  19.276  0.00  0.00    +0.000 A 
ATOM      9  C   UNL     1       1.960  12.765  19.580  0.00  0.00    +0.000 A 
ATOM     10  C   UNL     1       2.682  13.943  19.376  0.00  0.00    +0.000 A 
ATOM     11  C   UNL     1       2.052  15.069  18.849  0.00  0.00    +0.000 A 
ATOM     12  C   UNL     1       0.707  15.002  18.501  0.00  0.00    +0.000 A 
ATOM     13  C   UNL     1      -0.012  13.820  18.699  0.00  0.00    +0.000 A 
ENDBRANCH   1   8
BRANCH   1  14
ATOM     14  C   UNL     1       0.745   9.786  19.391  0.00  0.00    +0.000 A 
ATOM     15  C   UNL     1       0.987   8.886  20.443  0.00  0.00    +0.000 A 
ATOM     16  C   UNL     1       1.809   7.773  20.270  0.00  0.00    +0.000 A 
ATOM     17  C   UNL     1       2.402   7.536  19.036  0.00  0.00    +0.000 A 
ATOM     18  C   UNL     1       2.168   8.411  17.975  0.00  0.00    +0.000 A 
ATOM     19  C   UNL     1       1.344   9.528  18.152  0.00  0.00    +0.000 A 
ENDBRANCH   1  14
BRANCH   1  20
ATOM     20  C   UNL     1      -0.898  11.180  21.330  0.00  0.00    +0.000 C 
BRANCH  20  21
ATOM     21  C   UNL     1      -0.906  12.477  22.115  0.00  0.00    +0.000 C 
BRANCH  21  28
ATOM     22  O   UNL     1      -3.294  11.647  23.795  0.00  0.00    +0.000 OA
ATOM     23  C   UNL     1      -3.281  12.527  22.951  0.00  0.00    +0.000 C 
ATOM     24  C   UNL     1      -4.480  13.300  22.608  0.00  0.00    +0.000 C 
ATOM     25  C   UNL     1      -4.110  14.261  21.762  0.00  0.00    +0.000 C 
ATOM     26  C   UNL     1      -2.661  14.139  21.551  0.00  0.00    +0.000 C 
ATOM     27  O   UNL     1      -2.000  14.954  20.930  0.00  0.00    +0.000 OA
ATOM     28  N   UNL     1      -2.238  13.055  22.255  0.00  0.00    +0.000 N 
ENDBRANCH  21  28
ENDBRANCH  20  21
ENDBRANCH   1  20
TORSDOF 6
ENDMDL
MODEL 5
REMARK VINA RESULT:      -6.8      0.220      1.685
REMARK  Name = 
REMARK  6 active torsions:
REMARK  status: ('A' for Active; 'I' for Inactive)
REMARK    1  A    between atoms: N_7  and  C_8
REMARK    2  A    between atoms: C_8  and  C_9
REMARK    3  A    between atoms: C_9  and  P_10
REMARK    4  A    between atoms: P_10  and  C_11
REMARK    5  A    between atoms: P_10  and  C_17
REMARK    6  A    between atoms: P_10  and  C_23
REMARK                            x       y       z     vdW  Elec       q    Type
REMARK                         _______ _______ _______ _____ _____    ______ ____
ROOT
ATOM      1  P   UNL     1      -0.489  11.057  19.464  0.00  0.00    +0.000 P 
ENDROOT
BRANCH   1   2
ATOM      2  C   UNL     1       0.290  12.656  19.294  0.00  0.00    +0.000 A 
ATOM      3  C   UNL     1      -0.455  13.816  19.037  0.00  0.00    +0.000 A 
ATOM      4  C   UNL     1       0.172  15.056  18.883  0.00  0.00    +0.000 A 
ATOM      5  C   UNL     1       1.559  15.151  18.957  0.00  0.00    +0.000 A 
ATOM      6  C   UNL     1       2.316  14.007  19.188  0.00  0.00    +0.000 A 
ATOM      7  C   UNL     1       1.686  12.771  19.355  0.00  0.00    +0.000 A 
ENDBRANCH   1   2
BRANCH   1   8
ATOM      8  C   UNL     1       0.634   9.690  19.248  0.00  0.00    +0.000 A 
ATOM      9  C   UNL     1       0.920   8.824  20.310  0.00  0.00    +0.000 A 
ATOM     10  C   UNL     1       1.840   7.783  20.163  0.00  0.00    +0.000 A 
ATOM     11  C   UNL     1       2.481   7.582  18.942  0.00  0.00    +0.000 A 
ATOM     12  C   UNL     1       2.177   8.407  17.864  0.00  0.00    +0.000 A 
ATOM     13  C   UNL     1       1.252   9.443  18.012  0.00  0.00    +0.000 A 
ENDBRANCH   1   8
BRANCH   1  14
ATOM     14  C   UNL     1      -1.838  10.893  18.286  0.00  0.00    +0.000 A 
ATOM     15  C   UNL     1      -3.047  11.588  18.454  0.00  0.00    +0.000 A 
ATOM     16  C   UNL     1      -4.084  11.475  17.528  0.00  0.00    +0.000 A 
ATOM     17  C   UNL     1      -3.928  10.666  16.410  0.00  0.00    +0.000 A 
ATOM     18  C   UNL     1      -2.732   9.975  16.217  0.00  0.00    +0.000 A 
ATOM     19  C   UNL     1      -1.694  10.089  17.149  0.00  0.00    +0.000 A 
ENDBRANCH   1  14
BRANCH   1  20
ATOM     20  C   UNL     1      -1.236  11.010  21.118  0.00  0.00    +0.000 C 
BRANCH  20  21
ATOM     21  C   UNL     1      -0.490  11.649  22.273  0.00  0.00    +0.000 C 
BRANCH  21  28
ATOM     22  O   UNL     1       0.406  14.547  22.411  0.00  0.00    +0.000 OA
ATOM     23  C   UNL     1      -0.602  14.082  22.915  0.00  0.00    +0.000 C 
ATOM     24  C   UNL     1      -1.524  14.897  23.713  0.00  0.00    +0.000 C 
ATOM     25  C   UNL     1      -2.582  14.140  24.004  0.00  0.00    +0.000 C 
ATOM     26  C   UNL     1      -2.371  12.822  23.389  0.00  0.00    +0.000 C 
ATOM     27  O   UNL     1      -3.221  11.947  23.364  0.00  0.00    +0.000 OA
ATOM     28  N   UNL     1      -1.150  12.843  22.793  0.00  0.00    +0.000 N 
ENDBRANCH  21  28
ENDBRANCH  20  21
ENDBRANCH   1  20
TORSDOF 6
ENDMDL
MODEL 6
REMARK VINA RESULT:      -6.8      2.925      6.327
REMARK  Name = 
REMARK  6 active torsions:
REMARK  status: ('A' for Active; 'I' for Inactive)
REMARK    1  A    between atoms: N_7  and  C_8
REMARK    2  A    between atoms: C_8  and  C_9
REMARK    3  A    between atoms: C_9  and  P_10
REMARK    4  A    between atoms: P_10  and  C_11
REMARK    5  A    between atoms: P_10  and  C_17
REMARK    6  A    between atoms: P_10  and  C_23
REMARK                            x       y       z     vdW  Elec       q    Type
REMARK                         _______ _______ _______ _____ _____    ______ ____
ROOT
ATOM      1  P   UNL     1      -0.021  10.716  18.888  0.00  0.00    +0.000 P 
ENDROOT
BRANCH   1   2
ATOM      2  C   UNL     1       0.906  12.226  18.666  0.00  0.00    +0.000 A 
ATOM      3  C   UNL     1       2.272  12.213  18.351  0.00  0.00    +0.000 A 
ATOM      4  C   UNL     1       2.990  13.404  18.204  0.00  0.00    +0.000 A 
ATOM      5  C   UNL     1       2.356  14.629  18.397  0.00  0.00    +0.000 A 
ATOM      6  C   UNL     1       1.007  14.661  18.732  0.00  0.00    +0.000 A 
ATOM      7  C   UNL     1       0.289  13.469  18.865  0.00  0.00    +0.000 A 
ENDBRANCH   1   2
BRANCH   1   8
ATOM      8  C   UNL     1      -1.570  10.694  18.006  0.00  0.00    +0.000 A 
ATOM      9  C   UNL     1      -1.750   9.862  16.895  0.00  0.00    +0.000 A 
ATOM     10  C   UNL     1      -2.942   9.879  16.166  0.00  0.00    +0.000 A 
ATOM     11  C   UNL     1      -3.984  10.721  16.548  0.00  0.00    +0.000 A 
ATOM     12  C   UNL     1      -3.839  11.524  17.676  0.00  0.00    +0.000 A 
ATOM     13  C   UNL     1      -2.648  11.500  18.406  0.00  0.00    +0.000 A 
ENDBRANCH   1   8
BRANCH   1  14
ATOM     14  C   UNL     1      -0.343  10.434  20.635  0.00  0.00    +0.000 A 
ATOM     15  C   UNL     1      -0.262   9.148  21.196  0.00  0.00    +0.000 A 
ATOM     16  C   UNL     1      -0.492   8.935  22.555  0.00  0.00    +0.000 A 
ATOM     17  C   UNL     1      -0.802  10.008  23.381  0.00  0.00    +0.000 A 
ATOM     18  C   UNL     1      -0.877  11.294  22.848  0.00  0.00    +0.000 A 
ATOM     19  C   UNL     1      -0.649  11.505  21.483  0.00  0.00    +0.000 A 
ENDBRANCH   1  14
BRANCH   1  20
ATOM     20  C   UNL     1       1.046   9.357  18.330  0.00  0.00    +0.000 C 
BRANCH  20  21
ATOM     21  C   UNL     1       2.087   8.809  19.286  0.00  0.00    +0.000 C 
BRANCH  21  28
ATOM     22  O   UNL     1       3.809   7.630  17.081  0.00  0.00    +0.000 OA
ATOM     23  C   UNL     1       3.155   7.001  17.896  0.00  0.00    +0.000 C 
ATOM     24  C   UNL     1       3.092   5.535  17.885  0.00  0.00    +0.000 C 
ATOM     25  C   UNL     1       2.415   5.153  18.968  0.00  0.00    +0.000 C 
ATOM     26  C   UNL     1       2.038   6.364  19.710  0.00  0.00    +0.000 C 
ATOM     27  O   UNL     1       1.523   6.343  20.816  0.00  0.00    +0.000 OA
ATOM     28  N   UNL     1       2.472   7.433  18.990  0.00  0.00    +0.000 N 
ENDBRANCH  21  28
ENDBRANCH  20  21
ENDBRANCH   1  20
TORSDOF 6
ENDMDL
MODEL 7
REMARK VINA RESULT:      -6.7      0.957      1.653
REMARK  Name = 
REMARK  6 active torsions:
REMARK  status: ('A' for Active; 'I' for Inactive)
REMARK    1  A    between atoms: N_7  and  C_8
REMARK    2  A    between atoms: C_8  and  C_9
REMARK    3  A    between atoms: C_9  and  P_10
REMARK    4  A    between atoms: P_10  and  C_11
REMARK    5  A    between atoms: P_10  and  C_17
REMARK    6  A    between atoms: P_10  and  C_23
REMARK                            x       y       z     vdW  Elec       q    Type
REMARK                         _______ _______ _______ _____ _____    ______ ____
ROOT
ATOM      1  P   UNL     1      -0.268  11.189  19.665  0.00  0.00    +0.000 P 
ENDROOT
BRANCH   1   2
ATOM      2  C   UNL     1       0.552  12.740  19.329  0.00  0.00    +0.000 A 
ATOM      3  C   UNL     1      -0.119  13.813  18.726  0.00  0.00    +0.000 A 
ATOM      4  C   UNL     1       0.544  15.012  18.447  0.00  0.00    +0.000 A 
ATOM      5  C   UNL     1       1.898  15.147  18.744  0.00  0.00    +0.000 A 
ATOM      6  C   UNL     1       2.585  14.085  19.321  0.00  0.00    +0.000 A 
ATOM      7  C   UNL     1       1.917  12.892  19.611  0.00  0.00    +0.000 A 
ENDBRANCH   1   2
BRANCH   1   8
ATOM      8  C   UNL     1       0.750   9.761  19.348  0.00  0.00    +0.000 A 
ATOM      9  C   UNL     1       1.032   8.842  20.366  0.00  0.00    +0.000 A 
ATOM     10  C   UNL     1       1.873   7.749  20.139  0.00  0.00    +0.000 A 
ATOM     11  C   UNL     1       2.436   7.549  18.881  0.00  0.00    +0.000 A 
ATOM     12  C   UNL     1       2.133   8.429  17.846  0.00  0.00    +0.000 A 
ATOM     13  C   UNL     1       1.287   9.516  18.074  0.00  0.00    +0.000 A 
ENDBRANCH   1   8
BRANCH   1  14
ATOM     14  C   UNL     1      -1.774  11.057  18.691  0.00  0.00    +0.000 A 
ATOM     15  C   UNL     1      -1.855  10.204  17.578  0.00  0.00    +0.000 A 
ATOM     16  C   UNL     1      -3.031  10.088  16.837  0.00  0.00    +0.000 A 
ATOM     17  C   UNL     1      -4.153  10.821  17.200  0.00  0.00    +0.000 A 
ATOM     18  C   UNL     1      -4.099  11.666  18.309  0.00  0.00    +0.000 A 
ATOM     19  C   UNL     1      -2.917  11.782  19.049  0.00  0.00    +0.000 A 
ENDBRANCH   1  14
BRANCH   1  20
ATOM     20  C   UNL     1      -0.778  11.231  21.407  0.00  0.00    +0.000 C 
BRANCH  20  21
ATOM     21  C   UNL     1      -0.741  12.555  22.146  0.00  0.00    +0.000 C 
BRANCH  21  28
ATOM     22  O   UNL     1      -3.170  11.617  23.706  0.00  0.00    +0.000 OA
ATOM     23  C   UNL     1      -3.125  12.578  22.957  0.00  0.00    +0.000 C 
ATOM     24  C   UNL     1      -4.300  13.410  22.681  0.00  0.00    +0.000 C 
ATOM     25  C   UNL     1      -3.897  14.443  21.941  0.00  0.00    +0.000 C 
ATOM     26  C   UNL     1      -2.449  14.307  21.735  0.00  0.00    +0.000 C 
ATOM     27  O   UNL     1      -1.760  15.165  21.207  0.00  0.00    +0.000 OA
ATOM     28  N   UNL     1      -2.061  13.148  22.329  0.00  0.00    +0.000 N 
ENDBRANCH  21  28
ENDBRANCH  20  21
ENDBRANCH   1  20
TORSDOF 6
ENDMDL
MODEL 8
REMARK VINA RESULT:      -6.7      2.944      6.229
REMARK  Name = 
REMARK  6 active torsions:
REMARK  status: ('A' for Active; 'I' for Inactive)
REMARK    1  A    between atoms: N_7  and  C_8
REMARK    2  A    between atoms: C_8  and  C_9
REMARK    3  A    between atoms: C_9  and  P_10
REMARK    4  A    between atoms: P_10  and  C_11
REMARK    5  A    between atoms: P_10  and  C_17
REMARK    6  A    between atoms: P_10  and  C_23
REMARK                            x       y       z     vdW  Elec       q    Type
REMARK                         _______ _______ _______ _____ _____    ______ ____
ROOT
ATOM      1  P   UNL     1       0.029  10.707  18.936  0.00  0.00    +0.000 P 
ENDROOT
BRANCH   1   2
ATOM      2  C   UNL     1       0.962  12.215  18.716  0.00  0.00    +0.000 A 
ATOM      3  C   UNL     1       0.375  13.476  18.888  0.00  0.00    +0.000 A 
ATOM      4  C   UNL     1       1.113  14.648  18.689  0.00  0.00    +0.000 A 
ATOM      5  C   UNL     1       2.444  14.575  18.287  0.00  0.00    +0.000 A 
ATOM      6  C   UNL     1       3.036  13.332  18.089  0.00  0.00    +0.000 A 
ATOM      7  C   UNL     1       2.300  12.163  18.302  0.00  0.00    +0.000 A 
ENDBRANCH   1   2
BRANCH   1   8
ATOM      8  C   UNL     1      -1.523  10.695  18.059  0.00  0.00    +0.000 A 
ATOM      9  C   UNL     1      -1.711   9.867  16.946  0.00  0.00    +0.000 A 
ATOM     10  C   UNL     1      -2.906   9.892  16.223  0.00  0.00    +0.000 A 
ATOM     11  C   UNL     1      -3.942  10.739  16.611  0.00  0.00    +0.000 A 
ATOM     12  C   UNL     1      -3.788  11.538  17.740  0.00  0.00    +0.000 A 
ATOM     13  C   UNL     1      -2.595  11.506  18.466  0.00  0.00    +0.000 A 
ENDBRANCH   1   8
BRANCH   1  14
ATOM     14  C   UNL     1      -0.287  10.418  20.682  0.00  0.00    +0.000 A 
ATOM     15  C   UNL     1      -0.618  11.471  21.551  0.00  0.00    +0.000 A 
ATOM     16  C   UNL     1      -0.883  11.241  22.901  0.00  0.00    +0.000 A 
ATOM     17  C   UNL     1      -0.826   9.949  23.407  0.00  0.00    +0.000 A 
ATOM     18  C   UNL     1      -0.508   8.887  22.561  0.00  0.00    +0.000 A 
ATOM     19  C   UNL     1      -0.241   9.121  21.206  0.00  0.00    +0.000 A 
ENDBRANCH   1  14
BRANCH   1  20
ATOM     20  C   UNL     1       1.089   9.346  18.367  0.00  0.00    +0.000 C 
BRANCH  20  21
ATOM     21  C   UNL     1       2.102   8.760  19.332  0.00  0.00    +0.000 C 
BRANCH  21  28
ATOM     22  O   UNL     1       3.801   7.623  17.088  0.00  0.00    +0.000 OA
ATOM     23  C   UNL     1       3.154   6.979  17.896  0.00  0.00    +0.000 C 
ATOM     24  C   UNL     1       3.088   5.514  17.855  0.00  0.00    +0.000 C 
ATOM     25  C   UNL     1       2.421   5.111  18.937  0.00  0.00    +0.000 C 
ATOM     26  C   UNL     1       2.053   6.308  19.706  0.00  0.00    +0.000 C 
ATOM     27  O   UNL     1       1.548   6.265  20.816  0.00  0.00    +0.000 OA
ATOM     28  N   UNL     1       2.482   7.390  19.005  0.00  0.00    +0.000 N 
ENDBRANCH  21  28
ENDBRANCH  20  21
ENDBRANCH   1  20
TORSDOF 6
ENDMDL
MODEL 9
REMARK VINA RESULT:      -6.7      0.297      4.762
REMARK  Name = 
REMARK  6 active torsions:
REMARK  status: ('A' for Active; 'I' for Inactive)
REMARK    1  A    between atoms: N_7  and  C_8
REMARK    2  A    between atoms: C_8  and  C_9
REMARK    3  A    between atoms: C_9  and  P_10
REMARK    4  A    between atoms: P_10  and  C_11
REMARK    5  A    between atoms: P_10  and  C_17
REMARK    6  A    between atoms: P_10  and  C_23
REMARK                            x       y       z     vdW  Elec       q    Type
REMARK                         _______ _______ _______ _____ _____    ______ ____
ROOT
ATOM      1  P   UNL     1      -0.621  11.054  19.371  0.00  0.00    +0.000 P 
ENDROOT
BRANCH   1   2
ATOM      2  C   UNL     1       0.539   9.706  19.207  0.00  0.00    +0.000 A 
ATOM      3  C   UNL     1       0.919   8.923  20.306  0.00  0.00    +0.000 A 
ATOM      4  C   UNL     1       1.848   7.887  20.167  0.00  0.00    +0.000 A 
ATOM      5  C   UNL     1       2.431   7.634  18.928  0.00  0.00    +0.000 A 
ATOM      6  C   UNL     1       2.084   8.416  17.831  0.00  0.00    +0.000 A 
ATOM      7  C   UNL     1       1.146   9.443  17.971  0.00  0.00    +0.000 A 
ENDBRANCH   1   2
BRANCH   1   8
ATOM      8  C   UNL     1      -1.967  10.981  18.205  0.00  0.00    +0.000 A 
ATOM      9  C   UNL     1      -1.820  10.318  16.981  0.00  0.00    +0.000 A 
ATOM     10  C   UNL     1      -2.854  10.304  16.040  0.00  0.00    +0.000 A 
ATOM     11  C   UNL     1      -4.061  10.942  16.316  0.00  0.00    +0.000 A 
ATOM     12  C   UNL     1      -4.240  11.570  17.545  0.00  0.00    +0.000 A 
ATOM     13  C   UNL     1      -3.208  11.577  18.487  0.00  0.00    +0.000 A 
ENDBRANCH   1   8
BRANCH   1  14
ATOM     14  C   UNL     1       0.224  12.630  19.185  0.00  0.00    +0.000 A 
ATOM     15  C   UNL     1      -0.486  13.822  18.968  0.00  0.00    +0.000 A 
ATOM     16  C   UNL     1       0.170  15.047  18.845  0.00  0.00    +0.000 A 
ATOM     17  C   UNL     1       1.555  15.101  18.942  0.00  0.00    +0.000 A 
ATOM     18  C   UNL     1       2.281  13.932  19.168  0.00  0.00    +0.000 A 
ATOM     19  C   UNL     1       1.619  12.704  19.289  0.00  0.00    +0.000 A 
ENDBRANCH   1  14
BRANCH   1  20
ATOM     20  C   UNL     1      -1.252  11.001  21.073  0.00  0.00    +0.000 C 
BRANCH  20  21
ATOM     21  C   UNL     1      -0.451  11.677  22.168  0.00  0.00    +0.000 C 
BRANCH  21  28
ATOM     22  O   UNL     1       0.446  14.569  22.402  0.00  0.00    +0.000 OA
ATOM     23  C   UNL     1      -0.566  14.089  22.886  0.00  0.00    +0.000 C 
ATOM     24  C   UNL     1      -1.492  14.879  23.704  0.00  0.00    +0.000 C 
ATOM     25  C   UNL     1      -2.551  14.113  23.965  0.00  0.00    +0.000 C 
ATOM     26  C   UNL     1      -2.338  12.815  23.310  0.00  0.00    +0.000 C 
ATOM     27  O   UNL     1      -3.188  11.942  23.252  0.00  0.00    +0.000 OA
ATOM     28  N   UNL     1      -1.113  12.854  22.722  0.00  0.00    +0.000 N 
ENDBRANCH  21  28
ENDBRANCH  20  21
ENDBRANCH   1  20
TORSDOF 6
ENDMDL
