MODEL 1
REMARK VINA RESULT:      -8.3      0.000      0.000
REMARK  Name = 
REMARK  7 active torsions:
REMARK  status: ('A' for Active; 'I' for Inactive)
REMARK    1  A    between atoms: C_1  and  N_2
REMARK    2  A    between atoms: C_10  and  N_11
REMARK    3  A    between atoms: N_11  and  C_12
REMARK    4  A    between atoms: C_12  and  C_13
REMARK    5  A    between atoms: C_16  and  O_17
REMARK    6  A    between atoms: O_17  and  C_18
REMARK    7  A    between atoms: C_18  and  C_19
REMARK                            x       y       z     vdW  Elec       q    Type
REMARK                         _______ _______ _______ _____ _____    ______ ____
ROOT
ATOM      1  C   UNL     1       5.935   5.312  18.096  0.00  0.00    +0.000 A 
ATOM      2  C   UNL     1       6.896   5.198  19.107  0.00  0.00    +0.000 A 
ATOM      3  C   UNL     1       7.863   6.183  19.276  0.00  0.00    +0.000 A 
ATOM      4  C   UNL     1       7.916   7.272  18.404  0.00  0.00    +0.000 A 
ATOM      5  C   UNL     1       6.948   7.411  17.410  0.00  0.00    +0.000 A 
ATOM      6  C   UNL     1       5.958   6.436  17.257  0.00  0.00    +0.000 A 
ENDROOT
BRANCH   1   7
ATOM      7  C   UNL     1       4.884   4.242  17.944  0.00  0.00    +0.000 C 
BRANCH   7   8
ATOM      8  N   UNL     1       3.889   4.651  16.953  0.00  0.00    +0.000 NA
ATOM      9  H   UNL     1       4.238   5.478  16.474  0.00  0.00    +0.000 HD
BRANCH   8  19
ATOM     10  C   UNL     1       1.522   2.491  21.748  0.00  0.00    +0.000 C 
ATOM     11  N   UNL     1       1.769   2.813  20.362  0.00  0.00    +0.000 N 
ATOM     12  N   UNL     1       1.737   1.845  19.427  0.00  0.00    +0.000 NA
ATOM     13  C   UNL     1       2.035   2.490  18.295  0.00  0.00    +0.000 A 
ATOM     14  C   UNL     1       2.247   3.873  18.495  0.00  0.00    +0.000 A 
ATOM     15  C   UNL     1       2.042   4.046  19.842  0.00  0.00    +0.000 A 
ATOM     16  C   UNL     1       2.109   5.300  20.608  0.00  0.00    +0.000 C 
ATOM     17  C   UNL     1       2.386   6.519  19.729  0.00  0.00    +0.000 C 
ATOM     18  C   UNL     1       2.592   6.361  18.212  0.00  0.00    +0.000 C 
ATOM     19  C   UNL     1       2.584   4.964  17.542  0.00  0.00    +0.000 C 
ENDBRANCH   8  19
ENDBRANCH   7   8
ENDBRANCH   1   7
BRANCH   4  20
ATOM     20  O   UNL     1       8.882   8.244  18.442  0.00  0.00    +0.000 OA
BRANCH  20  21
ATOM     21  C   UNL     1       8.396   9.554  18.145  0.00  0.00    +0.000 C 
BRANCH  21  22
ATOM     22  C   UNL     1       9.303  10.577  18.754  0.00  0.00    +0.000 A 
ATOM     23  C   UNL     1       9.391  10.753  20.133  0.00  0.00    +0.000 A 
ATOM     24  C   UNL     1      10.271  11.698  20.648  0.00  0.00    +0.000 A 
ATOM     25  C   UNL     1      11.038  12.435  19.759  0.00  0.00    +0.000 A 
ATOM     26  N   UNL     1      10.978  12.296  18.419  0.00  0.00    +0.000 NA
ATOM     27  C   UNL     1      10.110  11.375  17.945  0.00  0.00    +0.000 A 
ENDBRANCH  21  22
ENDBRANCH  20  21
ENDBRANCH   4  20
TORSDOF 6
ENDMDL
MODEL 2
REMARK VINA RESULT:      -8.2      1.297      1.641
REMARK  Name = 
REMARK  7 active torsions:
REMARK  status: ('A' for Active; 'I' for Inactive)
REMARK    1  A    between atoms: C_1  and  N_2
REMARK    2  A    between atoms: C_10  and  N_11
REMARK    3  A    between atoms: N_11  and  C_12
REMARK    4  A    between atoms: C_12  and  C_13
REMARK    5  A    between atoms: C_16  and  O_17
REMARK    6  A    between atoms: O_17  and  C_18
REMARK    7  A    between atoms: C_18  and  C_19
REMARK                            x       y       z     vdW  Elec       q    Type
REMARK                         _______ _______ _______ _____ _____    ______ ____
ROOT
ATOM      1  C   UNL     1       5.993   5.715  17.400  0.00  0.00    +0.000 A 
ATOM      2  C   UNL     1       6.880   5.335  18.415  0.00  0.00    +0.000 A 
ATOM      3  C   UNL     1       7.835   6.228  18.886  0.00  0.00    +0.000 A 
ATOM      4  C   UNL     1       7.954   7.496  18.316  0.00  0.00    +0.000 A 
ATOM      5  C   UNL     1       7.058   7.895  17.324  0.00  0.00    +0.000 A 
ATOM      6  C   UNL     1       6.079   7.009  16.868  0.00  0.00    +0.000 A 
ENDROOT
BRANCH   1   7
ATOM      7  C   UNL     1       4.952   4.736  16.918  0.00  0.00    +0.000 C 
BRANCH   7   8
ATOM      8  N   UNL     1       5.183   3.421  17.517  0.00  0.00    +0.000 NA
ATOM      9  H   UNL     1       5.811   2.900  16.909  0.00  0.00    +0.000 HD
BRANCH   8  19
ATOM     10  C   UNL     1       1.883   2.990  22.227  0.00  0.00    +0.000 C 
ATOM     11  N   UNL     1       2.775   2.663  21.140  0.00  0.00    +0.000 N 
ATOM     12  N   UNL     1       3.905   1.972  21.376  0.00  0.00    +0.000 NA
ATOM     13  C   UNL     1       4.480   1.885  20.172  0.00  0.00    +0.000 A 
ATOM     14  C   UNL     1       3.717   2.506  19.158  0.00  0.00    +0.000 A 
ATOM     15  C   UNL     1       2.610   2.977  19.821  0.00  0.00    +0.000 A 
ATOM     16  C   UNL     1       1.459   3.695  19.251  0.00  0.00    +0.000 C 
ATOM     17  C   UNL     1       1.546   3.848  17.733  0.00  0.00    +0.000 C 
ATOM     18  C   UNL     1       2.761   3.306  16.959  0.00  0.00    +0.000 C 
ATOM     19  C   UNL     1       3.953   2.645  17.696  0.00  0.00    +0.000 C 
ENDBRANCH   8  19
ENDBRANCH   7   8
ENDBRANCH   1   7
BRANCH   4  20
ATOM     20  O   UNL     1       8.917   8.409  18.658  0.00  0.00    +0.000 OA
BRANCH  20  21
ATOM     21  C   UNL     1       8.577   9.759  18.334  0.00  0.00    +0.000 C 
BRANCH  21  22
ATOM     22  C   UNL     1       9.605  10.687  18.902  0.00  0.00    +0.000 A 
ATOM     23  C   UNL     1       9.605  11.049  20.248  0.00  0.00    +0.000 A 
ATOM     24  C   UNL     1      10.600  11.891  20.730  0.00  0.00    +0.000 A 
ATOM     25  C   UNL     1      11.567  12.341  19.843  0.00  0.00    +0.000 A 
ATOM     26  N   UNL     1      11.598  12.016  18.535  0.00  0.00    +0.000 NA
ATOM     27  C   UNL     1      10.616  11.201  18.092  0.00  0.00    +0.000 A 
ENDBRANCH  21  22
ENDBRANCH  20  21
ENDBRANCH   4  20
TORSDOF 6
ENDMDL
MODEL 3
REMARK VINA RESULT:      -8.1      0.996      1.053
REMARK  Name = 
REMARK  7 active torsions:
REMARK  status: ('A' for Active; 'I' for Inactive)
REMARK    1  A    between atoms: C_1  and  N_2
REMARK    2  A    between atoms: C_10  and  N_11
REMARK    3  A    between atoms: N_11  and  C_12
REMARK    4  A    between atoms: C_12  and  C_13
REMARK    5  A    between atoms: C_16  and  O_17
REMARK    6  A    between atoms: O_17  and  C_18
REMARK    7  A    between atoms: C_18  and  C_19
REMARK                            x       y       z     vdW  Elec       q    Type
REMARK                         _______ _______ _______ _____ _____    ______ ____
ROOT
ATOM      1  C   UNL     1       6.824   5.490  17.068  0.00  0.00    +0.000 A 
ATOM      2  C   UNL     1       7.447   5.277  18.303  0.00  0.00    +0.000 A 
ATOM      3  C   UNL     1       8.067   6.327  18.970  0.00  0.00    +0.000 A 
ATOM      4  C   UNL     1       8.119   7.595  18.390  0.00  0.00    +0.000 A 
ATOM      5  C   UNL     1       7.478   7.827  17.174  0.00  0.00    +0.000 A 
ATOM      6  C   UNL     1       6.829   6.779  16.515  0.00  0.00    +0.000 A 
ENDROOT
BRANCH   1   7
ATOM      7  C   UNL     1       6.140   4.341  16.372  0.00  0.00    +0.000 C 
BRANCH   7   8
ATOM      8  N   UNL     1       5.273   3.628  17.311  0.00  0.00    +0.000 NA
ATOM      9  H   UNL     1       5.286   2.640  17.069  0.00  0.00    +0.000 HD
BRANCH   8  19
ATOM     10  C   UNL     1       1.180   2.900  21.308  0.00  0.00    +0.000 C 
ATOM     11  N   UNL     1       1.924   2.822  20.073  0.00  0.00    +0.000 N 
ATOM     12  N   UNL     1       2.116   1.633  19.473  0.00  0.00    +0.000 NA
ATOM     13  C   UNL     1       2.854   1.935  18.400  0.00  0.00    +0.000 A 
ATOM     14  C   UNL     1       3.127   3.318  18.299  0.00  0.00    +0.000 A 
ATOM     15  C   UNL     1       2.488   3.860  19.388  0.00  0.00    +0.000 A 
ATOM     16  C   UNL     1       2.417   5.278  19.774  0.00  0.00    +0.000 C 
ATOM     17  C   UNL     1       3.107   6.203  18.772  0.00  0.00    +0.000 C 
ATOM     18  C   UNL     1       3.808   5.627  17.529  0.00  0.00    +0.000 C 
ATOM     19  C   UNL     1       3.885   4.099  17.285  0.00  0.00    +0.000 C 
ENDBRANCH   8  19
ENDBRANCH   7   8
ENDBRANCH   1   7
BRANCH   4  20
ATOM     20  O   UNL     1       8.780   8.666  18.934  0.00  0.00    +0.000 OA
BRANCH  20  21
ATOM     21  C   UNL     1       8.712   9.852  18.140  0.00  0.00    +0.000 C 
BRANCH  21  22
ATOM     22  C   UNL     1       9.305  10.999  18.897  0.00  0.00    +0.000 A 
ATOM     23  C   UNL     1       9.806  10.846  20.189  0.00  0.00    +0.000 A 
ATOM     24  C   UNL     1      10.374  11.938  20.836  0.00  0.00    +0.000 A 
ATOM     25  C   UNL     1      10.422  13.149  20.163  0.00  0.00    +0.000 A 
ATOM     26  N   UNL     1       9.945  13.337  18.916  0.00  0.00    +0.000 NA
ATOM     27  C   UNL     1       9.393  12.261  18.312  0.00  0.00    +0.000 A 
ENDBRANCH  21  22
ENDBRANCH  20  21
ENDBRANCH   4  20
TORSDOF 6
ENDMDL
MODEL 4
REMARK VINA RESULT:      -8.0      0.750      1.386
REMARK  Name = 
REMARK  7 active torsions:
REMARK  status: ('A' for Active; 'I' for Inactive)
REMARK    1  A    between atoms: C_1  and  N_2
REMARK    2  A    between atoms: C_10  and  N_11
REMARK    3  A    between atoms: N_11  and  C_12
REMARK    4  A    between atoms: C_12  and  C_13
REMARK    5  A    between atoms: C_16  and  O_17
REMARK    6  A    between atoms: O_17  and  C_18
REMARK    7  A    between atoms: C_18  and  C_19
REMARK                            x       y       z     vdW  Elec       q    Type
REMARK                         _______ _______ _______ _____ _____    ______ ____
ROOT
ATOM      1  C   UNL     1       5.779   4.816  17.969  0.00  0.00    +0.000 A 
ATOM      2  C   UNL     1       6.227   5.576  16.882  0.00  0.00    +0.000 A 
ATOM      3  C   UNL     1       7.183   6.568  17.063  0.00  0.00    +0.000 A 
ATOM      4  C   UNL     1       7.671   6.851  18.340  0.00  0.00    +0.000 A 
ATOM      5  C   UNL     1       7.253   6.082  19.425  0.00  0.00    +0.000 A 
ATOM      6  C   UNL     1       6.312   5.065  19.242  0.00  0.00    +0.000 A 
ENDROOT
BRANCH   1   7
ATOM      7  C   UNL     1       4.755   3.731  17.746  0.00  0.00    +0.000 C 
BRANCH   7   8
ATOM      8  N   UNL     1       3.733   4.190  16.806  0.00  0.00    +0.000 NA
ATOM      9  H   UNL     1       4.127   4.949  16.253  0.00  0.00    +0.000 HD
BRANCH   8  19
ATOM     10  C   UNL     1       1.497   2.507  21.848  0.00  0.00    +0.000 C 
ATOM     11  N   UNL     1       1.677   2.742  20.434  0.00  0.00    +0.000 N 
ATOM     12  N   UNL     1       1.471   1.748  19.552  0.00  0.00    +0.000 NA
ATOM     13  C   UNL     1       1.756   2.309  18.372  0.00  0.00    +0.000 A 
ATOM     14  C   UNL     1       2.132   3.666  18.490  0.00  0.00    +0.000 A 
ATOM     15  C   UNL     1       2.046   3.915  19.839  0.00  0.00    +0.000 A 
ATOM     16  C   UNL     1       2.306   5.183  20.537  0.00  0.00    +0.000 C 
ATOM     17  C   UNL     1       2.650   6.327  19.584  0.00  0.00    +0.000 C 
ATOM     18  C   UNL     1       2.727   6.085  18.066  0.00  0.00    +0.000 C 
ATOM     19  C   UNL     1       2.517   4.673  17.465  0.00  0.00    +0.000 C 
ENDBRANCH   8  19
ENDBRANCH   7   8
ENDBRANCH   1   7
BRANCH   4  20
ATOM     20  O   UNL     1       8.549   7.864  18.624  0.00  0.00    +0.000 OA
BRANCH  20  21
ATOM     21  C   UNL     1       8.288   9.074  17.911  0.00  0.00    +0.000 C 
BRANCH  21  22
ATOM     22  C   UNL     1       9.038  10.204  18.545  0.00  0.00    +0.000 A 
ATOM     23  C   UNL     1       9.499  11.288  17.801  0.00  0.00    +0.000 A 
ATOM     24  C   UNL     1      10.165  12.326  18.444  0.00  0.00    +0.000 A 
ATOM     25  C   UNL     1      10.345  12.240  19.817  0.00  0.00    +0.000 A 
ATOM     26  N   UNL     1       9.918  11.206  20.569  0.00  0.00    +0.000 NA
ATOM     27  C   UNL     1       9.279  10.209  19.918  0.00  0.00    +0.000 A 
ENDBRANCH  21  22
ENDBRANCH  20  21
ENDBRANCH   4  20
TORSDOF 6
ENDMDL
MODEL 5
REMARK VINA RESULT:      -8.0      2.164      9.401
REMARK  Name = 
REMARK  7 active torsions:
REMARK  status: ('A' for Active; 'I' for Inactive)
REMARK    1  A    between atoms: C_1  and  N_2
REMARK    2  A    between atoms: C_10  and  N_11
REMARK    3  A    between atoms: N_11  and  C_12
REMARK    4  A    between atoms: C_12  and  C_13
REMARK    5  A    between atoms: C_16  and  O_17
REMARK    6  A    between atoms: O_17  and  C_18
REMARK    7  A    between atoms: C_18  and  C_19
REMARK                            x       y       z     vdW  Elec       q    Type
REMARK                         _______ _______ _______ _____ _____    ______ ____
ROOT
ATOM      1  C   UNL     1       7.669   7.862  17.839  0.00  0.00    +0.000 A 
ATOM      2  C   UNL     1       6.494   7.428  17.215  0.00  0.00    +0.000 A 
ATOM      3  C   UNL     1       5.920   6.210  17.562  0.00  0.00    +0.000 A 
ATOM      4  C   UNL     1       6.539   5.384  18.501  0.00  0.00    +0.000 A 
ATOM      5  C   UNL     1       7.695   5.818  19.149  0.00  0.00    +0.000 A 
ATOM      6  C   UNL     1       8.258   7.054  18.822  0.00  0.00    +0.000 A 
ENDROOT
BRANCH   1   7
ATOM      7  C   UNL     1       8.263   9.195  17.460  0.00  0.00    +0.000 C 
BRANCH   7   8
ATOM      8  N   UNL     1       8.724   9.899  18.657  0.00  0.00    +0.000 NA
ATOM      9  H   UNL     1       7.910  10.283  19.133  0.00  0.00    +0.000 HD
BRANCH   8  19
ATOM     10  C   UNL     1       7.839  15.576  19.148  0.00  0.00    +0.000 C 
ATOM     11  N   UNL     1       8.085  14.267  18.591  0.00  0.00    +0.000 N 
ATOM     12  N   UNL     1       7.377  13.841  17.529  0.00  0.00    +0.000 NA
ATOM     13  C   UNL     1       7.841  12.606  17.315  0.00  0.00    +0.000 A 
ATOM     14  C   UNL     1       8.855  12.239  18.229  0.00  0.00    +0.000 A 
ATOM     15  C   UNL     1       9.000  13.351  19.023  0.00  0.00    +0.000 A 
ATOM     16  C   UNL     1       9.941  13.543  20.138  0.00  0.00    +0.000 C 
ATOM     17  C   UNL     1      10.873  12.349  20.341  0.00  0.00    +0.000 C 
ATOM     18  C   UNL     1      10.753  11.100  19.449  0.00  0.00    +0.000 C 
ATOM     19  C   UNL     1       9.654  10.992  18.362  0.00  0.00    +0.000 C 
ENDBRANCH   8  19
ENDBRANCH   7   8
ENDBRANCH   1   7
BRANCH   4  20
ATOM     20  O   UNL     1       6.092   4.134  18.842  0.00  0.00    +0.000 OA
BRANCH  20  21
ATOM     21  C   UNL     1       4.781   3.836  18.360  0.00  0.00    +0.000 C 
BRANCH  21  22
ATOM     22  C   UNL     1       3.820   3.800  19.508  0.00  0.00    +0.000 A 
ATOM     23  C   UNL     1       3.026   4.898  19.836  0.00  0.00    +0.000 A 
ATOM     24  C   UNL     1       2.128   4.801  20.893  0.00  0.00    +0.000 A 
ATOM     25  C   UNL     1       2.056   3.602  21.586  0.00  0.00    +0.000 A 
ATOM     26  N   UNL     1       2.809   2.521  21.301  0.00  0.00    +0.000 NA
ATOM     27  C   UNL     1       3.677   2.644  20.273  0.00  0.00    +0.000 A 
ENDBRANCH  21  22
ENDBRANCH  20  21
ENDBRANCH   4  20
TORSDOF 6
ENDMDL
MODEL 6
REMARK VINA RESULT:      -7.9      6.183      9.561
REMARK  Name = 
REMARK  7 active torsions:
REMARK  status: ('A' for Active; 'I' for Inactive)
REMARK    1  A    between atoms: C_1  and  N_2
REMARK    2  A    between atoms: C_10  and  N_11
REMARK    3  A    between atoms: N_11  and  C_12
REMARK    4  A    between atoms: C_12  and  C_13
REMARK    5  A    between atoms: C_16  and  O_17
REMARK    6  A    between atoms: O_17  and  C_18
REMARK    7  A    between atoms: C_18  and  C_19
REMARK                            x       y       z     vdW  Elec       q    Type
REMARK                         _______ _______ _______ _____ _____    ______ ____
ROOT
ATOM      1  C   UNL     1       0.840  10.343  19.311  0.00  0.00    +0.000 A 
ATOM      2  C   UNL     1       1.555   9.831  18.222  0.00  0.00    +0.000 A 
ATOM      3  C   UNL     1       2.163   8.583  18.302  0.00  0.00    +0.000 A 
ATOM      4  C   UNL     1       2.109   7.850  19.488  0.00  0.00    +0.000 A 
ATOM      5  C   UNL     1       1.376   8.337  20.570  0.00  0.00    +0.000 A 
ATOM      6  C   UNL     1       0.741   9.578  20.482  0.00  0.00    +0.000 A 
ENDROOT
BRANCH   1   7
ATOM      7  C   UNL     1       0.172  11.690  19.195  0.00  0.00    +0.000 C 
BRANCH   7   8
ATOM      8  N   UNL     1      -0.720  11.711  18.035  0.00  0.00    +0.000 NA
ATOM      9  H   UNL     1      -1.139  12.636  17.973  0.00  0.00    +0.000 HD
BRANCH   8  19
ATOM     10  C   UNL     1      -6.415  12.551  17.706  0.00  0.00    +0.000 C 
ATOM     11  N   UNL     1      -5.102  12.221  18.206  0.00  0.00    +0.000 N 
ATOM     12  N   UNL     1      -4.695  12.689  19.400  0.00  0.00    +0.000 NA
ATOM     13  C   UNL     1      -3.450  12.218  19.517  0.00  0.00    +0.000 A 
ATOM     14  C   UNL     1      -3.057  11.436  18.407  0.00  0.00    +0.000 A 
ATOM     15  C   UNL     1      -4.163  11.442  17.592  0.00  0.00    +0.000 A 
ATOM     16  C   UNL     1      -4.330  10.763  16.298  0.00  0.00    +0.000 C 
ATOM     17  C   UNL     1      -3.114   9.925  15.905  0.00  0.00    +0.000 C 
ATOM     18  C   UNL     1      -1.870   9.876  16.811  0.00  0.00    +0.000 C 
ATOM     19  C   UNL     1      -1.791  10.714  18.112  0.00  0.00    +0.000 C 
ENDBRANCH   8  19
ENDBRANCH   7   8
ENDBRANCH   1   7
BRANCH   4  20
ATOM     20  O   UNL     1       2.747   6.653  19.685  0.00  0.00    +0.000 OA
BRANCH  20  21
ATOM     21  C   UNL     1       1.934   5.660  20.312  0.00  0.00    +0.000 C 
BRANCH  21  22
ATOM     22  C   UNL     1       1.982   4.394  19.515  0.00  0.00    +0.000 A 
ATOM     23  C   UNL     1       1.006   3.407  19.643  0.00  0.00    +0.000 A 
ATOM     24  C   UNL     1       1.081   2.263  18.857  0.00  0.00    +0.000 A 
ATOM     25  C   UNL     1       2.137   2.147  17.965  0.00  0.00    +0.000 A 
ATOM     26  N   UNL     1       3.102   3.077  17.815  0.00  0.00    +0.000 NA
ATOM     27  C   UNL     1       3.007   4.177  18.596  0.00  0.00    +0.000 A 
ENDBRANCH  21  22
ENDBRANCH  20  21
ENDBRANCH   4  20
TORSDOF 6
ENDMDL
MODEL 7
REMARK VINA RESULT:      -7.8      6.183      9.277
REMARK  Name = 
REMARK  7 active torsions:
REMARK  status: ('A' for Active; 'I' for Inactive)
REMARK    1  A    between atoms: C_1  and  N_2
REMARK    2  A    between atoms: C_10  and  N_11
REMARK    3  A    between atoms: N_11  and  C_12
REMARK    4  A    between atoms: C_12  and  C_13
REMARK    5  A    between atoms: C_16  and  O_17
REMARK    6  A    between atoms: O_17  and  C_18
REMARK    7  A    between atoms: C_18  and  C_19
REMARK                            x       y       z     vdW  Elec       q    Type
REMARK                         _______ _______ _______ _____ _____    ______ ____
ROOT
ATOM      1  C   UNL     1       0.870  10.125  19.237  0.00  0.00    +0.000 A 
ATOM      2  C   UNL     1       1.572   9.833  18.061  0.00  0.00    +0.000 A 
ATOM      3  C   UNL     1       2.270   8.638  17.935  0.00  0.00    +0.000 A 
ATOM      4  C   UNL     1       2.319   7.737  19.000  0.00  0.00    +0.000 A 
ATOM      5  C   UNL     1       1.601   8.003  20.165  0.00  0.00    +0.000 A 
ATOM      6  C   UNL     1       0.876   9.192  20.284  0.00  0.00    +0.000 A 
ENDROOT
BRANCH   1   7
ATOM      7  C   UNL     1       0.104  11.419  19.345  0.00  0.00    +0.000 C 
BRANCH   7   8
ATOM      8  N   UNL     1      -0.761  11.590  18.177  0.00  0.00    +0.000 NA
ATOM      9  H   UNL     1      -1.154  12.528  18.207  0.00  0.00    +0.000 HD
BRANCH   8  19
ATOM     10  C   UNL     1      -6.382  12.604  17.380  0.00  0.00    +0.000 C 
ATOM     11  N   UNL     1      -5.127  12.220  17.982  0.00  0.00    +0.000 N 
ATOM     12  N   UNL     1      -4.815  12.640  19.222  0.00  0.00    +0.000 NA
ATOM     13  C   UNL     1      -3.597  12.129  19.431  0.00  0.00    +0.000 A 
ATOM     14  C   UNL     1      -3.128  11.371  18.335  0.00  0.00    +0.000 A 
ATOM     15  C   UNL     1      -4.158  11.434  17.427  0.00  0.00    +0.000 A 
ATOM     16  C   UNL     1      -4.227  10.800  16.101  0.00  0.00    +0.000 C 
ATOM     17  C   UNL     1      -3.003   9.940  15.788  0.00  0.00    +0.000 C 
ATOM     18  C   UNL     1      -1.846   9.827  16.797  0.00  0.00    +0.000 C 
ATOM     19  C   UNL     1      -1.860  10.622  18.127  0.00  0.00    +0.000 C 
ENDBRANCH   8  19
ENDBRANCH   7   8
ENDBRANCH   1   7
BRANCH   4  20
ATOM     20  O   UNL     1       3.049   6.576  18.996  0.00  0.00    +0.000 OA
BRANCH  20  21
ATOM     21  C   UNL     1       2.651   5.646  17.988  0.00  0.00    +0.000 C 
BRANCH  21  22
ATOM     22  C   UNL     1       3.115   4.272  18.359  0.00  0.00    +0.000 A 
ATOM     23  C   UNL     1       2.597   3.131  17.748  0.00  0.00    +0.000 A 
ATOM     24  C   UNL     1       3.085   1.880  18.109  0.00  0.00    +0.000 A 
ATOM     25  C   UNL     1       4.080   1.816  19.074  0.00  0.00    +0.000 A 
ATOM     26  N   UNL     1       4.602   2.896  19.689  0.00  0.00    +0.000 NA
ATOM     27  C   UNL     1       4.106   4.099  19.323  0.00  0.00    +0.000 A 
ENDBRANCH  21  22
ENDBRANCH  20  21
ENDBRANCH   4  20
TORSDOF 6
ENDMDL
MODEL 8
REMARK VINA RESULT:      -7.8      6.191      9.569
REMARK  Name = 
REMARK  7 active torsions:
REMARK  status: ('A' for Active; 'I' for Inactive)
REMARK    1  A    between atoms: C_1  and  N_2
REMARK    2  A    between atoms: C_10  and  N_11
REMARK    3  A    between atoms: N_11  and  C_12
REMARK    4  A    between atoms: C_12  and  C_13
REMARK    5  A    between atoms: C_16  and  O_17
REMARK    6  A    between atoms: O_17  and  C_18
REMARK    7  A    between atoms: C_18  and  C_19
REMARK                            x       y       z     vdW  Elec       q    Type
REMARK                         _______ _______ _______ _____ _____    ______ ____
ROOT
ATOM      1  C   UNL     1       0.764  10.015  19.378  0.00  0.00    +0.000 A 
ATOM      2  C   UNL     1       0.947   9.046  20.371  0.00  0.00    +0.000 A 
ATOM      3  C   UNL     1       1.769   7.949  20.143  0.00  0.00    +0.000 A 
ATOM      4  C   UNL     1       2.381   7.775  18.900  0.00  0.00    +0.000 A 
ATOM      5  C   UNL     1       2.228   8.748  17.912  0.00  0.00    +0.000 A 
ATOM      6  C   UNL     1       1.424   9.866  18.150  0.00  0.00    +0.000 A 
ENDROOT
BRANCH   1   7
ATOM      7  C   UNL     1      -0.118  11.207  19.655  0.00  0.00    +0.000 C 
BRANCH   7   8
ATOM      8  N   UNL     1      -0.922  11.523  18.475  0.00  0.00    +0.000 NA
ATOM      9  H   UNL     1      -1.294  12.464  18.587  0.00  0.00    +0.000 HD
BRANCH   8  19
ATOM     10  C   UNL     1      -6.388  12.760  17.116  0.00  0.00    +0.000 C 
ATOM     11  N   UNL     1      -5.218  12.313  17.834  0.00  0.00    +0.000 N 
ATOM     12  N   UNL     1      -5.030  12.681  19.115  0.00  0.00    +0.000 NA
ATOM     13  C   UNL     1      -3.859  12.121  19.435  0.00  0.00    +0.000 A 
ATOM     14  C   UNL     1      -3.298  11.383  18.369  0.00  0.00    +0.000 A 
ATOM     15  C   UNL     1      -4.220  11.511  17.358  0.00  0.00    +0.000 A 
ATOM     16  C   UNL     1      -4.165  10.923  16.011  0.00  0.00    +0.000 C 
ATOM     17  C   UNL     1      -2.943  10.031  15.801  0.00  0.00    +0.000 C 
ATOM     18  C   UNL     1      -1.906   9.845  16.924  0.00  0.00    +0.000 C 
ATOM     19  C   UNL     1      -2.039  10.597  18.272  0.00  0.00    +0.000 C 
ENDBRANCH   8  19
ENDBRANCH   7   8
ENDBRANCH   1   7
BRANCH   4  20
ATOM     20  O   UNL     1       3.138   6.685  18.557  0.00  0.00    +0.000 OA
BRANCH  20  21
ATOM     21  C   UNL     1       3.283   5.728  19.608  0.00  0.00    +0.000 C 
BRANCH  21  22
ATOM     22  C   UNL     1       2.509   4.491  19.273  0.00  0.00    +0.000 A 
ATOM     23  C   UNL     1       2.827   3.704  18.168  0.00  0.00    +0.000 A 
ATOM     24  C   UNL     1       2.095   2.548  17.918  0.00  0.00    +0.000 A 
ATOM     25  C   UNL     1       1.066   2.221  18.789  0.00  0.00    +0.000 A 
ATOM     26  N   UNL     1       0.728   2.959  19.865  0.00  0.00    +0.000 NA
ATOM     27  C   UNL     1       1.452   4.079  20.081  0.00  0.00    +0.000 A 
ENDBRANCH  21  22
ENDBRANCH  20  21
ENDBRANCH   4  20
TORSDOF 6
ENDMDL
MODEL 9
REMARK VINA RESULT:      -7.8      6.150      9.383
REMARK  Name = 
REMARK  7 active torsions:
REMARK  status: ('A' for Active; 'I' for Inactive)
REMARK    1  A    between atoms: C_1  and  N_2
REMARK    2  A    between atoms: C_10  and  N_11
REMARK    3  A    between atoms: N_11  and  C_12
REMARK    4  A    between atoms: C_12  and  C_13
REMARK    5  A    between atoms: C_16  and  O_17
REMARK    6  A    between atoms: O_17  and  C_18
REMARK    7  A    between atoms: C_18  and  C_19
REMARK                            x       y       z     vdW  Elec       q    Type
REMARK                         _______ _______ _______ _____ _____    ______ ____
ROOT
ATOM      1  C   UNL     1       1.052  10.218  19.109  0.00  0.00    +0.000 A 
ATOM      2  C   UNL     1       0.989   9.361  20.214  0.00  0.00    +0.000 A 
ATOM      3  C   UNL     1       1.605   8.116  20.176  0.00  0.00    +0.000 A 
ATOM      4  C   UNL     1       2.251   7.685  19.016  0.00  0.00    +0.000 A 
ATOM      5  C   UNL     1       2.344   8.541  17.919  0.00  0.00    +0.000 A 
ATOM      6  C   UNL     1       1.749   9.804  17.964  0.00  0.00    +0.000 A 
ENDROOT
BRANCH   1   7
ATOM      7  C   UNL     1       0.392  11.572  19.179  0.00  0.00    +0.000 C 
BRANCH   7   8
ATOM      8  N   UNL     1      -0.608  11.701  18.119  0.00  0.00    +0.000 NA
ATOM      9  H   UNL     1      -0.987  12.644  18.153  0.00  0.00    +0.000 HD
BRANCH   8  19
ATOM     10  C   UNL     1      -6.271  12.782  18.244  0.00  0.00    +0.000 C 
ATOM     11  N   UNL     1      -4.939  12.383  18.634  0.00  0.00    +0.000 N 
ATOM     12  N   UNL     1      -4.425  12.797  19.806  0.00  0.00    +0.000 NA
ATOM     13  C   UNL     1      -3.196  12.272  19.816  0.00  0.00    +0.000 A 
ATOM     14  C   UNL     1      -2.920  11.509  18.658  0.00  0.00    +0.000 A 
ATOM     15  C   UNL     1      -4.082  11.586  17.929  0.00  0.00    +0.000 A 
ATOM     16  C   UNL     1      -4.374  10.955  16.633  0.00  0.00    +0.000 C 
ATOM     17  C   UNL     1      -3.227  10.081  16.126  0.00  0.00    +0.000 C 
ATOM     18  C   UNL     1      -1.923   9.953  16.935  0.00  0.00    +0.000 C 
ATOM     19  C   UNL     1      -1.712  10.746  18.249  0.00  0.00    +0.000 C 
ENDBRANCH   8  19
ENDBRANCH   7   8
ENDBRANCH   1   7
BRANCH   4  20
ATOM     20  O   UNL     1       2.811   6.444  18.859  0.00  0.00    +0.000 OA
BRANCH  20  21
ATOM     21  C   UNL     1       2.263   5.448  19.724  0.00  0.00    +0.000 C 
BRANCH  21  22
ATOM     22  C   UNL     1       2.642   4.088  19.227  0.00  0.00    +0.000 A 
ATOM     23  C   UNL     1       2.051   3.527  18.096  0.00  0.00    +0.000 A 
ATOM     24  C   UNL     1       2.461   2.272  17.661  0.00  0.00    +0.000 A 
ATOM     25  C   UNL     1       3.454   1.620  18.376  0.00  0.00    +0.000 A 
ATOM     26  N   UNL     1       4.046   2.128  19.476  0.00  0.00    +0.000 NA
ATOM     27  C   UNL     1       3.625   3.346  19.881  0.00  0.00    +0.000 A 
ENDBRANCH  21  22
ENDBRANCH  20  21
ENDBRANCH   4  20
TORSDOF 6
ENDMDL
