MODEL 1
REMARK VINA RESULT:      -8.1      0.000      0.000
REMARK  Name = 
REMARK  8 active torsions:
REMARK  status: ('A' for Active; 'I' for Inactive)
REMARK    1  A    between atoms: C_1  and  N_2
REMARK    2  A    between atoms: N_2  and  C_3
REMARK    3  A    between atoms: N_2  and  C_4
REMARK    4  A    between atoms: C_4  and  C_5
REMARK    5  A    between atoms: C_5  and  N_6
REMARK    6  A    between atoms: C_14  and  O_15
REMARK    7  A    between atoms: O_15  and  C_16
REMARK    8  A    between atoms: C_16  and  C_17
REMARK                            x       y       z     vdW  Elec       q    Type
REMARK                         _______ _______ _______ _____ _____    ______ ____
ROOT
ATOM      1  N   UNL     1       8.409   7.526  18.640  0.00  0.00    +0.000 N 
ATOM      2  C   UNL     1       7.312   6.813  18.132  0.00  0.00    +0.000 A 
ATOM      3  N   UNL     1       6.828   7.106  16.912  0.00  0.00    +0.000 NA
ATOM      4  N   UNL     1       5.795   6.427  16.431  0.00  0.00    +0.000 N 
ATOM      5  O   UNL     1       5.382   6.812  15.303  0.00  0.00    +0.000 OA
ATOM      6  C   UNL     1       5.201   5.370  17.114  0.00  0.00    +0.000 A 
ATOM      7  C   UNL     1       4.142   4.618  16.561  0.00  0.00    +0.000 A 
ATOM      8  C   UNL     1       3.587   3.548  17.263  0.00  0.00    +0.000 A 
ATOM      9  C   UNL     1       4.063   3.227  18.532  0.00  0.00    +0.000 A 
ATOM     10  C   UNL     1       5.082   3.993  19.104  0.00  0.00    +0.000 A 
ATOM     11  C   UNL     1       5.680   5.056  18.394  0.00  0.00    +0.000 A 
ATOM     12  N   UNL     1       6.742   5.800  18.922  0.00  0.00    +0.000 N 
ATOM     13  O   UNL     1       7.191   5.565  20.101  0.00  0.00    +0.000 OA
ATOM     14  H   UNL     1       8.378   7.423  19.662  0.00  0.00    +0.000 HD
ENDROOT
BRANCH   1  15
ATOM     15  C   UNL     1       8.525   8.905  18.174  0.00  0.00    +0.000 C 
BRANCH  15  16
ATOM     16  C   UNL     1       9.105   9.850  19.253  0.00  0.00    +0.000 C 
BRANCH  16  18
ATOM     17  C   UNL     1       9.122  11.910  17.961  0.00  0.00    +0.000 C 
ATOM     18  N   UNL     1       9.934  10.951  18.713  0.00  0.00    +0.000 NA
ATOM     19  C   UNL     1      10.620  11.637  19.811  0.00  0.00    +0.000 C 
ENDBRANCH  16  18
ENDBRANCH  15  16
ENDBRANCH   1  15
BRANCH   9  20
ATOM     20  O   UNL     1       3.588   2.219  19.321  0.00  0.00    +0.000 OA
BRANCH  20  21
ATOM     21  C   UNL     1       2.197   1.925  19.198  0.00  0.00    +0.000 C 
BRANCH  21  22
ATOM     22  C   UNL     1       1.521   2.375  20.456  0.00  0.00    +0.000 C 
ATOM     23  C   UNL     1       2.254   3.265  21.430  0.00  0.00    +0.000 C 
ATOM     24  C   UNL     1       1.105   3.817  20.632  0.00  0.00    +0.000 C 
ENDBRANCH  21  22
ENDBRANCH  20  21
ENDBRANCH   9  20
TORSDOF 6
ENDMDL
MODEL 2
REMARK VINA RESULT:      -7.2      3.610      6.821
REMARK  Name = 
REMARK  8 active torsions:
REMARK  status: ('A' for Active; 'I' for Inactive)
REMARK    1  A    between atoms: C_1  and  N_2
REMARK    2  A    between atoms: N_2  and  C_3
REMARK    3  A    between atoms: N_2  and  C_4
REMARK    4  A    between atoms: C_4  and  C_5
REMARK    5  A    between atoms: C_5  and  N_6
REMARK    6  A    between atoms: C_14  and  O_15
REMARK    7  A    between atoms: O_15  and  C_16
REMARK    8  A    between atoms: C_16  and  C_17
REMARK                            x       y       z     vdW  Elec       q    Type
REMARK                         _______ _______ _______ _____ _____    ______ ____
ROOT
ATOM      1  N   UNL     1       2.547   3.576  19.599  0.00  0.00    +0.000 N 
ATOM      2  C   UNL     1       3.733   3.967  18.959  0.00  0.00    +0.000 A 
ATOM      3  N   UNL     1       4.746   4.483  19.679  0.00  0.00    +0.000 NA
ATOM      4  N   UNL     1       5.868   4.846  19.074  0.00  0.00    +0.000 N 
ATOM      5  O   UNL     1       6.736   5.366  19.826  0.00  0.00    +0.000 OA
ATOM      6  C   UNL     1       6.081   4.675  17.709  0.00  0.00    +0.000 A 
ATOM      7  C   UNL     1       7.304   5.011  17.091  0.00  0.00    +0.000 A 
ATOM      8  C   UNL     1       7.492   4.802  15.724  0.00  0.00    +0.000 A 
ATOM      9  C   UNL     1       6.458   4.278  14.953  0.00  0.00    +0.000 A 
ATOM     10  C   UNL     1       5.229   3.983  15.549  0.00  0.00    +0.000 A 
ATOM     11  C   UNL     1       5.034   4.153  16.936  0.00  0.00    +0.000 A 
ATOM     12  N   UNL     1       3.832   3.810  17.566  0.00  0.00    +0.000 N 
ATOM     13  O   UNL     1       2.838   3.357  16.891  0.00  0.00    +0.000 OA
ATOM     14  H   UNL     1       1.813   3.575  18.881  0.00  0.00    +0.000 HD
ENDROOT
BRANCH   1  15
ATOM     15  C   UNL     1       2.212   4.330  20.805  0.00  0.00    +0.000 C 
BRANCH  15  16
ATOM     16  C   UNL     1       1.330   5.565  20.507  0.00  0.00    +0.000 C 
BRANCH  16  18
ATOM     17  C   UNL     1       2.402   7.247  19.114  0.00  0.00    +0.000 C 
ATOM     18  N   UNL     1       2.071   6.847  20.484  0.00  0.00    +0.000 NA
ATOM     19  C   UNL     1       1.267   7.893  21.123  0.00  0.00    +0.000 C 
ENDBRANCH  16  18
ENDBRANCH  15  16
ENDBRANCH   1  15
BRANCH   9  20
ATOM     20  O   UNL     1       6.516   4.049  13.608  0.00  0.00    +0.000 OA
BRANCH  20  21
ATOM     21  C   UNL     1       5.320   3.563  12.999  0.00  0.00    +0.000 C 
BRANCH  21  22
ATOM     22  C   UNL     1       5.676   3.045  11.641  0.00  0.00    +0.000 C 
ATOM     23  C   UNL     1       7.058   2.497  11.380  0.00  0.00    +0.000 C 
ATOM     24  C   UNL     1       5.878   1.565  11.411  0.00  0.00    +0.000 C 
ENDBRANCH  21  22
ENDBRANCH  20  21
ENDBRANCH   9  20
TORSDOF 6
ENDMDL
MODEL 3
REMARK VINA RESULT:      -6.7      3.998      6.236
REMARK  Name = 
REMARK  8 active torsions:
REMARK  status: ('A' for Active; 'I' for Inactive)
REMARK    1  A    between atoms: C_1  and  N_2
REMARK    2  A    between atoms: N_2  and  C_3
REMARK    3  A    between atoms: N_2  and  C_4
REMARK    4  A    between atoms: C_4  and  C_5
REMARK    5  A    between atoms: C_5  and  N_6
REMARK    6  A    between atoms: C_14  and  O_15
REMARK    7  A    between atoms: O_15  and  C_16
REMARK    8  A    between atoms: C_16  and  C_17
REMARK                            x       y       z     vdW  Elec       q    Type
REMARK                         _______ _______ _______ _____ _____    ______ ____
ROOT
ATOM      1  N   UNL     1       6.104   5.085  16.249  0.00  0.00    +0.000 N 
ATOM      2  C   UNL     1       5.142   4.746  17.211  0.00  0.00    +0.000 A 
ATOM      3  N   UNL     1       4.948   3.457  17.543  0.00  0.00    +0.000 NA
ATOM      4  N   UNL     1       4.043   3.139  18.458  0.00  0.00    +0.000 N 
ATOM      5  O   UNL     1       3.899   1.903  18.660  0.00  0.00    +0.000 OA
ATOM      6  C   UNL     1       3.295   4.092  19.145  0.00  0.00    +0.000 A 
ATOM      7  C   UNL     1       2.379   3.740  20.159  0.00  0.00    +0.000 A 
ATOM      8  C   UNL     1       1.666   4.722  20.847  0.00  0.00    +0.000 A 
ATOM      9  C   UNL     1       1.840   6.065  20.518  0.00  0.00    +0.000 A 
ATOM     10  C   UNL     1       2.713   6.418  19.486  0.00  0.00    +0.000 A 
ATOM     11  C   UNL     1       3.470   5.441  18.806  0.00  0.00    +0.000 A 
ATOM     12  N   UNL     1       4.394   5.775  17.809  0.00  0.00    +0.000 N 
ATOM     13  O   UNL     1       4.563   6.996  17.448  0.00  0.00    +0.000 OA
ATOM     14  H   UNL     1       5.842   6.009  15.884  0.00  0.00    +0.000 HD
ENDROOT
BRANCH   1  15
ATOM     15  C   UNL     1       6.340   4.073  15.221  0.00  0.00    +0.000 C 
BRANCH  15  16
ATOM     16  C   UNL     1       5.475   4.297  13.958  0.00  0.00    +0.000 C 
BRANCH  16  18
ATOM     17  C   UNL     1       4.733   3.319  11.859  0.00  0.00    +0.000 C 
ATOM     18  N   UNL     1       5.839   3.432  12.813  0.00  0.00    +0.000 NA
ATOM     19  C   UNL     1       7.021   3.975  12.139  0.00  0.00    +0.000 C 
ENDBRANCH  16  18
ENDBRANCH  15  16
ENDBRANCH   1  15
BRANCH   9  20
ATOM     20  O   UNL     1       1.186   7.110  21.103  0.00  0.00    +0.000 OA
BRANCH  20  21
ATOM     21  C   UNL     1       1.365   8.388  20.492  0.00  0.00    +0.000 C 
BRANCH  21  22
ATOM     22  C   UNL     1       0.181   9.233  20.844  0.00  0.00    +0.000 C 
ATOM     23  C   UNL     1      -0.286   9.320  22.277  0.00  0.00    +0.000 C 
ATOM     24  C   UNL     1       0.356  10.514  21.626  0.00  0.00    +0.000 C 
ENDBRANCH  21  22
ENDBRANCH  20  21
ENDBRANCH   9  20
TORSDOF 6
ENDMDL
MODEL 4
REMARK VINA RESULT:      -6.6      4.480      6.995
REMARK  Name = 
REMARK  8 active torsions:
REMARK  status: ('A' for Active; 'I' for Inactive)
REMARK    1  A    between atoms: C_1  and  N_2
REMARK    2  A    between atoms: N_2  and  C_3
REMARK    3  A    between atoms: N_2  and  C_4
REMARK    4  A    between atoms: C_4  and  C_5
REMARK    5  A    between atoms: C_5  and  N_6
REMARK    6  A    between atoms: C_14  and  O_15
REMARK    7  A    between atoms: O_15  and  C_16
REMARK    8  A    between atoms: C_16  and  C_17
REMARK                            x       y       z     vdW  Elec       q    Type
REMARK                         _______ _______ _______ _____ _____    ______ ____
ROOT
ATOM      1  N   UNL     1       1.544   8.435  19.602  0.00  0.00    +0.000 N 
ATOM      2  C   UNL     1       2.356   7.358  19.217  0.00  0.00    +0.000 A 
ATOM      3  N   UNL     1       2.324   6.209  19.916  0.00  0.00    +0.000 NA
ATOM      4  N   UNL     1       3.087   5.190  19.547  0.00  0.00    +0.000 N 
ATOM      5  O   UNL     1       3.025   4.178  20.296  0.00  0.00    +0.000 OA
ATOM      6  C   UNL     1       3.904   5.225  18.420  0.00  0.00    +0.000 A 
ATOM      7  C   UNL     1       4.663   4.110  18.006  0.00  0.00    +0.000 A 
ATOM      8  C   UNL     1       5.451   4.172  16.856  0.00  0.00    +0.000 A 
ATOM      9  C   UNL     1       5.510   5.352  16.117  0.00  0.00    +0.000 A 
ATOM     10  C   UNL     1       4.795   6.473  16.544  0.00  0.00    +0.000 A 
ATOM     11  C   UNL     1       3.964   6.417  17.684  0.00  0.00    +0.000 A 
ATOM     12  N   UNL     1       3.192   7.509  18.098  0.00  0.00    +0.000 N 
ATOM     13  O   UNL     1       3.241   8.628  17.469  0.00  0.00    +0.000 OA
ATOM     14  H   UNL     1       1.973   9.281  19.207  0.00  0.00    +0.000 HD
ENDROOT
BRANCH   1  15
ATOM     15  C   UNL     1       1.252   8.515  21.031  0.00  0.00    +0.000 C 
BRANCH  15  16
ATOM     16  C   UNL     1      -0.039   9.313  21.330  0.00  0.00    +0.000 C 
BRANCH  16  18
ATOM     17  C   UNL     1       0.121  11.739  21.378  0.00  0.00    +0.000 C 
ATOM     18  N   UNL     1       0.170  10.511  22.175  0.00  0.00    +0.000 NA
ATOM     19  C   UNL     1      -0.852  10.561  23.224  0.00  0.00    +0.000 C 
ENDBRANCH  16  18
ENDBRANCH  15  16
ENDBRANCH   1  15
BRANCH   9  20
ATOM     20  O   UNL     1       6.258   5.540  14.991  0.00  0.00    +0.000 OA
BRANCH  20  21
ATOM     21  C   UNL     1       6.742   4.359  14.351  0.00  0.00    +0.000 C 
BRANCH  21  22
ATOM     22  C   UNL     1       6.227   4.357  12.946  0.00  0.00    +0.000 C 
ATOM     23  C   UNL     1       7.131   3.945  11.811  0.00  0.00    +0.000 C 
ATOM     24  C   UNL     1       5.989   3.054  12.217  0.00  0.00    +0.000 C 
ENDBRANCH  21  22
ENDBRANCH  20  21
ENDBRANCH   9  20
TORSDOF 6
ENDMDL
MODEL 5
REMARK VINA RESULT:      -6.5      4.547      6.919
REMARK  Name = 
REMARK  8 active torsions:
REMARK  status: ('A' for Active; 'I' for Inactive)
REMARK    1  A    between atoms: C_1  and  N_2
REMARK    2  A    between atoms: N_2  and  C_3
REMARK    3  A    between atoms: N_2  and  C_4
REMARK    4  A    between atoms: C_4  and  C_5
REMARK    5  A    between atoms: C_5  and  N_6
REMARK    6  A    between atoms: C_14  and  O_15
REMARK    7  A    between atoms: O_15  and  C_16
REMARK    8  A    between atoms: C_16  and  C_17
REMARK                            x       y       z     vdW  Elec       q    Type
REMARK                         _______ _______ _______ _____ _____    ______ ____
ROOT
ATOM      1  N   UNL     1       1.270   8.694  19.681  0.00  0.00    +0.000 N 
ATOM      2  C   UNL     1       2.052   7.538  19.541  0.00  0.00    +0.000 A 
ATOM      3  N   UNL     1       1.888   6.510  20.394  0.00  0.00    +0.000 NA
ATOM      4  N   UNL     1       2.623   5.415  20.256  0.00  0.00    +0.000 N 
ATOM      5  O   UNL     1       2.432   4.531  21.135  0.00  0.00    +0.000 OA
ATOM      6  C   UNL     1       3.544   5.246  19.227  0.00  0.00    +0.000 A 
ATOM      7  C   UNL     1       4.274   4.050  19.060  0.00  0.00    +0.000 A 
ATOM      8  C   UNL     1       5.171   3.905  18.000  0.00  0.00    +0.000 A 
ATOM      9  C   UNL     1       5.367   4.957  17.108  0.00  0.00    +0.000 A 
ATOM     10  C   UNL     1       4.681   6.159  17.292  0.00  0.00    +0.000 A 
ATOM     11  C   UNL     1       3.743   6.310  18.335  0.00  0.00    +0.000 A 
ATOM     12  N   UNL     1       2.999   7.484  18.504  0.00  0.00    +0.000 N 
ATOM     13  O   UNL     1       3.172   8.493  17.729  0.00  0.00    +0.000 OA
ATOM     14  H   UNL     1       1.783   9.453  19.214  0.00  0.00    +0.000 HD
ENDROOT
BRANCH   1  15
ATOM     15  C   UNL     1       0.848   9.001  21.046  0.00  0.00    +0.000 C 
BRANCH  15  16
ATOM     16  C   UNL     1       0.847  10.519  21.340  0.00  0.00    +0.000 C 
BRANCH  16  18
ATOM     17  C   UNL     1      -1.126  11.639  22.217  0.00  0.00    +0.000 C 
ATOM     18  N   UNL     1       0.093  10.901  22.556  0.00  0.00    +0.000 NA
ATOM     19  C   UNL     1      -0.253   9.699  23.320  0.00  0.00    +0.000 C 
ENDBRANCH  16  18
ENDBRANCH  15  16
ENDBRANCH   1  15
BRANCH   9  20
ATOM     20  O   UNL     1       6.229   4.941  16.050  0.00  0.00    +0.000 OA
BRANCH  20  21
ATOM     21  C   UNL     1       5.640   5.055  14.755  0.00  0.00    +0.000 C 
BRANCH  21  22
ATOM     22  C   UNL     1       6.043   3.851  13.962  0.00  0.00    +0.000 C 
ATOM     23  C   UNL     1       5.319   3.513  12.682  0.00  0.00    +0.000 C 
ATOM     24  C   UNL     1       6.739   4.005  12.630  0.00  0.00    +0.000 C 
ENDBRANCH  21  22
ENDBRANCH  20  21
ENDBRANCH   9  20
TORSDOF 6
ENDMDL
MODEL 6
REMARK VINA RESULT:      -6.5      4.451      6.857
REMARK  Name = 
REMARK  8 active torsions:
REMARK  status: ('A' for Active; 'I' for Inactive)
REMARK    1  A    between atoms: C_1  and  N_2
REMARK    2  A    between atoms: N_2  and  C_3
REMARK    3  A    between atoms: N_2  and  C_4
REMARK    4  A    between atoms: C_4  and  C_5
REMARK    5  A    between atoms: C_5  and  N_6
REMARK    6  A    between atoms: C_14  and  O_15
REMARK    7  A    between atoms: O_15  and  C_16
REMARK    8  A    between atoms: C_16  and  C_17
REMARK                            x       y       z     vdW  Elec       q    Type
REMARK                         _______ _______ _______ _____ _____    ______ ____
ROOT
ATOM      1  N   UNL     1       1.803   8.347  19.523  0.00  0.00    +0.000 N 
ATOM      2  C   UNL     1       2.253   7.039  19.293  0.00  0.00    +0.000 A 
ATOM      3  N   UNL     1       1.743   6.018  20.006  0.00  0.00    +0.000 NA
ATOM      4  N   UNL     1       2.166   4.782  19.783  0.00  0.00    +0.000 N 
ATOM      5  O   UNL     1       1.666   3.903  20.536  0.00  0.00    +0.000 OA
ATOM      6  C   UNL     1       3.096   4.466  18.796  0.00  0.00    +0.000 A 
ATOM      7  C   UNL     1       3.489   3.137  18.531  0.00  0.00    +0.000 A 
ATOM      8  C   UNL     1       4.404   2.854  17.517  0.00  0.00    +0.000 A 
ATOM      9  C   UNL     1       4.955   3.892  16.769  0.00  0.00    +0.000 A 
ATOM     10  C   UNL     1       4.604   5.214  17.054  0.00  0.00    +0.000 A 
ATOM     11  C   UNL     1       3.652   5.516  18.051  0.00  0.00    +0.000 A 
ATOM     12  N   UNL     1       3.239   6.827  18.315  0.00  0.00    +0.000 N 
ATOM     13  O   UNL     1       3.746   7.820  17.676  0.00  0.00    +0.000 OA
ATOM     14  H   UNL     1       2.540   8.976  19.181  0.00  0.00    +0.000 HD
ENDROOT
BRANCH   1  15
ATOM     15  C   UNL     1       1.358   8.623  20.887  0.00  0.00    +0.000 C 
BRANCH  15  16
ATOM     16  C   UNL     1       0.804  10.057  21.053  0.00  0.00    +0.000 C 
BRANCH  16  18
ATOM     17  C   UNL     1      -0.021   9.500  23.272  0.00  0.00    +0.000 C 
ATOM     18  N   UNL     1      -0.327  10.164  22.003  0.00  0.00    +0.000 NA
ATOM     19  C   UNL     1      -0.636  11.576  22.246  0.00  0.00    +0.000 C 
ENDBRANCH  16  18
ENDBRANCH  15  16
ENDBRANCH   1  15
BRANCH   9  20
ATOM     20  O   UNL     1       5.872   3.743  15.769  0.00  0.00    +0.000 OA
BRANCH  20  21
ATOM     21  C   UNL     1       5.545   4.346  14.518  0.00  0.00    +0.000 C 
BRANCH  21  22
ATOM     22  C   UNL     1       6.117   3.489  13.433  0.00  0.00    +0.000 C 
ATOM     23  C   UNL     1       5.423   3.400  12.096  0.00  0.00    +0.000 C 
ATOM     24  C   UNL     1       6.742   4.114  12.207  0.00  0.00    +0.000 C 
ENDBRANCH  21  22
ENDBRANCH  20  21
ENDBRANCH   9  20
TORSDOF 6
ENDMDL
MODEL 7
REMARK VINA RESULT:      -6.4      3.835      6.639
REMARK  Name = 
REMARK  8 active torsions:
REMARK  status: ('A' for Active; 'I' for Inactive)
REMARK    1  A    between atoms: C_1  and  N_2
REMARK    2  A    between atoms: N_2  and  C_3
REMARK    3  A    between atoms: N_2  and  C_4
REMARK    4  A    between atoms: C_4  and  C_5
REMARK    5  A    between atoms: C_5  and  N_6
REMARK    6  A    between atoms: C_14  and  O_15
REMARK    7  A    between atoms: O_15  and  C_16
REMARK    8  A    between atoms: C_16  and  C_17
REMARK                            x       y       z     vdW  Elec       q    Type
REMARK                         _______ _______ _______ _____ _____    ______ ____
ROOT
ATOM      1  N   UNL     1       2.178   5.218  19.631  0.00  0.00    +0.000 N 
ATOM      2  C   UNL     1       3.461   5.124  19.070  0.00  0.00    +0.000 A 
ATOM      3  N   UNL     1       4.546   5.342  19.836  0.00  0.00    +0.000 NA
ATOM      4  N   UNL     1       5.757   5.246  19.306  0.00  0.00    +0.000 N 
ATOM      5  O   UNL     1       6.706   5.520  20.090  0.00  0.00    +0.000 OA
ATOM      6  C   UNL     1       5.977   4.877  17.982  0.00  0.00    +0.000 A 
ATOM      7  C   UNL     1       7.275   4.720  17.450  0.00  0.00    +0.000 A 
ATOM      8  C   UNL     1       7.459   4.324  16.125  0.00  0.00    +0.000 A 
ATOM      9  C   UNL     1       6.354   4.100  15.307  0.00  0.00    +0.000 A 
ATOM     10  C   UNL     1       5.066   4.294  15.814  0.00  0.00    +0.000 A 
ATOM     11  C   UNL     1       4.861   4.659  17.161  0.00  0.00    +0.000 A 
ATOM     12  N   UNL     1       3.580   4.803  17.707  0.00  0.00    +0.000 N 
ATOM     13  O   UNL     1       2.532   4.642  16.983  0.00  0.00    +0.000 OA
ATOM     14  H   UNL     1       1.530   5.389  18.852  0.00  0.00    +0.000 HD
ENDROOT
BRANCH   1  15
ATOM     15  C   UNL     1       2.051   6.158  20.742  0.00  0.00    +0.000 C 
BRANCH  15  16
ATOM     16  C   UNL     1       1.944   7.627  20.268  0.00  0.00    +0.000 C 
BRANCH  16  18
ATOM     17  C   UNL     1       1.454   9.001  22.213  0.00  0.00    +0.000 C 
ATOM     18  N   UNL     1       0.917   8.421  20.980  0.00  0.00    +0.000 NA
ATOM     19  C   UNL     1       0.424   9.488  20.105  0.00  0.00    +0.000 C 
ENDBRANCH  16  18
ENDBRANCH  15  16
ENDBRANCH   1  15
BRANCH   9  20
ATOM     20  O   UNL     1       6.407   3.730  13.995  0.00  0.00    +0.000 OA
BRANCH  20  21
ATOM     21  C   UNL     1       5.168   3.738  13.286  0.00  0.00    +0.000 C 
BRANCH  21  22
ATOM     22  C   UNL     1       5.455   3.396  11.858  0.00  0.00    +0.000 C 
ATOM     23  C   UNL     1       5.519   1.951  11.426  0.00  0.00    +0.000 C 
ATOM     24  C   UNL     1       4.375   2.817  10.974  0.00  0.00    +0.000 C 
ENDBRANCH  21  22
ENDBRANCH  20  21
ENDBRANCH   9  20
TORSDOF 6
ENDMDL
MODEL 8
REMARK VINA RESULT:      -6.4      4.595      6.697
REMARK  Name = 
REMARK  8 active torsions:
REMARK  status: ('A' for Active; 'I' for Inactive)
REMARK    1  A    between atoms: C_1  and  N_2
REMARK    2  A    between atoms: N_2  and  C_3
REMARK    3  A    between atoms: N_2  and  C_4
REMARK    4  A    between atoms: C_4  and  C_5
REMARK    5  A    between atoms: C_5  and  N_6
REMARK    6  A    between atoms: C_14  and  O_15
REMARK    7  A    between atoms: O_15  and  C_16
REMARK    8  A    between atoms: C_16  and  C_17
REMARK                            x       y       z     vdW  Elec       q    Type
REMARK                         _______ _______ _______ _____ _____    ______ ____
ROOT
ATOM      1  N   UNL     1       1.684   8.366  19.898  0.00  0.00    +0.000 N 
ATOM      2  C   UNL     1       2.091   7.032  19.747  0.00  0.00    +0.000 A 
ATOM      3  N   UNL     1       1.598   6.083  20.563  0.00  0.00    +0.000 NA
ATOM      4  N   UNL     1       1.979   4.822  20.415  0.00  0.00    +0.000 N 
ATOM      5  O   UNL     1       1.503   4.017  21.261  0.00  0.00    +0.000 OA
ATOM      6  C   UNL     1       2.844   4.406  19.406  0.00  0.00    +0.000 A 
ATOM      7  C   UNL     1       3.191   3.051  19.225  0.00  0.00    +0.000 A 
ATOM      8  C   UNL     1       4.041   2.666  18.187  0.00  0.00    +0.000 A 
ATOM      9  C   UNL     1       4.573   3.629  17.331  0.00  0.00    +0.000 A 
ATOM     10  C   UNL     1       4.268   4.977  17.531  0.00  0.00    +0.000 A 
ATOM     11  C   UNL     1       3.382   5.380  18.553  0.00  0.00    +0.000 A 
ATOM     12  N   UNL     1       3.015   6.719  18.735  0.00  0.00    +0.000 N 
ATOM     13  O   UNL     1       3.507   7.645  17.995  0.00  0.00    +0.000 OA
ATOM     14  H   UNL     1       2.415   8.946  19.468  0.00  0.00    +0.000 HD
ENDROOT
BRANCH   1  15
ATOM     15  C   UNL     1       1.324   8.757  21.259  0.00  0.00    +0.000 C 
BRANCH  15  16
ATOM     16  C   UNL     1       0.122   9.729  21.299  0.00  0.00    +0.000 C 
BRANCH  16  18
ATOM     17  C   UNL     1       0.898  11.981  20.808  0.00  0.00    +0.000 C 
ATOM     18  N   UNL     1       0.439  11.064  21.855  0.00  0.00    +0.000 NA
ATOM     19  C   UNL     1      -0.746  11.620  22.513  0.00  0.00    +0.000 C 
ENDBRANCH  16  18
ENDBRANCH  15  16
ENDBRANCH   1  15
BRANCH   9  20
ATOM     20  O   UNL     1       5.428   3.378  16.298  0.00  0.00    +0.000 OA
BRANCH  20  21
ATOM     21  C   UNL     1       5.403   4.311  15.218  0.00  0.00    +0.000 C 
BRANCH  21  22
ATOM     22  C   UNL     1       6.365   3.831  14.176  0.00  0.00    +0.000 C 
ATOM     23  C   UNL     1       5.896   3.612  12.759  0.00  0.00    +0.000 C 
ATOM     24  C   UNL     1       6.824   4.753  13.071  0.00  0.00    +0.000 C 
ENDBRANCH  21  22
ENDBRANCH  20  21
ENDBRANCH   9  20
TORSDOF 6
ENDMDL
MODEL 9
REMARK VINA RESULT:      -6.4      3.721      5.982
REMARK  Name = 
REMARK  8 active torsions:
REMARK  status: ('A' for Active; 'I' for Inactive)
REMARK    1  A    between atoms: C_1  and  N_2
REMARK    2  A    between atoms: N_2  and  C_3
REMARK    3  A    between atoms: N_2  and  C_4
REMARK    4  A    between atoms: C_4  and  C_5
REMARK    5  A    between atoms: C_5  and  N_6
REMARK    6  A    between atoms: C_14  and  O_15
REMARK    7  A    between atoms: O_15  and  C_16
REMARK    8  A    between atoms: C_16  and  C_17
REMARK                            x       y       z     vdW  Elec       q    Type
REMARK                         _______ _______ _______ _____ _____    ______ ____
ROOT
ATOM      1  N   UNL     1       6.565   5.583  16.467  0.00  0.00    +0.000 N 
ATOM      2  C   UNL     1       5.614   5.323  17.465  0.00  0.00    +0.000 A 
ATOM      3  N   UNL     1       5.666   4.170  18.158  0.00  0.00    +0.000 NA
ATOM      4  N   UNL     1       4.771   3.929  19.105  0.00  0.00    +0.000 N 
ATOM      5  O   UNL     1       4.872   2.801  19.660  0.00  0.00    +0.000 OA
ATOM      6  C   UNL     1       3.784   4.842  19.464  0.00  0.00    +0.000 A 
ATOM      7  C   UNL     1       2.877   4.594  20.516  0.00  0.00    +0.000 A 
ATOM      8  C   UNL     1       1.916   5.544  20.867  0.00  0.00    +0.000 A 
ATOM      9  C   UNL     1       1.833   6.742  20.161  0.00  0.00    +0.000 A 
ATOM     10  C   UNL     1       2.700   6.977  19.091  0.00  0.00    +0.000 A 
ATOM     11  C   UNL     1       3.701   6.044  18.746  0.00  0.00    +0.000 A 
ATOM     12  N   UNL     1       4.618   6.282  17.716  0.00  0.00    +0.000 N 
ATOM     13  O   UNL     1       4.559   7.356  17.014  0.00  0.00    +0.000 OA
ATOM     14  H   UNL     1       6.148   6.282  15.840  0.00  0.00    +0.000 HD
ENDROOT
BRANCH   1  15
ATOM     15  C   UNL     1       7.095   4.403  15.789  0.00  0.00    +0.000 C 
BRANCH  15  16
ATOM     16  C   UNL     1       6.128   3.848  14.717  0.00  0.00    +0.000 C 
BRANCH  16  18
ATOM     17  C   UNL     1       7.671   5.023  13.250  0.00  0.00    +0.000 C 
ATOM     18  N   UNL     1       6.356   4.386  13.357  0.00  0.00    +0.000 NA
ATOM     19  C   UNL     1       6.248   3.306  12.373  0.00  0.00    +0.000 C 
ENDBRANCH  16  18
ENDBRANCH  15  16
ENDBRANCH   1  15
BRANCH   9  20
ATOM     20  O   UNL     1       0.927   7.734  20.397  0.00  0.00    +0.000 OA
BRANCH  20  21
ATOM     21  C   UNL     1       1.157   8.537  21.555  0.00  0.00    +0.000 C 
BRANCH  21  22
ATOM     22  C   UNL     1      -0.168   9.049  22.027  0.00  0.00    +0.000 C 
ATOM     23  C   UNL     1      -0.283   9.715  23.377  0.00  0.00    +0.000 C 
ATOM     24  C   UNL     1      -0.428  10.535  22.124  0.00  0.00    +0.000 C 
ENDBRANCH  21  22
ENDBRANCH  20  21
ENDBRANCH   9  20
TORSDOF 6
ENDMDL
