MODEL 1
REMARK VINA RESULT:      -7.5      0.000      0.000
REMARK  Name = 
REMARK  3 active torsions:
REMARK  status: ('A' for Active; 'I' for Inactive)
REMARK    1  A    between atoms: C_2  and  C_3
REMARK    2  A    between atoms: C_5  and  C_6
REMARK    3  A    between atoms: C_17  and  O_18
REMARK                            x       y       z     vdW  Elec       q    Type
REMARK                         _______ _______ _______ _____ _____    ______ ____
ROOT
ATOM      1  C   UNL     1       2.487   3.103  20.204  0.00  0.00    +0.000 A 
ATOM      2  C   UNL     1       3.720   3.499  19.666  0.00  0.00    +0.000 A 
ATOM      3  C   UNL     1       3.782   4.182  18.445  0.00  0.00    +0.000 A 
ATOM      4  C   UNL     1       2.587   4.391  17.738  0.00  0.00    +0.000 A 
ATOM      5  C   UNL     1       1.359   3.959  18.249  0.00  0.00    +0.000 A 
ATOM      6  C   UNL     1       1.310   3.331  19.492  0.00  0.00    +0.000 A 
ENDROOT
BRANCH   3   7
ATOM      7  C   UNL     1       5.063   4.695  17.940  0.00  0.00    +0.000 A 
ATOM      8  C   UNL     1       5.951   5.340  18.781  0.00  0.00    +0.000 A 
ATOM      9  S   UNL     1       7.378   5.833  17.997  0.00  0.00    +0.000 S 
ATOM     10  C   UNL     1       6.847   5.221  16.484  0.00  0.00    +0.000 A 
ATOM     11  C   UNL     1       7.552   5.278  15.261  0.00  0.00    +0.000 A 
ATOM     12  C   UNL     1       6.975   4.735  14.114  0.00  0.00    +0.000 A 
ATOM     13  C   UNL     1       5.736   4.124  14.176  0.00  0.00    +0.000 A 
ATOM     14  C   UNL     1       5.051   4.050  15.394  0.00  0.00    +0.000 A 
ATOM     15  C   UNL     1       5.586   4.619  16.582  0.00  0.00    +0.000 A 
ENDBRANCH   3   7
BRANCH   1  17
ATOM     16  O   UNL     1       1.551   2.718  22.340  0.00  0.00    +0.000 OA
ATOM     17  C   UNL     1       2.451   2.481  21.542  0.00  0.00    +0.000 C 
ENDBRANCH   1  17
BRANCH   6  18
ATOM     18  O   UNL     1       0.109   2.946  20.016  0.00  0.00    +0.000 OA
ATOM     19  H   UNL     1      -0.486   2.674  19.295  0.00  0.00    +0.000 HD
ENDBRANCH   6  18
TORSDOF 3
ENDMDL
MODEL 2
REMARK VINA RESULT:      -7.5      3.932      6.620
REMARK  Name = 
REMARK  3 active torsions:
REMARK  status: ('A' for Active; 'I' for Inactive)
REMARK    1  A    between atoms: C_2  and  C_3
REMARK    2  A    between atoms: C_5  and  C_6
REMARK    3  A    between atoms: C_17  and  O_18
REMARK                            x       y       z     vdW  Elec       q    Type
REMARK                         _______ _______ _______ _____ _____    ______ ____
ROOT
ATOM      1  C   UNL     1       5.937   4.163  14.593  0.00  0.00    +0.000 A 
ATOM      2  C   UNL     1       4.991   3.702  15.518  0.00  0.00    +0.000 A 
ATOM      3  C   UNL     1       5.046   4.102  16.859  0.00  0.00    +0.000 A 
ATOM      4  C   UNL     1       6.116   4.914  17.268  0.00  0.00    +0.000 A 
ATOM      5  C   UNL     1       7.088   5.342  16.357  0.00  0.00    +0.000 A 
ATOM      6  C   UNL     1       6.986   4.980  15.016  0.00  0.00    +0.000 A 
ENDROOT
BRANCH   3   7
ATOM      7  C   UNL     1       3.989   3.708  17.801  0.00  0.00    +0.000 A 
ATOM      8  C   UNL     1       3.596   2.387  17.915  0.00  0.00    +0.000 A 
ATOM      9  S   UNL     1       2.375   2.149  19.076  0.00  0.00    +0.000 S 
ATOM     10  C   UNL     1       2.306   3.822  19.454  0.00  0.00    +0.000 A 
ATOM     11  C   UNL     1       1.451   4.434  20.398  0.00  0.00    +0.000 A 
ATOM     12  C   UNL     1       1.517   5.814  20.584  0.00  0.00    +0.000 A 
ATOM     13  C   UNL     1       2.427   6.574  19.872  0.00  0.00    +0.000 A 
ATOM     14  C   UNL     1       3.287   5.960  18.954  0.00  0.00    +0.000 A 
ATOM     15  C   UNL     1       3.233   4.561  18.708  0.00  0.00    +0.000 A 
ENDBRANCH   3   7
BRANCH   1  17
ATOM     16  O   UNL     1       6.758   3.639  12.439  0.00  0.00    +0.000 OA
ATOM     17  C   UNL     1       5.787   3.806  13.168  0.00  0.00    +0.000 C 
ENDBRANCH   1  17
BRANCH   6  18
ATOM     18  O   UNL     1       7.908   5.431  14.115  0.00  0.00    +0.000 OA
ATOM     19  H   UNL     1       7.581   6.248  13.700  0.00  0.00    +0.000 HD
ENDBRANCH   6  18
TORSDOF 3
ENDMDL
MODEL 3
REMARK VINA RESULT:      -7.4      4.167      5.146
REMARK  Name = 
REMARK  3 active torsions:
REMARK  status: ('A' for Active; 'I' for Inactive)
REMARK    1  A    between atoms: C_2  and  C_3
REMARK    2  A    between atoms: C_5  and  C_6
REMARK    3  A    between atoms: C_17  and  O_18
REMARK                            x       y       z     vdW  Elec       q    Type
REMARK                         _______ _______ _______ _____ _____    ______ ____
ROOT
ATOM      1  C   UNL     1       1.307   8.745  20.459  0.00  0.00    +0.000 A 
ATOM      2  C   UNL     1       1.974   7.632  19.928  0.00  0.00    +0.000 A 
ATOM      3  C   UNL     1       2.331   7.590  18.575  0.00  0.00    +0.000 A 
ATOM      4  C   UNL     1       1.937   8.655  17.749  0.00  0.00    +0.000 A 
ATOM      5  C   UNL     1       1.233   9.748  18.265  0.00  0.00    +0.000 A 
ATOM      6  C   UNL     1       0.935   9.800  19.625  0.00  0.00    +0.000 A 
ENDROOT
BRANCH   3   7
ATOM      7  C   UNL     1       3.128   6.474  18.046  0.00  0.00    +0.000 A 
ATOM      8  C   UNL     1       4.369   6.695  17.479  0.00  0.00    +0.000 A 
ATOM      9  S   UNL     1       5.128   5.266  16.951  0.00  0.00    +0.000 S 
ATOM     10  C   UNL     1       3.801   4.292  17.442  0.00  0.00    +0.000 A 
ATOM     11  C   UNL     1       3.694   2.891  17.306  0.00  0.00    +0.000 A 
ATOM     12  C   UNL     1       2.541   2.247  17.753  0.00  0.00    +0.000 A 
ATOM     13  C   UNL     1       1.523   2.970  18.348  0.00  0.00    +0.000 A 
ATOM     14  C   UNL     1       1.643   4.356  18.501  0.00  0.00    +0.000 A 
ATOM     15  C   UNL     1       2.786   5.058  18.030  0.00  0.00    +0.000 A 
ENDBRANCH   3   7
BRANCH   1  17
ATOM     16  O   UNL     1       1.585   9.629  22.634  0.00  0.00    +0.000 OA
ATOM     17  C   UNL     1       1.042   8.801  21.911  0.00  0.00    +0.000 C 
ENDBRANCH   1  17
BRANCH   6  18
ATOM     18  O   UNL     1       0.287  10.884  20.142  0.00  0.00    +0.000 OA
ATOM     19  H   UNL     1       0.256  11.591  19.474  0.00  0.00    +0.000 HD
ENDBRANCH   6  18
TORSDOF 3
ENDMDL
MODEL 4
REMARK VINA RESULT:      -7.2      3.741      6.354
REMARK  Name = 
REMARK  3 active torsions:
REMARK  status: ('A' for Active; 'I' for Inactive)
REMARK    1  A    between atoms: C_2  and  C_3
REMARK    2  A    between atoms: C_5  and  C_6
REMARK    3  A    between atoms: C_17  and  O_18
REMARK                            x       y       z     vdW  Elec       q    Type
REMARK                         _______ _______ _______ _____ _____    ______ ____
ROOT
ATOM      1  C   UNL     1       5.711   4.646  15.108  0.00  0.00    +0.000 A 
ATOM      2  C   UNL     1       4.695   4.593  16.072  0.00  0.00    +0.000 A 
ATOM      3  C   UNL     1       4.854   5.218  17.314  0.00  0.00    +0.000 A 
ATOM      4  C   UNL     1       6.084   5.834  17.598  0.00  0.00    +0.000 A 
ATOM      5  C   UNL     1       7.117   5.852  16.655  0.00  0.00    +0.000 A 
ATOM      6  C   UNL     1       6.921   5.273  15.402  0.00  0.00    +0.000 A 
ENDROOT
BRANCH   3   7
ATOM      7  C   UNL     1       3.746   5.257  18.279  0.00  0.00    +0.000 A 
ATOM      8  C   UNL     1       3.500   6.390  19.032  0.00  0.00    +0.000 A 
ATOM      9  S   UNL     1       2.160   6.227  20.069  0.00  0.00    +0.000 S 
ATOM     10  C   UNL     1       1.872   4.611  19.564  0.00  0.00    +0.000 A 
ATOM     11  C   UNL     1       0.850   3.756  20.032  0.00  0.00    +0.000 A 
ATOM     12  C   UNL     1       0.754   2.463  19.520  0.00  0.00    +0.000 A 
ATOM     13  C   UNL     1       1.635   2.029  18.546  0.00  0.00    +0.000 A 
ATOM     14  C   UNL     1       2.632   2.888  18.069  0.00  0.00    +0.000 A 
ATOM     15  C   UNL     1       2.787   4.203  18.586  0.00  0.00    +0.000 A 
ENDBRANCH   3   7
BRANCH   1  17
ATOM     16  O   UNL     1       6.368   3.552  13.117  0.00  0.00    +0.000 OA
ATOM     17  C   UNL     1       5.467   4.068  13.771  0.00  0.00    +0.000 C 
ENDBRANCH   1  17
BRANCH   6  18
ATOM     18  O   UNL     1       7.911   5.327  14.463  0.00  0.00    +0.000 OA
ATOM     19  H   UNL     1       8.542   6.030  14.698  0.00  0.00    +0.000 HD
ENDBRANCH   6  18
TORSDOF 3
ENDMDL
MODEL 5
REMARK VINA RESULT:      -7.2      3.697      6.432
REMARK  Name = 
REMARK  3 active torsions:
REMARK  status: ('A' for Active; 'I' for Inactive)
REMARK    1  A    between atoms: C_2  and  C_3
REMARK    2  A    between atoms: C_5  and  C_6
REMARK    3  A    between atoms: C_17  and  O_18
REMARK                            x       y       z     vdW  Elec       q    Type
REMARK                         _______ _______ _______ _____ _____    ______ ____
ROOT
ATOM      1  C   UNL     1       5.753   4.768  15.376  0.00  0.00    +0.000 A 
ATOM      2  C   UNL     1       4.787   4.736  16.390  0.00  0.00    +0.000 A 
ATOM      3  C   UNL     1       4.986   5.427  17.592  0.00  0.00    +0.000 A 
ATOM      4  C   UNL     1       6.210   6.088  17.785  0.00  0.00    +0.000 A 
ATOM      5  C   UNL     1       7.196   6.086  16.792  0.00  0.00    +0.000 A 
ATOM      6  C   UNL     1       6.958   5.441  15.581  0.00  0.00    +0.000 A 
ENDROOT
BRANCH   3   7
ATOM      7  C   UNL     1       3.924   5.484  18.607  0.00  0.00    +0.000 A 
ATOM      8  C   UNL     1       3.168   6.629  18.778  0.00  0.00    +0.000 A 
ATOM      9  S   UNL     1       1.983   6.473  19.989  0.00  0.00    +0.000 S 
ATOM     10  C   UNL     1       2.459   4.863  20.351  0.00  0.00    +0.000 A 
ATOM     11  C   UNL     1       1.892   4.022  21.334  0.00  0.00    +0.000 A 
ATOM     12  C   UNL     1       2.399   2.736  21.507  0.00  0.00    +0.000 A 
ATOM     13  C   UNL     1       3.431   2.277  20.708  0.00  0.00    +0.000 A 
ATOM     14  C   UNL     1       3.975   3.106  19.720  0.00  0.00    +0.000 A 
ATOM     15  C   UNL     1       3.510   4.437  19.531  0.00  0.00    +0.000 A 
ENDBRANCH   3   7
BRANCH   1  17
ATOM     16  O   UNL     1       6.348   3.601  13.408  0.00  0.00    +0.000 OA
ATOM     17  C   UNL     1       5.464   4.117  14.083  0.00  0.00    +0.000 C 
ENDBRANCH   1  17
BRANCH   6  18
ATOM     18  O   UNL     1       7.900   5.473  14.593  0.00  0.00    +0.000 OA
ATOM     19  H   UNL     1       7.729   6.232  14.008  0.00  0.00    +0.000 HD
ENDBRANCH   6  18
TORSDOF 3
ENDMDL
MODEL 6
REMARK VINA RESULT:      -7.1      3.819      6.390
REMARK  Name = 
REMARK  3 active torsions:
REMARK  status: ('A' for Active; 'I' for Inactive)
REMARK    1  A    between atoms: C_2  and  C_3
REMARK    2  A    between atoms: C_5  and  C_6
REMARK    3  A    between atoms: C_17  and  O_18
REMARK                            x       y       z     vdW  Elec       q    Type
REMARK                         _______ _______ _______ _____ _____    ______ ____
ROOT
ATOM      1  C   UNL     1       6.674   5.741  16.562  0.00  0.00    +0.000 A 
ATOM      2  C   UNL     1       5.592   5.323  17.349  0.00  0.00    +0.000 A 
ATOM      3  C   UNL     1       4.753   4.288  16.921  0.00  0.00    +0.000 A 
ATOM      4  C   UNL     1       4.978   3.731  15.651  0.00  0.00    +0.000 A 
ATOM      5  C   UNL     1       6.030   4.174  14.844  0.00  0.00    +0.000 A 
ATOM      6  C   UNL     1       6.889   5.167  15.309  0.00  0.00    +0.000 A 
ENDROOT
BRANCH   3   7
ATOM      7  C   UNL     1       3.689   3.776  17.796  0.00  0.00    +0.000 A 
ATOM      8  C   UNL     1       3.304   2.450  17.745  0.00  0.00    +0.000 A 
ATOM      9  S   UNL     1       2.073   2.066  18.855  0.00  0.00    +0.000 S 
ATOM     10  C   UNL     1       1.990   3.681  19.434  0.00  0.00    +0.000 A 
ATOM     11  C   UNL     1       1.122   4.169  20.435  0.00  0.00    +0.000 A 
ATOM     12  C   UNL     1       1.177   5.516  20.789  0.00  0.00    +0.000 A 
ATOM     13  C   UNL     1       2.089   6.361  20.184  0.00  0.00    +0.000 A 
ATOM     14  C   UNL     1       2.962   5.868  19.208  0.00  0.00    +0.000 A 
ATOM     15  C   UNL     1       2.919   4.509  18.793  0.00  0.00    +0.000 A 
ENDBRANCH   3   7
BRANCH   1  17
ATOM     16  O   UNL     1       7.344   7.960  17.029  0.00  0.00    +0.000 OA
ATOM     17  C   UNL     1       7.600   6.762  17.093  0.00  0.00    +0.000 C 
ENDBRANCH   1  17
BRANCH   6  18
ATOM     18  O   UNL     1       7.944   5.573  14.543  0.00  0.00    +0.000 OA
ATOM     19  H   UNL     1       8.222   4.842  13.963  0.00  0.00    +0.000 HD
ENDBRANCH   6  18
TORSDOF 3
ENDMDL
MODEL 7
REMARK VINA RESULT:      -7.1      4.404      6.051
REMARK  Name = 
REMARK  3 active torsions:
REMARK  status: ('A' for Active; 'I' for Inactive)
REMARK    1  A    between atoms: C_2  and  C_3
REMARK    2  A    between atoms: C_5  and  C_6
REMARK    3  A    between atoms: C_17  and  O_18
REMARK                            x       y       z     vdW  Elec       q    Type
REMARK                         _______ _______ _______ _____ _____    ______ ____
ROOT
ATOM      1  C   UNL     1       1.126   9.266  20.200  0.00  0.00    +0.000 A 
ATOM      2  C   UNL     1       1.717   7.997  20.251  0.00  0.00    +0.000 A 
ATOM      3  C   UNL     1       2.320   7.441  19.117  0.00  0.00    +0.000 A 
ATOM      4  C   UNL     1       2.250   8.154  17.909  0.00  0.00    +0.000 A 
ATOM      5  C   UNL     1       1.623   9.403  17.842  0.00  0.00    +0.000 A 
ATOM      6  C   UNL     1       1.077   9.966  18.994  0.00  0.00    +0.000 A 
ENDROOT
BRANCH   3   7
ATOM      7  C   UNL     1       3.037   6.161  19.202  0.00  0.00    +0.000 A 
ATOM      8  C   UNL     1       4.289   6.010  18.636  0.00  0.00    +0.000 A 
ATOM      9  S   UNL     1       4.947   4.458  18.868  0.00  0.00    +0.000 S 
ATOM     10  C   UNL     1       3.557   3.916  19.719  0.00  0.00    +0.000 A 
ATOM     11  C   UNL     1       3.352   2.626  20.256  0.00  0.00    +0.000 A 
ATOM     12  C   UNL     1       2.159   2.343  20.918  0.00  0.00    +0.000 A 
ATOM     13  C   UNL     1       1.194   3.323  21.070  0.00  0.00    +0.000 A 
ATOM     14  C   UNL     1       1.410   4.606  20.555  0.00  0.00    +0.000 A 
ATOM     15  C   UNL     1       2.599   4.929  19.844  0.00  0.00    +0.000 A 
ENDBRANCH   3   7
BRANCH   1  17
ATOM     16  O   UNL     1       0.903  10.998  21.794  0.00  0.00    +0.000 OA
ATOM     17  C   UNL     1       0.594   9.865  21.441  0.00  0.00    +0.000 C 
ENDBRANCH   1  17
BRANCH   6  18
ATOM     18  O   UNL     1       0.502  11.203  18.943  0.00  0.00    +0.000 OA
ATOM     19  H   UNL     1       0.737  11.635  18.103  0.00  0.00    +0.000 HD
ENDBRANCH   6  18
TORSDOF 3
ENDMDL
MODEL 8
REMARK VINA RESULT:      -7.0      4.099      4.633
REMARK  Name = 
REMARK  3 active torsions:
REMARK  status: ('A' for Active; 'I' for Inactive)
REMARK    1  A    between atoms: C_2  and  C_3
REMARK    2  A    between atoms: C_5  and  C_6
REMARK    3  A    between atoms: C_17  and  O_18
REMARK                            x       y       z     vdW  Elec       q    Type
REMARK                         _______ _______ _______ _____ _____    ______ ____
ROOT
ATOM      1  C   UNL     1       1.443   8.588  20.367  0.00  0.00    +0.000 A 
ATOM      2  C   UNL     1       1.988   7.396  19.872  0.00  0.00    +0.000 A 
ATOM      3  C   UNL     1       2.398   7.296  18.536  0.00  0.00    +0.000 A 
ATOM      4  C   UNL     1       2.177   8.394  17.689  0.00  0.00    +0.000 A 
ATOM      5  C   UNL     1       1.593   9.571  18.169  0.00  0.00    +0.000 A 
ATOM      6  C   UNL     1       1.243   9.672  19.513  0.00  0.00    +0.000 A 
ENDROOT
BRANCH   3   7
ATOM      7  C   UNL     1       3.072   6.085  18.049  0.00  0.00    +0.000 A 
ATOM      8  C   UNL     1       2.406   4.874  17.999  0.00  0.00    +0.000 A 
ATOM      9  S   UNL     1       3.364   3.608  17.384  0.00  0.00    +0.000 S 
ATOM     10  C   UNL     1       4.725   4.636  17.186  0.00  0.00    +0.000 A 
ATOM     11  C   UNL     1       5.995   4.260  16.693  0.00  0.00    +0.000 A 
ATOM     12  C   UNL     1       7.001   5.220  16.598  0.00  0.00    +0.000 A 
ATOM     13  C   UNL     1       6.753   6.532  16.958  0.00  0.00    +0.000 A 
ATOM     14  C   UNL     1       5.487   6.904  17.425  0.00  0.00    +0.000 A 
ATOM     15  C   UNL     1       4.441   5.952  17.569  0.00  0.00    +0.000 A 
ENDBRANCH   3   7
BRANCH   1  17
ATOM     16  O   UNL     1       1.741   9.439  22.553  0.00  0.00    +0.000 OA
ATOM     17  C   UNL     1       1.121   8.691  21.805  0.00  0.00    +0.000 C 
ENDBRANCH   1  17
BRANCH   6  18
ATOM     18  O   UNL     1       0.713  10.834  19.996  0.00  0.00    +0.000 OA
ATOM     19  H   UNL     1       0.915  10.912  20.945  0.00  0.00    +0.000 HD
ENDBRANCH   6  18
TORSDOF 3
ENDMDL
MODEL 9
REMARK VINA RESULT:      -6.8      1.102      1.619
REMARK  Name = 
REMARK  3 active torsions:
REMARK  status: ('A' for Active; 'I' for Inactive)
REMARK    1  A    between atoms: C_2  and  C_3
REMARK    2  A    between atoms: C_5  and  C_6
REMARK    3  A    between atoms: C_17  and  O_18
REMARK                            x       y       z     vdW  Elec       q    Type
REMARK                         _______ _______ _______ _____ _____    ______ ____
ROOT
ATOM      1  C   UNL     1       1.949   3.274  19.092  0.00  0.00    +0.000 A 
ATOM      2  C   UNL     1       3.160   3.590  18.461  0.00  0.00    +0.000 A 
ATOM      3  C   UNL     1       3.857   4.758  18.794  0.00  0.00    +0.000 A 
ATOM      4  C   UNL     1       3.275   5.641  19.718  0.00  0.00    +0.000 A 
ATOM      5  C   UNL     1       2.045   5.351  20.318  0.00  0.00    +0.000 A 
ATOM      6  C   UNL     1       1.392   4.157  20.017  0.00  0.00    +0.000 A 
ENDROOT
BRANCH   3   7
ATOM      7  C   UNL     1       5.180   5.030  18.214  0.00  0.00    +0.000 A 
ATOM      8  C   UNL     1       6.211   5.515  18.996  0.00  0.00    +0.000 A 
ATOM      9  S   UNL     1       7.660   5.740  18.131  0.00  0.00    +0.000 S 
ATOM     10  C   UNL     1       6.947   5.218  16.658  0.00  0.00    +0.000 A 
ATOM     11  C   UNL     1       7.585   5.137  15.400  0.00  0.00    +0.000 A 
ATOM     12  C   UNL     1       6.860   4.695  14.295  0.00  0.00    +0.000 A 
ATOM     13  C   UNL     1       5.538   4.315  14.432  0.00  0.00    +0.000 A 
ATOM     14  C   UNL     1       4.917   4.375  15.684  0.00  0.00    +0.000 A 
ATOM     15  C   UNL     1       5.607   4.850  16.832  0.00  0.00    +0.000 A 
ENDBRANCH   3   7
BRANCH   1  17
ATOM     16  O   UNL     1       0.150   1.925  18.362  0.00  0.00    +0.000 OA
ATOM     17  C   UNL     1       1.296   1.984  18.794  0.00  0.00    +0.000 C 
ENDBRANCH   1  17
BRANCH   6  18
ATOM     18  O   UNL     1       0.213   3.849  20.633  0.00  0.00    +0.000 OA
ATOM     19  H   UNL     1       0.368   3.155  21.298  0.00  0.00    +0.000 HD
ENDBRANCH   6  18
TORSDOF 3
ENDMDL
