MODEL 1
REMARK VINA RESULT:      -6.8      0.000      0.000
REMARK  Name = 
REMARK  8 active torsions:
REMARK  status: ('A' for Active; 'I' for Inactive)
REMARK    1  A    between atoms: C_1  and  C_2
REMARK    2  A    between atoms: C_5  and  C_6
REMARK    3  A    between atoms: C_6  and  N_7
REMARK    4  A    between atoms: C_8  and  C_10
REMARK    5  A    between atoms: C_10  and  C_11
REMARK    6  A    between atoms: C_11  and  C_12
REMARK    7  A    between atoms: C_12  and  C_13
REMARK    8  A    between atoms: C_13  and  O_15
REMARK                            x       y       z     vdW  Elec       q    Type
REMARK                         _______ _______ _______ _____ _____    ______ ____
ROOT
ATOM      1  N   UNL     1       6.221   4.174  16.361  0.00  0.00    +0.000 N 
ATOM      2  C   UNL     1       6.974   5.133  15.725  0.00  0.00    +0.000 C 
ATOM      3  O   UNL     1       7.444   6.110  16.300  0.00  0.00    +0.000 OA
ATOM      4  H   UNL     1       5.840   3.399  15.832  0.00  0.00    +0.000 HD
ENDROOT
BRANCH   1   5
ATOM      5  C   UNL     1       5.918   4.250  17.772  0.00  0.00    +0.000 C 
BRANCH   5  10
ATOM      6  C   UNL     1       0.502   2.549  19.125  0.00  0.00    +0.000 C 
ATOM      7  C   UNL     1       1.903   2.955  18.772  0.00  0.00    +0.000 A 
ATOM      8  C   UNL     1       2.969   2.703  19.640  0.00  0.00    +0.000 A 
ATOM      9  C   UNL     1       4.267   3.104  19.305  0.00  0.00    +0.000 A 
ATOM     10  C   UNL     1       4.527   3.758  18.094  0.00  0.00    +0.000 A 
ATOM     11  C   UNL     1       3.455   4.008  17.225  0.00  0.00    +0.000 A 
ATOM     12  C   UNL     1       2.158   3.609  17.561  0.00  0.00    +0.000 A 
ENDBRANCH   5  10
ENDBRANCH   1   5
BRANCH   2  13
ATOM     13  C   UNL     1       7.183   4.884  14.244  0.00  0.00    +0.000 C 
BRANCH  13  14
ATOM     14  C   UNL     1       6.257   3.785  13.711  0.00  0.00    +0.000 C 
BRANCH  14  15
ATOM     15  C   UNL     1       6.445   3.506  12.215  0.00  0.00    +0.000 C 
BRANCH  15  16
ATOM     16  C   UNL     1       5.371   2.597  11.667  0.00  0.00    +0.000 C 
ATOM     17  O   UNL     1       4.242   2.957  11.371  0.00  0.00    +0.000 OA
BRANCH  16  18
ATOM     18  O   UNL     1       5.782   1.319  11.516  0.00  0.00    +0.000 OA
ATOM     19  H   UNL     1       6.054   0.888  12.348  0.00  0.00    +0.000 HD
ENDBRANCH  16  18
ENDBRANCH  15  16
ENDBRANCH  14  15
ENDBRANCH  13  14
ENDBRANCH   2  13
TORSDOF 7
ENDMDL
MODEL 2
REMARK VINA RESULT:      -6.6      3.751      6.898
REMARK  Name = 
REMARK  8 active torsions:
REMARK  status: ('A' for Active; 'I' for Inactive)
REMARK    1  A    between atoms: C_1  and  C_2
REMARK    2  A    between atoms: C_5  and  C_6
REMARK    3  A    between atoms: C_6  and  N_7
REMARK    4  A    between atoms: C_8  and  C_10
REMARK    5  A    between atoms: C_10  and  C_11
REMARK    6  A    between atoms: C_11  and  C_12
REMARK    7  A    between atoms: C_12  and  C_13
REMARK    8  A    between atoms: C_13  and  O_15
REMARK                            x       y       z     vdW  Elec       q    Type
REMARK                         _______ _______ _______ _____ _____    ______ ____
ROOT
ATOM      1  N   UNL     1       3.384   3.285  17.678  0.00  0.00    +0.000 N 
ATOM      2  C   UNL     1       3.087   2.142  18.381  0.00  0.00    +0.000 C 
ATOM      3  O   UNL     1       3.781   1.130  18.344  0.00  0.00    +0.000 OA
ATOM      4  H   UNL     1       2.764   4.084  17.729  0.00  0.00    +0.000 HD
ENDROOT
BRANCH   1   5
ATOM      5  C   UNL     1       4.548   3.379  16.825  0.00  0.00    +0.000 C 
BRANCH   5  10
ATOM      6  C   UNL     1       7.831   8.128  17.680  0.00  0.00    +0.000 C 
ATOM      7  C   UNL     1       6.981   6.905  17.493  0.00  0.00    +0.000 A 
ATOM      8  C   UNL     1       7.426   5.645  17.902  0.00  0.00    +0.000 A 
ATOM      9  C   UNL     1       6.630   4.512  17.705  0.00  0.00    +0.000 A 
ATOM     10  C   UNL     1       5.370   4.615  17.100  0.00  0.00    +0.000 A 
ATOM     11  C   UNL     1       4.927   5.882  16.691  0.00  0.00    +0.000 A 
ATOM     12  C   UNL     1       5.724   7.013  16.887  0.00  0.00    +0.000 A 
ENDBRANCH   5  10
ENDBRANCH   1   5
BRANCH   2  13
ATOM     13  C   UNL     1       1.826   2.232  19.217  0.00  0.00    +0.000 C 
BRANCH  13  14
ATOM     14  C   UNL     1       1.184   3.622  19.141  0.00  0.00    +0.000 C 
BRANCH  14  15
ATOM     15  C   UNL     1       1.280   4.408  20.454  0.00  0.00    +0.000 C 
BRANCH  15  16
ATOM     16  C   UNL     1       2.298   5.520  20.378  0.00  0.00    +0.000 C 
ATOM     17  O   UNL     1       3.405   5.414  19.875  0.00  0.00    +0.000 OA
BRANCH  16  18
ATOM     18  O   UNL     1       1.861   6.679  20.920  0.00  0.00    +0.000 OA
ATOM     19  H   UNL     1       1.676   7.378  20.266  0.00  0.00    +0.000 HD
ENDBRANCH  16  18
ENDBRANCH  15  16
ENDBRANCH  14  15
ENDBRANCH  13  14
ENDBRANCH   2  13
TORSDOF 7
ENDMDL
MODEL 3
REMARK VINA RESULT:      -6.5      1.506      1.779
REMARK  Name = 
REMARK  8 active torsions:
REMARK  status: ('A' for Active; 'I' for Inactive)
REMARK    1  A    between atoms: C_1  and  C_2
REMARK    2  A    between atoms: C_5  and  C_6
REMARK    3  A    between atoms: C_6  and  N_7
REMARK    4  A    between atoms: C_8  and  C_10
REMARK    5  A    between atoms: C_10  and  C_11
REMARK    6  A    between atoms: C_11  and  C_12
REMARK    7  A    between atoms: C_12  and  C_13
REMARK    8  A    between atoms: C_13  and  O_15
REMARK                            x       y       z     vdW  Elec       q    Type
REMARK                         _______ _______ _______ _____ _____    ______ ____
ROOT
ATOM      1  N   UNL     1       4.759   5.230  16.485  0.00  0.00    +0.000 N 
ATOM      2  C   UNL     1       5.989   5.621  16.011  0.00  0.00    +0.000 C 
ATOM      3  O   UNL     1       6.528   6.676  16.331  0.00  0.00    +0.000 OA
ATOM      4  H   UNL     1       4.352   4.358  16.170  0.00  0.00    +0.000 HD
ENDROOT
BRANCH   1   5
ATOM      5  C   UNL     1       3.996   6.047  17.401  0.00  0.00    +0.000 C 
BRANCH   5  10
ATOM      6  C   UNL     1       1.253   2.771  21.377  0.00  0.00    +0.000 C 
ATOM      7  C   UNL     1       1.929   3.619  20.339  0.00  0.00    +0.000 A 
ATOM      8  C   UNL     1       2.114   3.154  19.034  0.00  0.00    +0.000 A 
ATOM      9  C   UNL     1       2.762   3.948  18.083  0.00  0.00    +0.000 A 
ATOM     10  C   UNL     1       3.234   5.226  18.413  0.00  0.00    +0.000 A 
ATOM     11  C   UNL     1       3.047   5.688  19.724  0.00  0.00    +0.000 A 
ATOM     12  C   UNL     1       2.400   4.893  20.675  0.00  0.00    +0.000 A 
ENDBRANCH   5  10
ENDBRANCH   1   5
BRANCH   2  13
ATOM     13  C   UNL     1       6.635   4.636  15.058  0.00  0.00    +0.000 C 
BRANCH  13  14
ATOM     14  C   UNL     1       5.651   4.137  13.993  0.00  0.00    +0.000 C 
BRANCH  14  15
ATOM     15  C   UNL     1       6.336   3.657  12.709  0.00  0.00    +0.000 C 
BRANCH  15  16
ATOM     16  C   UNL     1       5.434   2.776  11.878  0.00  0.00    +0.000 C 
ATOM     17  O   UNL     1       4.347   3.116  11.438  0.00  0.00    +0.000 OA
BRANCH  16  18
ATOM     18  O   UNL     1       5.954   1.551  11.646  0.00  0.00    +0.000 OA
ATOM     19  H   UNL     1       5.341   0.938  11.199  0.00  0.00    +0.000 HD
ENDBRANCH  16  18
ENDBRANCH  15  16
ENDBRANCH  14  15
ENDBRANCH  13  14
ENDBRANCH   2  13
TORSDOF 7
ENDMDL
MODEL 4
REMARK VINA RESULT:      -6.5      3.559      4.756
REMARK  Name = 
REMARK  8 active torsions:
REMARK  status: ('A' for Active; 'I' for Inactive)
REMARK    1  A    between atoms: C_1  and  C_2
REMARK    2  A    between atoms: C_5  and  C_6
REMARK    3  A    between atoms: C_6  and  N_7
REMARK    4  A    between atoms: C_8  and  C_10
REMARK    5  A    between atoms: C_10  and  C_11
REMARK    6  A    between atoms: C_11  and  C_12
REMARK    7  A    between atoms: C_12  and  C_13
REMARK    8  A    between atoms: C_13  and  O_15
REMARK                            x       y       z     vdW  Elec       q    Type
REMARK                         _______ _______ _______ _____ _____    ______ ____
ROOT
ATOM      1  N   UNL     1       5.257   5.311  16.921  0.00  0.00    +0.000 N 
ATOM      2  C   UNL     1       4.863   6.624  17.029  0.00  0.00    +0.000 C 
ATOM      3  O   UNL     1       3.700   6.990  16.893  0.00  0.00    +0.000 OA
ATOM      4  H   UNL     1       6.235   5.068  17.022  0.00  0.00    +0.000 HD
ENDROOT
BRANCH   1   5
ATOM      5  C   UNL     1       4.318   4.251  16.629  0.00  0.00    +0.000 C 
BRANCH   5  10
ATOM      6  C   UNL     1       1.379   2.737  21.437  0.00  0.00    +0.000 C 
ATOM      7  C   UNL     1       2.140   3.094  20.194  0.00  0.00    +0.000 A 
ATOM      8  C   UNL     1       3.528   2.944  20.128  0.00  0.00    +0.000 A 
ATOM      9  C   UNL     1       4.225   3.298  18.968  0.00  0.00    +0.000 A 
ATOM     10  C   UNL     1       3.551   3.804  17.849  0.00  0.00    +0.000 A 
ATOM     11  C   UNL     1       2.158   3.953  17.920  0.00  0.00    +0.000 A 
ATOM     12  C   UNL     1       1.461   3.600  19.080  0.00  0.00    +0.000 A 
ENDBRANCH   5  10
ENDBRANCH   1   5
BRANCH   2  13
ATOM     13  C   UNL     1       5.988   7.592  17.335  0.00  0.00    +0.000 C 
BRANCH  13  14
ATOM     14  C   UNL     1       7.363   6.918  17.257  0.00  0.00    +0.000 C 
BRANCH  14  15
ATOM     15  C   UNL     1       8.067   6.815  18.615  0.00  0.00    +0.000 C 
BRANCH  15  16
ATOM     16  C   UNL     1       7.876   5.462  19.255  0.00  0.00    +0.000 C 
ATOM     17  O   UNL     1       7.560   4.448  18.652  0.00  0.00    +0.000 OA
BRANCH  16  18
ATOM     18  O   UNL     1       8.103   5.466  20.587  0.00  0.00    +0.000 OA
ATOM     19  H   UNL     1       7.408   5.911  21.107  0.00  0.00    +0.000 HD
ENDBRANCH  16  18
ENDBRANCH  15  16
ENDBRANCH  14  15
ENDBRANCH  13  14
ENDBRANCH   2  13
TORSDOF 7
ENDMDL
MODEL 5
REMARK VINA RESULT:      -6.5      0.861      1.146
REMARK  Name = 
REMARK  8 active torsions:
REMARK  status: ('A' for Active; 'I' for Inactive)
REMARK    1  A    between atoms: C_1  and  C_2
REMARK    2  A    between atoms: C_5  and  C_6
REMARK    3  A    between atoms: C_6  and  N_7
REMARK    4  A    between atoms: C_8  and  C_10
REMARK    5  A    between atoms: C_10  and  C_11
REMARK    6  A    between atoms: C_11  and  C_12
REMARK    7  A    between atoms: C_12  and  C_13
REMARK    8  A    between atoms: C_13  and  O_15
REMARK                            x       y       z     vdW  Elec       q    Type
REMARK                         _______ _______ _______ _____ _____    ______ ____
ROOT
ATOM      1  N   UNL     1       6.410   4.552  16.760  0.00  0.00    +0.000 N 
ATOM      2  C   UNL     1       6.288   5.432  15.712  0.00  0.00    +0.000 C 
ATOM      3  O   UNL     1       5.737   6.525  15.811  0.00  0.00    +0.000 OA
ATOM      4  H   UNL     1       6.855   3.654  16.616  0.00  0.00    +0.000 HD
ENDROOT
BRANCH   1   5
ATOM      5  C   UNL     1       5.885   4.848  18.075  0.00  0.00    +0.000 C 
BRANCH   5  10
ATOM      6  C   UNL     1       0.599   2.558  19.006  0.00  0.00    +0.000 C 
ATOM      7  C   UNL     1       1.946   3.163  18.739  0.00  0.00    +0.000 A 
ATOM      8  C   UNL     1       2.734   2.730  17.669  0.00  0.00    +0.000 A 
ATOM      9  C   UNL     1       3.996   3.291  17.445  0.00  0.00    +0.000 A 
ATOM     10  C   UNL     1       4.494   4.300  18.281  0.00  0.00    +0.000 A 
ATOM     11  C   UNL     1       3.700   4.731  19.353  0.00  0.00    +0.000 A 
ATOM     12  C   UNL     1       2.440   4.169  19.578  0.00  0.00    +0.000 A 
ENDBRANCH   5  10
ENDBRANCH   1   5
BRANCH   2  13
ATOM     13  C   UNL     1       6.895   4.945  14.411  0.00  0.00    +0.000 C 
BRANCH  13  14
ATOM     14  C   UNL     1       6.109   3.773  13.813  0.00  0.00    +0.000 C 
BRANCH  14  15
ATOM     15  C   UNL     1       6.429   3.517  12.337  0.00  0.00    +0.000 C 
BRANCH  15  16
ATOM     16  C   UNL     1       5.401   2.630  11.677  0.00  0.00    +0.000 C 
ATOM     17  O   UNL     1       4.281   2.991  11.349  0.00  0.00    +0.000 OA
BRANCH  16  18
ATOM     18  O   UNL     1       5.843   1.371  11.462  0.00  0.00    +0.000 OA
ATOM     19  H   UNL     1       5.507   0.967  10.640  0.00  0.00    +0.000 HD
ENDBRANCH  16  18
ENDBRANCH  15  16
ENDBRANCH  14  15
ENDBRANCH  13  14
ENDBRANCH   2  13
TORSDOF 7
ENDMDL
MODEL 6
REMARK VINA RESULT:      -6.5      3.255      6.042
REMARK  Name = 
REMARK  8 active torsions:
REMARK  status: ('A' for Active; 'I' for Inactive)
REMARK    1  A    between atoms: C_1  and  C_2
REMARK    2  A    between atoms: C_5  and  C_6
REMARK    3  A    between atoms: C_6  and  N_7
REMARK    4  A    between atoms: C_8  and  C_10
REMARK    5  A    between atoms: C_10  and  C_11
REMARK    6  A    between atoms: C_11  and  C_12
REMARK    7  A    between atoms: C_12  and  C_13
REMARK    8  A    between atoms: C_13  and  O_15
REMARK                            x       y       z     vdW  Elec       q    Type
REMARK                         _______ _______ _______ _____ _____    ______ ____
ROOT
ATOM      1  N   UNL     1       3.931   5.070  19.766  0.00  0.00    +0.000 N 
ATOM      2  C   UNL     1       2.655   5.564  19.898  0.00  0.00    +0.000 C 
ATOM      3  O   UNL     1       2.301   6.645  19.436  0.00  0.00    +0.000 OA
ATOM      4  H   UNL     1       4.174   4.181  20.186  0.00  0.00    +0.000 HD
ENDROOT
BRANCH   1   5
ATOM      5  C   UNL     1       4.967   5.801  19.071  0.00  0.00    +0.000 C 
BRANCH   5  10
ATOM      6  C   UNL     1       5.898   4.049  13.582  0.00  0.00    +0.000 C 
ATOM      7  C   UNL     1       5.626   4.503  14.987  0.00  0.00    +0.000 A 
ATOM      8  C   UNL     1       5.322   5.838  15.269  0.00  0.00    +0.000 A 
ATOM      9  C   UNL     1       5.089   6.249  16.586  0.00  0.00    +0.000 A 
ATOM     10  C   UNL     1       5.149   5.335  17.647  0.00  0.00    +0.000 A 
ATOM     11  C   UNL     1       5.454   3.997  17.358  0.00  0.00    +0.000 A 
ATOM     12  C   UNL     1       5.688   3.586  16.043  0.00  0.00    +0.000 A 
ENDBRANCH   5  10
ENDBRANCH   1   5
BRANCH   2  13
ATOM     13  C   UNL     1       1.709   4.659  20.661  0.00  0.00    +0.000 C 
BRANCH  13  14
ATOM     14  C   UNL     1       0.920   3.734  19.727  0.00  0.00    +0.000 C 
BRANCH  14  15
ATOM     15  C   UNL     1       1.568   2.356  19.548  0.00  0.00    +0.000 C 
BRANCH  15  16
ATOM     16  C   UNL     1       2.290   2.233  18.228  0.00  0.00    +0.000 C 
ATOM     17  O   UNL     1       2.097   2.956  17.262  0.00  0.00    +0.000 OA
BRANCH  16  18
ATOM     18  O   UNL     1       3.201   1.235  18.210  0.00  0.00    +0.000 OA
ATOM     19  H   UNL     1       2.961   0.469  18.764  0.00  0.00    +0.000 HD
ENDBRANCH  16  18
ENDBRANCH  15  16
ENDBRANCH  14  15
ENDBRANCH  13  14
ENDBRANCH   2  13
TORSDOF 7
ENDMDL
MODEL 7
REMARK VINA RESULT:      -6.4      3.859      7.096
REMARK  Name = 
REMARK  8 active torsions:
REMARK  status: ('A' for Active; 'I' for Inactive)
REMARK    1  A    between atoms: C_1  and  C_2
REMARK    2  A    between atoms: C_5  and  C_6
REMARK    3  A    between atoms: C_6  and  N_7
REMARK    4  A    between atoms: C_8  and  C_10
REMARK    5  A    between atoms: C_10  and  C_11
REMARK    6  A    between atoms: C_11  and  C_12
REMARK    7  A    between atoms: C_12  and  C_13
REMARK    8  A    between atoms: C_13  and  O_15
REMARK                            x       y       z     vdW  Elec       q    Type
REMARK                         _______ _______ _______ _____ _____    ______ ____
ROOT
ATOM      1  N   UNL     1       3.175   3.616  17.661  0.00  0.00    +0.000 N 
ATOM      2  C   UNL     1       2.539   2.649  18.403  0.00  0.00    +0.000 C 
ATOM      3  O   UNL     1       3.019   1.540  18.615  0.00  0.00    +0.000 OA
ATOM      4  H   UNL     1       2.723   4.508  17.501  0.00  0.00    +0.000 HD
ENDROOT
BRANCH   1   5
ATOM      5  C   UNL     1       4.471   3.392  17.061  0.00  0.00    +0.000 C 
BRANCH   5  10
ATOM      6  C   UNL     1       7.863   8.095  17.725  0.00  0.00    +0.000 C 
ATOM      7  C   UNL     1       7.003   6.881  17.523  0.00  0.00    +0.000 A 
ATOM      8  C   UNL     1       5.893   6.915  16.675  0.00  0.00    +0.000 A 
ATOM      9  C   UNL     1       5.090   5.781  16.511  0.00  0.00    +0.000 A 
ATOM     10  C   UNL     1       5.383   4.589  17.187  0.00  0.00    +0.000 A 
ATOM     11  C   UNL     1       6.498   4.560  18.037  0.00  0.00    +0.000 A 
ATOM     12  C   UNL     1       7.299   5.694  18.201  0.00  0.00    +0.000 A 
ENDBRANCH   5  10
ENDBRANCH   1   5
BRANCH   2  13
ATOM     13  C   UNL     1       1.188   3.067  18.948  0.00  0.00    +0.000 C 
BRANCH  13  14
ATOM     14  C   UNL     1       1.131   2.972  20.477  0.00  0.00    +0.000 C 
BRANCH  14  15
ATOM     15  C   UNL     1       2.211   3.805  21.177  0.00  0.00    +0.000 C 
BRANCH  15  16
ATOM     16  C   UNL     1       2.208   5.244  20.718  0.00  0.00    +0.000 C 
ATOM     17  O   UNL     1       1.258   6.004  20.826  0.00  0.00    +0.000 OA
BRANCH  16  18
ATOM     18  O   UNL     1       3.382   5.631  20.174  0.00  0.00    +0.000 OA
ATOM     19  H   UNL     1       3.542   5.277  19.279  0.00  0.00    +0.000 HD
ENDBRANCH  16  18
ENDBRANCH  15  16
ENDBRANCH  14  15
ENDBRANCH  13  14
ENDBRANCH   2  13
TORSDOF 7
ENDMDL
MODEL 8
REMARK VINA RESULT:      -6.4      3.658      7.115
REMARK  Name = 
REMARK  8 active torsions:
REMARK  status: ('A' for Active; 'I' for Inactive)
REMARK    1  A    between atoms: C_1  and  C_2
REMARK    2  A    between atoms: C_5  and  C_6
REMARK    3  A    between atoms: C_6  and  N_7
REMARK    4  A    between atoms: C_8  and  C_10
REMARK    5  A    between atoms: C_10  and  C_11
REMARK    6  A    between atoms: C_11  and  C_12
REMARK    7  A    between atoms: C_12  and  C_13
REMARK    8  A    between atoms: C_13  and  O_15
REMARK                            x       y       z     vdW  Elec       q    Type
REMARK                         _______ _______ _______ _____ _____    ______ ____
ROOT
ATOM      1  N   UNL     1       3.751   3.752  16.846  0.00  0.00    +0.000 N 
ATOM      2  C   UNL     1       3.279   3.282  18.048  0.00  0.00    +0.000 C 
ATOM      3  O   UNL     1       3.992   2.732  18.882  0.00  0.00    +0.000 OA
ATOM      4  H   UNL     1       3.114   4.179  16.185  0.00  0.00    +0.000 HD
ENDROOT
BRANCH   1   5
ATOM      5  C   UNL     1       5.140   3.624  16.465  0.00  0.00    +0.000 C 
BRANCH   5  10
ATOM      6  C   UNL     1       8.167   8.322  18.146  0.00  0.00    +0.000 C 
ATOM      7  C   UNL     1       7.402   7.116  17.683  0.00  0.00    +0.000 A 
ATOM      8  C   UNL     1       6.330   7.237  16.795  0.00  0.00    +0.000 A 
ATOM      9  C   UNL     1       5.615   6.106  16.387  0.00  0.00    +0.000 A 
ATOM     10  C   UNL     1       5.961   4.830  16.853  0.00  0.00    +0.000 A 
ATOM     11  C   UNL     1       7.038   4.714  17.744  0.00  0.00    +0.000 A 
ATOM     12  C   UNL     1       7.751   5.845  18.152  0.00  0.00    +0.000 A 
ENDBRANCH   5  10
ENDBRANCH   1   5
BRANCH   2  13
ATOM     13  C   UNL     1       1.796   3.504  18.267  0.00  0.00    +0.000 C 
BRANCH  13  14
ATOM     14  C   UNL     1       1.204   2.492  19.255  0.00  0.00    +0.000 C 
BRANCH  14  15
ATOM     15  C   UNL     1       0.820   3.111  20.603  0.00  0.00    +0.000 C 
BRANCH  15  16
ATOM     16  C   UNL     1       2.028   3.580  21.379  0.00  0.00    +0.000 C 
ATOM     17  O   UNL     1       2.364   4.748  21.499  0.00  0.00    +0.000 OA
BRANCH  16  18
ATOM     18  O   UNL     1       2.716   2.570  21.955  0.00  0.00    +0.000 OA
ATOM     19  H   UNL     1       3.080   2.787  22.833  0.00  0.00    +0.000 HD
ENDBRANCH  16  18
ENDBRANCH  15  16
ENDBRANCH  14  15
ENDBRANCH  13  14
ENDBRANCH   2  13
TORSDOF 7
ENDMDL
MODEL 9
REMARK VINA RESULT:      -6.4      3.775      6.484
REMARK  Name = 
REMARK  8 active torsions:
REMARK  status: ('A' for Active; 'I' for Inactive)
REMARK    1  A    between atoms: C_1  and  C_2
REMARK    2  A    between atoms: C_5  and  C_6
REMARK    3  A    between atoms: C_6  and  N_7
REMARK    4  A    between atoms: C_8  and  C_10
REMARK    5  A    between atoms: C_10  and  C_11
REMARK    6  A    between atoms: C_11  and  C_12
REMARK    7  A    between atoms: C_12  and  C_13
REMARK    8  A    between atoms: C_13  and  O_15
REMARK                            x       y       z     vdW  Elec       q    Type
REMARK                         _______ _______ _______ _____ _____    ______ ____
ROOT
ATOM      1  N   UNL     1       3.483   5.333  20.045  0.00  0.00    +0.000 N 
ATOM      2  C   UNL     1       2.250   5.103  20.608  0.00  0.00    +0.000 C 
ATOM      3  O   UNL     1       1.245   5.742  20.310  0.00  0.00    +0.000 OA
ATOM      4  H   UNL     1       4.283   4.789  20.343  0.00  0.00    +0.000 HD
ENDROOT
BRANCH   1   5
ATOM      5  C   UNL     1       3.692   6.364  19.053  0.00  0.00    +0.000 C 
BRANCH   5  10
ATOM      6  C   UNL     1       6.089   4.269  14.162  0.00  0.00    +0.000 C 
ATOM      7  C   UNL     1       5.446   4.817  15.402  0.00  0.00    +0.000 A 
ATOM      8  C   UNL     1       5.333   6.195  15.609  0.00  0.00    +0.000 A 
ATOM      9  C   UNL     1       4.747   6.691  16.779  0.00  0.00    +0.000 A 
ATOM     10  C   UNL     1       4.257   5.821  17.763  0.00  0.00    +0.000 A 
ATOM     11  C   UNL     1       4.373   4.440  17.551  0.00  0.00    +0.000 A 
ATOM     12  C   UNL     1       4.960   3.944  16.382  0.00  0.00    +0.000 A 
ENDBRANCH   5  10
ENDBRANCH   1   5
BRANCH   2  13
ATOM     13  C   UNL     1       2.228   3.985  21.630  0.00  0.00    +0.000 C 
BRANCH  13  14
ATOM     14  C   UNL     1       1.437   2.769  21.134  0.00  0.00    +0.000 C 
BRANCH  14  15
ATOM     15  C   UNL     1       2.153   1.989  20.026  0.00  0.00    +0.000 C 
BRANCH  15  16
ATOM     16  C   UNL     1       1.417   2.064  18.710  0.00  0.00    +0.000 C 
ATOM     17  O   UNL     1       0.234   2.345  18.592  0.00  0.00    +0.000 OA
BRANCH  16  18
ATOM     18  O   UNL     1       2.203   1.796  17.644  0.00  0.00    +0.000 OA
ATOM     19  H   UNL     1       2.427   2.581  17.109  0.00  0.00    +0.000 HD
ENDBRANCH  16  18
ENDBRANCH  15  16
ENDBRANCH  14  15
ENDBRANCH  13  14
ENDBRANCH   2  13
TORSDOF 7
ENDMDL
