MODEL 1
REMARK VINA RESULT:      -8.3      0.000      0.000
REMARK  Name = 
REMARK  9 active torsions:
REMARK  status: ('A' for Active; 'I' for Inactive)
REMARK    1  A    between atoms: C_1  and  O_2
REMARK    2  A    between atoms: O_2  and  C_3
REMARK    3  A    between atoms: C_9  and  C_10
REMARK    4  A    between atoms: C_14  and  C_15
REMARK    5  A    between atoms: C_15  and  C_16
REMARK    6  A    between atoms: C_15  and  C_20
REMARK    7  A    between atoms: C_16  and  C_17
REMARK    8  A    between atoms: C_17  and  O_19
REMARK    9  A    between atoms: C_23  and  C_24
REMARK                            x       y       z     vdW  Elec       q    Type
REMARK                         _______ _______ _______ _____ _____    ______ ____
ROOT
ATOM      1  C   UNL     1       2.993   6.155  18.161  0.00  0.00    +0.000 A 
ATOM      2  C   UNL     1       2.528   4.883  17.820  0.00  0.00    +0.000 A 
ATOM      3  N   UNL     1       3.190   3.982  17.049  0.00  0.00    +0.000 NA
ATOM      4  C   UNL     1       4.395   4.353  16.576  0.00  0.00    +0.000 A 
ATOM      5  C   UNL     1       4.966   5.598  16.809  0.00  0.00    +0.000 A 
ATOM      6  C   UNL     1       4.241   6.496  17.612  0.00  0.00    +0.000 A 
ENDROOT
BRANCH   1  13
ATOM      7  C   UNL     1       1.813   6.771  20.347  0.00  0.00    +0.000 A 
ATOM      8  C   UNL     1       1.110   7.704  21.125  0.00  0.00    +0.000 A 
ATOM      9  C   UNL     1       0.814   8.969  20.622  0.00  0.00    +0.000 A 
ATOM     10  C   UNL     1       1.215   9.305  19.339  0.00  0.00    +0.000 A 
ATOM     11 CL   UNL     1       0.881  10.878  18.725  0.00  0.00    +0.000 Cl
ATOM     12  C   UNL     1       1.901   8.382  18.548  0.00  0.00    +0.000 A 
ATOM     13  C   UNL     1       2.231   7.094  19.030  0.00  0.00    +0.000 A 
BRANCH   7  15
ATOM     14  C   UNL     1       1.232   4.509  20.804  0.00  0.00    +0.000 C 
ATOM     15  O   UNL     1       2.198   5.555  20.857  0.00  0.00    +0.000 OA
ENDBRANCH   7  15
ENDBRANCH   1  13
BRANCH   5  16
ATOM     16  C   UNL     1       6.316   5.951  16.209  0.00  0.00    +0.000 C 
BRANCH  16  17
ATOM     17  C   UNL     1       7.169   6.677  17.200  0.00  0.00    +0.000 A 
ATOM     18  N   UNL     1       7.790   6.212  18.266  0.00  0.00    +0.000 NA
ATOM     19  N   UNL     1       8.450   7.281  18.831  0.00  0.00    +0.000 NA
ATOM     20  C   UNL     1       8.187   8.325  18.069  0.00  0.00    +0.000 A 
ATOM     21  C   UNL     1       8.643   9.718  18.195  0.00  0.00    +0.000 C 
ATOM     22  O   UNL     1       7.378   8.018  17.007  0.00  0.00    +0.000 OA
ENDBRANCH  16  17
BRANCH  16  23
ATOM     23  C   UNL     1       7.075   4.713  15.698  0.00  0.00    +0.000 C 
BRANCH  23  24
ATOM     24  C   UNL     1       7.169   4.698  14.197  0.00  0.00    +0.000 C 
ATOM     25  O   UNL     1       6.480   3.995  13.473  0.00  0.00    +0.000 OA
BRANCH  24  26
ATOM     26  O   UNL     1       8.055   5.594  13.708  0.00  0.00    +0.000 OA
ATOM     27  H   UNL     1       7.826   6.530  13.862  0.00  0.00    +0.000 HD
ENDBRANCH  24  26
ENDBRANCH  23  24
ENDBRANCH  16  23
ENDBRANCH   5  16
TORSDOF 7
ENDMDL
MODEL 2
REMARK VINA RESULT:      -8.0      1.935      3.207
REMARK  Name = 
REMARK  9 active torsions:
REMARK  status: ('A' for Active; 'I' for Inactive)
REMARK    1  A    between atoms: C_1  and  O_2
REMARK    2  A    between atoms: O_2  and  C_3
REMARK    3  A    between atoms: C_9  and  C_10
REMARK    4  A    between atoms: C_14  and  C_15
REMARK    5  A    between atoms: C_15  and  C_16
REMARK    6  A    between atoms: C_15  and  C_20
REMARK    7  A    between atoms: C_16  and  C_17
REMARK    8  A    between atoms: C_17  and  O_19
REMARK    9  A    between atoms: C_23  and  C_24
REMARK                            x       y       z     vdW  Elec       q    Type
REMARK                         _______ _______ _______ _____ _____    ______ ____
ROOT
ATOM      1  C   UNL     1       3.098   5.685  18.211  0.00  0.00    +0.000 A 
ATOM      2  C   UNL     1       2.461   4.527  17.760  0.00  0.00    +0.000 A 
ATOM      3  N   UNL     1       3.055   3.515  17.078  0.00  0.00    +0.000 NA
ATOM      4  C   UNL     1       4.369   3.645  16.816  0.00  0.00    +0.000 A 
ATOM      5  C   UNL     1       5.123   4.756  17.177  0.00  0.00    +0.000 A 
ATOM      6  C   UNL     1       4.461   5.778  17.881  0.00  0.00    +0.000 A 
ENDROOT
BRANCH   1  13
ATOM      7  C   UNL     1       1.925   6.582  20.302  0.00  0.00    +0.000 A 
ATOM      8  C   UNL     1       1.285   7.632  20.978  0.00  0.00    +0.000 A 
ATOM      9  C   UNL     1       1.107   8.870  20.362  0.00  0.00    +0.000 A 
ATOM     10  C   UNL     1       1.565   9.060  19.067  0.00  0.00    +0.000 A 
ATOM     11 CL   UNL     1       1.377  10.596  18.314  0.00  0.00    +0.000 Cl
ATOM     12  C   UNL     1       2.188   8.019  18.377  0.00  0.00    +0.000 A 
ATOM     13  C   UNL     1       2.398   6.755  18.975  0.00  0.00    +0.000 A 
BRANCH   7  15
ATOM     14  C   UNL     1       1.203   4.372  20.808  0.00  0.00    +0.000 C 
ATOM     15  O   UNL     1       2.195   5.387  20.923  0.00  0.00    +0.000 OA
ENDBRANCH   7  15
ENDBRANCH   1  13
BRANCH   5  16
ATOM     16  C   UNL     1       6.594   4.840  16.812  0.00  0.00    +0.000 C 
BRANCH  16  17
ATOM     17  C   UNL     1       6.791   4.671  15.339  0.00  0.00    +0.000 A 
ATOM     18  N   UNL     1       6.250   3.791  14.520  0.00  0.00    +0.000 NA
ATOM     19  N   UNL     1       6.748   4.067  13.266  0.00  0.00    +0.000 NA
ATOM     20  C   UNL     1       7.558   5.097  13.406  0.00  0.00    +0.000 A 
ATOM     21  C   UNL     1       8.346   5.817  12.393  0.00  0.00    +0.000 C 
ATOM     22  O   UNL     1       7.636   5.541  14.699  0.00  0.00    +0.000 OA
ENDBRANCH  16  17
BRANCH  16  23
ATOM     23  C   UNL     1       7.237   6.165  17.260  0.00  0.00    +0.000 C 
BRANCH  23  24
ATOM     24  C   UNL     1       7.850   6.051  18.628  0.00  0.00    +0.000 C 
ATOM     25  O   UNL     1       7.828   5.035  19.308  0.00  0.00    +0.000 OA
BRANCH  24  26
ATOM     26  O   UNL     1       8.494   7.172  19.022  0.00  0.00    +0.000 OA
ATOM     27  H   UNL     1       9.088   7.564  18.355  0.00  0.00    +0.000 HD
ENDBRANCH  24  26
ENDBRANCH  23  24
ENDBRANCH  16  23
ENDBRANCH   5  16
TORSDOF 7
ENDMDL
MODEL 3
REMARK VINA RESULT:      -8.0      1.796      3.532
REMARK  Name = 
REMARK  9 active torsions:
REMARK  status: ('A' for Active; 'I' for Inactive)
REMARK    1  A    between atoms: C_1  and  O_2
REMARK    2  A    between atoms: O_2  and  C_3
REMARK    3  A    between atoms: C_9  and  C_10
REMARK    4  A    between atoms: C_14  and  C_15
REMARK    5  A    between atoms: C_15  and  C_16
REMARK    6  A    between atoms: C_15  and  C_20
REMARK    7  A    between atoms: C_16  and  C_17
REMARK    8  A    between atoms: C_17  and  O_19
REMARK    9  A    between atoms: C_23  and  C_24
REMARK                            x       y       z     vdW  Elec       q    Type
REMARK                         _______ _______ _______ _____ _____    ______ ____
ROOT
ATOM      1  C   UNL     1       3.159   5.695  18.106  0.00  0.00    +0.000 A 
ATOM      2  C   UNL     1       2.547   4.517  17.674  0.00  0.00    +0.000 A 
ATOM      3  N   UNL     1       3.154   3.523  16.976  0.00  0.00    +0.000 NA
ATOM      4  C   UNL     1       4.456   3.696  16.677  0.00  0.00    +0.000 A 
ATOM      5  C   UNL     1       5.183   4.831  17.016  0.00  0.00    +0.000 A 
ATOM      6  C   UNL     1       4.509   5.831  17.739  0.00  0.00    +0.000 A 
ENDROOT
BRANCH   1  13
ATOM      7  C   UNL     1       1.989   6.545  20.218  0.00  0.00    +0.000 A 
ATOM      8  C   UNL     1       1.336   7.576  20.913  0.00  0.00    +0.000 A 
ATOM      9  C   UNL     1       1.129   8.817  20.313  0.00  0.00    +0.000 A 
ATOM     10  C   UNL     1       1.571   9.031  19.016  0.00  0.00    +0.000 A 
ATOM     11 CL   UNL     1       1.348  10.572  18.283  0.00  0.00    +0.000 Cl
ATOM     12  C   UNL     1       2.208   8.010  18.309  0.00  0.00    +0.000 A 
ATOM     13  C   UNL     1       2.446   6.743  18.890  0.00  0.00    +0.000 A 
BRANCH   7  15
ATOM     14  C   UNL     1       1.264   4.357  20.808  0.00  0.00    +0.000 C 
ATOM     15  O   UNL     1       2.286   5.349  20.823  0.00  0.00    +0.000 OA
ENDBRANCH   7  15
ENDBRANCH   1  13
BRANCH   5  16
ATOM     16  C   UNL     1       6.640   4.962  16.611  0.00  0.00    +0.000 C 
BRANCH  16  17
ATOM     17  C   UNL     1       6.801   4.801  15.132  0.00  0.00    +0.000 A 
ATOM     18  N   UNL     1       7.607   5.439  14.306  0.00  0.00    +0.000 NA
ATOM     19  N   UNL     1       7.379   4.912  13.055  0.00  0.00    +0.000 NA
ATOM     20  C   UNL     1       6.451   3.988  13.203  0.00  0.00    +0.000 A 
ATOM     21  C   UNL     1       5.838   3.102  12.200  0.00  0.00    +0.000 C 
ATOM     22  O   UNL     1       6.033   3.856  14.501  0.00  0.00    +0.000 OA
ENDBRANCH  16  17
BRANCH  16  23
ATOM     23  C   UNL     1       7.253   6.305  17.045  0.00  0.00    +0.000 C 
BRANCH  23  24
ATOM     24  C   UNL     1       7.924   6.203  18.386  0.00  0.00    +0.000 C 
ATOM     25  O   UNL     1       8.397   7.154  18.992  0.00  0.00    +0.000 OA
BRANCH  24  26
ATOM     26  O   UNL     1       7.903   4.954  18.902  0.00  0.00    +0.000 OA
ATOM     27  H   UNL     1       8.457   4.303  18.433  0.00  0.00    +0.000 HD
ENDBRANCH  24  26
ENDBRANCH  23  24
ENDBRANCH  16  23
ENDBRANCH   5  16
TORSDOF 7
ENDMDL
MODEL 4
REMARK VINA RESULT:      -7.7      4.310      8.149
REMARK  Name = 
REMARK  9 active torsions:
REMARK  status: ('A' for Active; 'I' for Inactive)
REMARK    1  A    between atoms: C_1  and  O_2
REMARK    2  A    between atoms: O_2  and  C_3
REMARK    3  A    between atoms: C_9  and  C_10
REMARK    4  A    between atoms: C_14  and  C_15
REMARK    5  A    between atoms: C_15  and  C_16
REMARK    6  A    between atoms: C_15  and  C_20
REMARK    7  A    between atoms: C_16  and  C_17
REMARK    8  A    between atoms: C_17  and  O_19
REMARK    9  A    between atoms: C_23  and  C_24
REMARK                            x       y       z     vdW  Elec       q    Type
REMARK                         _______ _______ _______ _____ _____    ______ ____
ROOT
ATOM      1  C   UNL     1       2.513   6.937  19.045  0.00  0.00    +0.000 A 
ATOM      2  C   UNL     1       2.838   7.538  17.827  0.00  0.00    +0.000 A 
ATOM      3  N   UNL     1       2.488   8.795  17.451  0.00  0.00    +0.000 NA
ATOM      4  C   UNL     1       1.765   9.516  18.329  0.00  0.00    +0.000 A 
ATOM      5  C   UNL     1       1.345   9.034  19.563  0.00  0.00    +0.000 A 
ATOM      6  C   UNL     1       1.733   7.727  19.906  0.00  0.00    +0.000 A 
ENDROOT
BRANCH   1  13
ATOM      7  C   UNL     1       4.179   4.994  19.001  0.00  0.00    +0.000 A 
ATOM      8  C   UNL     1       4.538   3.695  19.392  0.00  0.00    +0.000 A 
ATOM      9  C   UNL     1       3.693   2.936  20.200  0.00  0.00    +0.000 A 
ATOM     10  C   UNL     1       2.483   3.472  20.615  0.00  0.00    +0.000 A 
ATOM     11 CL   UNL     1       1.451   2.551  21.639  0.00  0.00    +0.000 Cl
ATOM     12  C   UNL     1       2.106   4.756  20.221  0.00  0.00    +0.000 A 
ATOM     13  C   UNL     1       2.944   5.559  19.413  0.00  0.00    +0.000 A 
BRANCH   7  15
ATOM     14  C   UNL     1       5.853   5.141  17.316  0.00  0.00    +0.000 C 
ATOM     15  O   UNL     1       5.038   5.792  18.287  0.00  0.00    +0.000 OA
ENDBRANCH   7  15
ENDBRANCH   1  13
BRANCH   5  16
ATOM     16  C   UNL     1       0.502   9.901  20.482  0.00  0.00    +0.000 C 
BRANCH  16  17
ATOM     17  C   UNL     1      -0.454  10.742  19.696  0.00  0.00    +0.000 A 
ATOM     18  N   UNL     1      -0.527  12.055  19.602  0.00  0.00    +0.000 NA
ATOM     19  N   UNL     1      -1.570  12.327  18.745  0.00  0.00    +0.000 NA
ATOM     20  C   UNL     1      -2.060  11.161  18.374  0.00  0.00    +0.000 A 
ATOM     21  C   UNL     1      -3.171  10.858  17.457  0.00  0.00    +0.000 C 
ATOM     22  O   UNL     1      -1.399  10.102  18.937  0.00  0.00    +0.000 OA
ENDBRANCH  16  17
BRANCH  16  23
ATOM     23  C   UNL     1      -0.283   9.073  21.516  0.00  0.00    +0.000 C 
BRANCH  23  24
ATOM     24  C   UNL     1      -0.093   9.602  22.910  0.00  0.00    +0.000 C 
ATOM     25  O   UNL     1       0.976   9.608  23.503  0.00  0.00    +0.000 OA
BRANCH  24  26
ATOM     26  O   UNL     1      -1.217  10.137  23.437  0.00  0.00    +0.000 OA
ATOM     27  H   UNL     1      -1.155  10.390  24.377  0.00  0.00    +0.000 HD
ENDBRANCH  24  26
ENDBRANCH  23  24
ENDBRANCH  16  23
ENDBRANCH   5  16
TORSDOF 7
ENDMDL
MODEL 5
REMARK VINA RESULT:      -7.6      4.311      7.708
REMARK  Name = 
REMARK  9 active torsions:
REMARK  status: ('A' for Active; 'I' for Inactive)
REMARK    1  A    between atoms: C_1  and  O_2
REMARK    2  A    between atoms: O_2  and  C_3
REMARK    3  A    between atoms: C_9  and  C_10
REMARK    4  A    between atoms: C_14  and  C_15
REMARK    5  A    between atoms: C_15  and  C_16
REMARK    6  A    between atoms: C_15  and  C_20
REMARK    7  A    between atoms: C_16  and  C_17
REMARK    8  A    between atoms: C_17  and  O_19
REMARK    9  A    between atoms: C_23  and  C_24
REMARK                            x       y       z     vdW  Elec       q    Type
REMARK                         _______ _______ _______ _____ _____    ______ ____
ROOT
ATOM      1  C   UNL     1       2.498   7.008  18.839  0.00  0.00    +0.000 A 
ATOM      2  C   UNL     1       2.126   6.845  20.175  0.00  0.00    +0.000 A 
ATOM      3  N   UNL     1       1.407   7.733  20.908  0.00  0.00    +0.000 NA
ATOM      4  C   UNL     1       1.024   8.866  20.288  0.00  0.00    +0.000 A 
ATOM      5  C   UNL     1       1.348   9.175  18.973  0.00  0.00    +0.000 A 
ATOM      6  C   UNL     1       2.095   8.223  18.257  0.00  0.00    +0.000 A 
ENDROOT
BRANCH   1  13
ATOM      7  C   UNL     1       2.749   4.713  17.734  0.00  0.00    +0.000 A 
ATOM      8  C   UNL     1       3.519   3.796  17.002  0.00  0.00    +0.000 A 
ATOM      9  C   UNL     1       4.811   4.122  16.591  0.00  0.00    +0.000 A 
ATOM     10  C   UNL     1       5.337   5.363  16.915  0.00  0.00    +0.000 A 
ATOM     11 CL   UNL     1       6.919   5.783  16.381  0.00  0.00    +0.000 Cl
ATOM     12  C   UNL     1       4.588   6.278  17.656  0.00  0.00    +0.000 A 
ATOM     13  C   UNL     1       3.270   5.987  18.078  0.00  0.00    +0.000 A 
BRANCH   7  15
ATOM     14  C   UNL     1       1.177   3.171  18.638  0.00  0.00    +0.000 C 
ATOM     15  O   UNL     1       1.442   4.449  18.066  0.00  0.00    +0.000 OA
ENDBRANCH   7  15
ENDBRANCH   1  13
BRANCH   5  16
ATOM     16  C   UNL     1       0.906  10.491  18.359  0.00  0.00    +0.000 C 
BRANCH  16  17
ATOM     17  C   UNL     1      -0.573  10.506  18.133  0.00  0.00    +0.000 A 
ATOM     18  N   UNL     1      -1.304   9.747  17.340  0.00  0.00    +0.000 NA
ATOM     19  N   UNL     1      -2.610  10.152  17.508  0.00  0.00    +0.000 NA
ATOM     20  C   UNL     1      -2.586  11.130  18.392  0.00  0.00    +0.000 A 
ATOM     21  C   UNL     1      -3.695  11.917  18.953  0.00  0.00    +0.000 C 
ATOM     22  O   UNL     1      -1.322  11.411  18.840  0.00  0.00    +0.000 OA
ENDBRANCH  16  17
BRANCH  16  23
ATOM     23  C   UNL     1       1.299  11.704  19.221  0.00  0.00    +0.000 C 
BRANCH  23  24
ATOM     24  C   UNL     1       1.891  12.808  18.389  0.00  0.00    +0.000 C 
ATOM     25  O   UNL     1       1.780  13.997  18.647  0.00  0.00    +0.000 OA
BRANCH  24  26
ATOM     26  O   UNL     1       2.622  12.358  17.345  0.00  0.00    +0.000 OA
ATOM     27  H   UNL     1       3.412  11.839  17.585  0.00  0.00    +0.000 HD
ENDBRANCH  24  26
ENDBRANCH  23  24
ENDBRANCH  16  23
ENDBRANCH   5  16
TORSDOF 7
ENDMDL
MODEL 6
REMARK VINA RESULT:      -7.6      4.352      8.032
REMARK  Name = 
REMARK  9 active torsions:
REMARK  status: ('A' for Active; 'I' for Inactive)
REMARK    1  A    between atoms: C_1  and  O_2
REMARK    2  A    between atoms: O_2  and  C_3
REMARK    3  A    between atoms: C_9  and  C_10
REMARK    4  A    between atoms: C_14  and  C_15
REMARK    5  A    between atoms: C_15  and  C_16
REMARK    6  A    between atoms: C_15  and  C_20
REMARK    7  A    between atoms: C_16  and  C_17
REMARK    8  A    between atoms: C_17  and  O_19
REMARK    9  A    between atoms: C_23  and  C_24
REMARK                            x       y       z     vdW  Elec       q    Type
REMARK                         _______ _______ _______ _____ _____    ______ ____
ROOT
ATOM      1  C   UNL     1       2.469   6.922  19.123  0.00  0.00    +0.000 A 
ATOM      2  C   UNL     1       2.678   7.489  17.864  0.00  0.00    +0.000 A 
ATOM      3  N   UNL     1       2.313   8.743  17.493  0.00  0.00    +0.000 NA
ATOM      4  C   UNL     1       1.696   9.498  18.423  0.00  0.00    +0.000 A 
ATOM      5  C   UNL     1       1.397   9.053  19.705  0.00  0.00    +0.000 A 
ATOM      6  C   UNL     1       1.795   7.747  20.040  0.00  0.00    +0.000 A 
ENDROOT
BRANCH   1  13
ATOM      7  C   UNL     1       4.150   4.993  19.061  0.00  0.00    +0.000 A 
ATOM      8  C   UNL     1       4.521   3.693  19.441  0.00  0.00    +0.000 A 
ATOM      9  C   UNL     1       3.683   2.922  20.245  0.00  0.00    +0.000 A 
ATOM     10  C   UNL     1       2.471   3.445  20.667  0.00  0.00    +0.000 A 
ATOM     11 CL   UNL     1       1.448   2.509  21.687  0.00  0.00    +0.000 Cl
ATOM     12  C   UNL     1       2.082   4.729  20.284  0.00  0.00    +0.000 A 
ATOM     13  C   UNL     1       2.912   5.545  19.480  0.00  0.00    +0.000 A 
BRANCH   7  15
ATOM     14  C   UNL     1       5.992   5.149  17.563  0.00  0.00    +0.000 C 
ATOM     15  O   UNL     1       5.001   5.803  18.350  0.00  0.00    +0.000 OA
ENDBRANCH   7  15
ENDBRANCH   1  13
BRANCH   5  16
ATOM     16  C   UNL     1       0.667   9.957  20.683  0.00  0.00    +0.000 C 
BRANCH  16  17
ATOM     17  C   UNL     1      -0.100  11.019  19.960  0.00  0.00    +0.000 A 
ATOM     18  N   UNL     1      -1.299  10.957  19.414  0.00  0.00    +0.000 NA
ATOM     19  N   UNL     1      -1.553  12.205  18.888  0.00  0.00    +0.000 NA
ATOM     20  C   UNL     1      -0.492  12.942  19.150  0.00  0.00    +0.000 A 
ATOM     21  C   UNL     1      -0.227  14.354  18.831  0.00  0.00    +0.000 C 
ATOM     22  O   UNL     1       0.477  12.256  19.834  0.00  0.00    +0.000 OA
ENDBRANCH  16  17
BRANCH  16  23
ATOM     23  C   UNL     1      -0.290   9.179  21.604  0.00  0.00    +0.000 C 
BRANCH  23  24
ATOM     24  C   UNL     1      -0.236   9.687  23.018  0.00  0.00    +0.000 C 
ATOM     25  O   UNL     1       0.750   9.618  23.736  0.00  0.00    +0.000 OA
BRANCH  24  26
ATOM     26  O   UNL     1      -1.377  10.296  23.411  0.00  0.00    +0.000 OA
ATOM     27  H   UNL     1      -1.580  11.132  22.952  0.00  0.00    +0.000 HD
ENDBRANCH  24  26
ENDBRANCH  23  24
ENDBRANCH  16  23
ENDBRANCH   5  16
TORSDOF 7
ENDMDL
MODEL 7
REMARK VINA RESULT:      -7.6      4.362      7.599
REMARK  Name = 
REMARK  9 active torsions:
REMARK  status: ('A' for Active; 'I' for Inactive)
REMARK    1  A    between atoms: C_1  and  O_2
REMARK    2  A    between atoms: O_2  and  C_3
REMARK    3  A    between atoms: C_9  and  C_10
REMARK    4  A    between atoms: C_14  and  C_15
REMARK    5  A    between atoms: C_15  and  C_16
REMARK    6  A    between atoms: C_15  and  C_20
REMARK    7  A    between atoms: C_16  and  C_17
REMARK    8  A    between atoms: C_17  and  O_19
REMARK    9  A    between atoms: C_23  and  C_24
REMARK                            x       y       z     vdW  Elec       q    Type
REMARK                         _______ _______ _______ _____ _____    ______ ____
ROOT
ATOM      1  C   UNL     1       2.446   7.027  18.906  0.00  0.00    +0.000 A 
ATOM      2  C   UNL     1       2.093   6.865  20.247  0.00  0.00    +0.000 A 
ATOM      3  N   UNL     1       1.437   7.780  21.006  0.00  0.00    +0.000 NA
ATOM      4  C   UNL     1       1.104   8.940  20.409  0.00  0.00    +0.000 A 
ATOM      5  C   UNL     1       1.418   9.250  19.091  0.00  0.00    +0.000 A 
ATOM      6  C   UNL     1       2.099   8.269  18.348  0.00  0.00    +0.000 A 
ENDROOT
BRANCH   1  13
ATOM      7  C   UNL     1       2.703   4.631  18.043  0.00  0.00    +0.000 A 
ATOM      8  C   UNL     1       3.398   3.687  17.270  0.00  0.00    +0.000 A 
ATOM      9  C   UNL     1       4.535   4.055  16.552  0.00  0.00    +0.000 A 
ATOM     10  C   UNL     1       4.983   5.366  16.609  0.00  0.00    +0.000 A 
ATOM     11 CL   UNL     1       6.368   5.833  15.698  0.00  0.00    +0.000 Cl
ATOM     12  C   UNL     1       4.312   6.310  17.386  0.00  0.00    +0.000 A 
ATOM     13  C   UNL     1       3.148   5.976  18.117  0.00  0.00    +0.000 A 
BRANCH   7  15
ATOM     14  C   UNL     1       1.088   2.963  18.564  0.00  0.00    +0.000 C 
ATOM     15  O   UNL     1       1.529   4.312  18.680  0.00  0.00    +0.000 OA
ENDBRANCH   7  15
ENDBRANCH   1  13
BRANCH   5  16
ATOM     16  C   UNL     1       1.036  10.596  18.503  0.00  0.00    +0.000 C 
BRANCH  16  17
ATOM     17  C   UNL     1      -0.450  10.729  18.391  0.00  0.00    +0.000 A 
ATOM     18  N   UNL     1      -1.275  11.490  19.083  0.00  0.00    +0.000 NA
ATOM     19  N   UNL     1      -2.536  11.253  18.584  0.00  0.00    +0.000 NA
ATOM     20  C   UNL     1      -2.395  10.364  17.621  0.00  0.00    +0.000 A 
ATOM     21  C   UNL     1      -3.409   9.763  16.741  0.00  0.00    +0.000 C 
ATOM     22  O   UNL     1      -1.092   9.983  17.436  0.00  0.00    +0.000 OA
ENDBRANCH  16  17
BRANCH  16  23
ATOM     23  C   UNL     1       1.589  11.776  19.323  0.00  0.00    +0.000 C 
BRANCH  23  24
ATOM     24  C   UNL     1       2.417  12.702  18.476  0.00  0.00    +0.000 C 
ATOM     25  O   UNL     1       2.940  13.726  18.888  0.00  0.00    +0.000 OA
BRANCH  24  26
ATOM     26  O   UNL     1       2.585  12.261  17.209  0.00  0.00    +0.000 OA
ATOM     27  H   UNL     1       2.992  12.902  16.597  0.00  0.00    +0.000 HD
ENDBRANCH  24  26
ENDBRANCH  23  24
ENDBRANCH  16  23
ENDBRANCH   5  16
TORSDOF 7
ENDMDL
MODEL 8
REMARK VINA RESULT:      -7.4      3.060      5.449
REMARK  Name = 
REMARK  9 active torsions:
REMARK  status: ('A' for Active; 'I' for Inactive)
REMARK    1  A    between atoms: C_1  and  O_2
REMARK    2  A    between atoms: O_2  and  C_3
REMARK    3  A    between atoms: C_9  and  C_10
REMARK    4  A    between atoms: C_14  and  C_15
REMARK    5  A    between atoms: C_15  and  C_16
REMARK    6  A    between atoms: C_15  and  C_20
REMARK    7  A    between atoms: C_16  and  C_17
REMARK    8  A    between atoms: C_17  and  O_19
REMARK    9  A    between atoms: C_23  and  C_24
REMARK                            x       y       z     vdW  Elec       q    Type
REMARK                         _______ _______ _______ _____ _____    ______ ____
ROOT
ATOM      1  C   UNL     1       1.039   9.488  19.511  0.00  0.00    +0.000 A 
ATOM      2  C   UNL     1       0.669   8.938  20.740  0.00  0.00    +0.000 A 
ATOM      3  N   UNL     1       1.099   7.749  21.234  0.00  0.00    +0.000 NA
ATOM      4  C   UNL     1       1.953   7.044  20.468  0.00  0.00    +0.000 A 
ATOM      5  C   UNL     1       2.382   7.454  19.211  0.00  0.00    +0.000 A 
ATOM      6  C   UNL     1       1.907   8.692  18.744  0.00  0.00    +0.000 A 
ENDROOT
BRANCH   1  13
ATOM      7  C   UNL     1      -0.769  11.027  18.555  0.00  0.00    +0.000 A 
ATOM      8  C   UNL     1      -1.178  12.301  18.130  0.00  0.00    +0.000 A 
ATOM      9  C   UNL     1      -0.297  13.381  18.171  0.00  0.00    +0.000 A 
ATOM     10  C   UNL     1       0.996  13.189  18.635  0.00  0.00    +0.000 A 
ATOM     11 CL   UNL     1       2.077  14.526  18.720  0.00  0.00    +0.000 Cl
ATOM     12  C   UNL     1       1.420  11.925  19.046  0.00  0.00    +0.000 A 
ATOM     13  C   UNL     1       0.550  10.810  19.030  0.00  0.00    +0.000 A 
BRANCH   7  15
ATOM     14  C   UNL     1      -2.557   9.844  17.522  0.00  0.00    +0.000 C 
ATOM     15  O   UNL     1      -1.648   9.973  18.612  0.00  0.00    +0.000 OA
ENDBRANCH   7  15
ENDBRANCH   1  13
BRANCH   5  16
ATOM     16  C   UNL     1       3.320   6.582  18.395  0.00  0.00    +0.000 C 
BRANCH  16  17
ATOM     17  C   UNL     1       2.722   5.233  18.151  0.00  0.00    +0.000 A 
ATOM     18  N   UNL     1       1.527   4.922  17.687  0.00  0.00    +0.000 NA
ATOM     19  N   UNL     1       1.474   3.546  17.638  0.00  0.00    +0.000 NA
ATOM     20  C   UNL     1       2.641   3.114  18.073  0.00  0.00    +0.000 A 
ATOM     21  C   UNL     1       3.137   1.736  18.218  0.00  0.00    +0.000 C 
ATOM     22  O   UNL     1       3.492   4.130  18.417  0.00  0.00    +0.000 OA
ENDBRANCH  16  17
BRANCH  16  23
ATOM     23  C   UNL     1       3.695   7.222  17.046  0.00  0.00    +0.000 C 
BRANCH  23  24
ATOM     24  C   UNL     1       4.989   6.674  16.511  0.00  0.00    +0.000 C 
ATOM     25  O   UNL     1       5.341   6.761  15.344  0.00  0.00    +0.000 OA
BRANCH  24  26
ATOM     26  O   UNL     1       5.771   6.121  17.465  0.00  0.00    +0.000 OA
ATOM     27  H   UNL     1       6.167   6.752  18.094  0.00  0.00    +0.000 HD
ENDBRANCH  24  26
ENDBRANCH  23  24
ENDBRANCH  16  23
ENDBRANCH   5  16
TORSDOF 7
ENDMDL
MODEL 9
REMARK VINA RESULT:      -7.3      2.635      4.080
REMARK  Name = 
REMARK  9 active torsions:
REMARK  status: ('A' for Active; 'I' for Inactive)
REMARK    1  A    between atoms: C_1  and  O_2
REMARK    2  A    between atoms: O_2  and  C_3
REMARK    3  A    between atoms: C_9  and  C_10
REMARK    4  A    between atoms: C_14  and  C_15
REMARK    5  A    between atoms: C_15  and  C_16
REMARK    6  A    between atoms: C_15  and  C_20
REMARK    7  A    between atoms: C_16  and  C_17
REMARK    8  A    between atoms: C_17  and  O_19
REMARK    9  A    between atoms: C_23  and  C_24
REMARK                            x       y       z     vdW  Elec       q    Type
REMARK                         _______ _______ _______ _____ _____    ______ ____
ROOT
ATOM      1  C   UNL     1       2.151   6.427  20.010  0.00  0.00    +0.000 A 
ATOM      2  C   UNL     1       1.479   5.216  20.189  0.00  0.00    +0.000 A 
ATOM      3  N   UNL     1       1.985   3.986  19.916  0.00  0.00    +0.000 NA
ATOM      4  C   UNL     1       3.241   3.937  19.431  0.00  0.00    +0.000 A 
ATOM      5  C   UNL     1       4.015   5.063  19.175  0.00  0.00    +0.000 A 
ATOM      6  C   UNL     1       3.445   6.313  19.474  0.00  0.00    +0.000 A 
ENDROOT
BRANCH   1  13
ATOM      7  C   UNL     1       1.356   8.781  19.396  0.00  0.00    +0.000 A 
ATOM      8  C   UNL     1       0.771  10.001  19.772  0.00  0.00    +0.000 A 
ATOM      9  C   UNL     1       0.363  10.219  21.087  0.00  0.00    +0.000 A 
ATOM     10  C   UNL     1       0.544   9.220  22.032  0.00  0.00    +0.000 A 
ATOM     11 CL   UNL     1       0.012   9.472  23.649  0.00  0.00    +0.000 Cl
ATOM     12  C   UNL     1       1.139   8.009  21.676  0.00  0.00    +0.000 A 
ATOM     13  C   UNL     1       1.552   7.748  20.349  0.00  0.00    +0.000 A 
BRANCH   7  15
ATOM     14  C   UNL     1       2.517   9.455  17.432  0.00  0.00    +0.000 C 
ATOM     15  O   UNL     1       1.676   8.511  18.089  0.00  0.00    +0.000 OA
ENDBRANCH   7  15
ENDBRANCH   1  13
BRANCH   5  16
ATOM     16  C   UNL     1       5.410   4.922  18.595  0.00  0.00    +0.000 C 
BRANCH  16  17
ATOM     17  C   UNL     1       5.410   5.202  17.125  0.00  0.00    +0.000 A 
ATOM     18  N   UNL     1       5.192   6.338  16.492  0.00  0.00    +0.000 NA
ATOM     19  N   UNL     1       5.320   6.066  15.148  0.00  0.00    +0.000 NA
ATOM     20  C   UNL     1       5.608   4.783  15.053  0.00  0.00    +0.000 A 
ATOM     21  C   UNL     1       5.863   3.963  13.858  0.00  0.00    +0.000 C 
ATOM     22  O   UNL     1       5.686   4.164  16.273  0.00  0.00    +0.000 OA
ENDBRANCH  16  17
BRANCH  16  23
ATOM     23  C   UNL     1       6.431   5.844  19.286  0.00  0.00    +0.000 C 
BRANCH  23  24
ATOM     24  C   UNL     1       7.764   5.168  19.457  0.00  0.00    +0.000 C 
ATOM     25  O   UNL     1       8.347   4.566  18.569  0.00  0.00    +0.000 OA
BRANCH  24  26
ATOM     26  O   UNL     1       8.297   5.343  20.687  0.00  0.00    +0.000 OA
ATOM     27  H   UNL     1       7.729   5.816  21.322  0.00  0.00    +0.000 HD
ENDBRANCH  24  26
ENDBRANCH  23  24
ENDBRANCH  16  23
ENDBRANCH   5  16
TORSDOF 7
ENDMDL
