MODEL 1
REMARK VINA RESULT:      -7.8      0.000      0.000
REMARK  Name = 
REMARK  11 active torsions:
REMARK  status: ('A' for Active; 'I' for Inactive)
REMARK    1  A    between atoms: C_1  and  C_2
REMARK    2  A    between atoms: C_2  and  C_3
REMARK    3  A    between atoms: C_3  and  C_4
REMARK    4  A    between atoms: C_5  and  O_6
REMARK    5  A    between atoms: O_6  and  C_7
REMARK    6  A    between atoms: C_7  and  C_8
REMARK    7  A    between atoms: C_11  and  C_12
REMARK    8  A    between atoms: C_24  and  C_25
REMARK    9  A    between atoms: C_25  and  C_26
REMARK   10  A    between atoms: C_28  and  O_29
REMARK   11  A    between atoms: O_29  and  C_30
REMARK                            x       y       z     vdW  Elec       q    Type
REMARK                         _______ _______ _______ _____ _____    ______ ____
ROOT
ATOM      1  C   UNL     1       1.788   7.961  20.379  0.00  0.00    +0.000 C 
ENDROOT
BRANCH   1   2
ATOM      2  C   UNL     1       0.835   8.984  20.962  0.00  0.00    +0.000 A 
ATOM      3  C   UNL     1       0.067   8.734  22.105  0.00  0.00    +0.000 A 
ATOM      4  C   UNL     1      -0.610   9.782  22.746  0.00  0.00    +0.000 A 
ATOM      5  C   UNL     1      -0.526  11.092  22.256  0.00  0.00    +0.000 A 
ATOM      6  C   UNL     1       0.225  11.343  21.108  0.00  0.00    +0.000 A 
ATOM      7  C   UNL     1       0.899  10.300  20.470  0.00  0.00    +0.000 A 
BRANCH   5   8
ATOM      8  C   UNL     1      -1.205  12.191  22.949  0.00  0.00    +0.000 C 
ATOM      9  C   UNL     1      -2.279  12.856  22.499  0.00  0.00    +0.000 C 
ATOM     10  S   UNL     1      -3.143  12.620  21.024  0.00  0.00    +0.000 S 
ATOM     11  C   UNL     1      -4.247  13.933  21.365  0.00  0.00    +0.000 C 
ATOM     12  S   UNL     1      -5.483  14.461  20.398  0.00  0.00    +0.000 S 
ATOM     13  N   UNL     1      -3.945  14.487  22.571  0.00  0.00    +0.000 N 
ATOM     14  C   UNL     1      -2.893  13.969  23.271  0.00  0.00    +0.000 C 
ATOM     15  O   UNL     1      -2.520  14.369  24.363  0.00  0.00    +0.000 OA
ATOM     16  H   UNL     1      -4.472  15.262  22.947  0.00  0.00    +0.000 HD
ENDBRANCH   5   8
ENDBRANCH   1   2
BRANCH   1  17
ATOM     17  O   UNL     1       1.780   7.794  18.963  0.00  0.00    +0.000 OA
BRANCH  17  19
ATOM     18  C   UNL     1       2.616   5.435  18.628  0.00  0.00    +0.000 A 
ATOM     19  C   UNL     1       2.634   6.844  18.452  0.00  0.00    +0.000 A 
ATOM     20  C   UNL     1       3.604   7.429  17.617  0.00  0.00    +0.000 A 
ATOM     21  C   UNL     1       4.625   6.678  17.034  0.00  0.00    +0.000 A 
ATOM     22  C   UNL     1       4.707   5.299  17.282  0.00  0.00    +0.000 A 
ATOM     23  C   UNL     1       3.726   4.684  18.093  0.00  0.00    +0.000 A 
BRANCH  22  24
ATOM     24  C   UNL     1       5.899   4.620  16.673  0.00  0.00    +0.000 C 
ATOM     25  C   UNL     1       5.871   4.061  15.275  0.00  0.00    +0.000 C 
ATOM     26  O   UNL     1       6.933   4.524  17.339  0.00  0.00    +0.000 OA
ENDBRANCH  22  24
BRANCH  23  27
ATOM     27  O   UNL     1       3.851   3.317  18.203  0.00  0.00    +0.000 OA
ATOM     28  C   UNL     1       4.482   2.736  19.337  0.00  0.00    +0.000 C 
ENDBRANCH  23  27
BRANCH  18  29
ATOM     29  C   UNL     1       1.530   4.642  19.341  0.00  0.00    +0.000 C 
BRANCH  29  31
ATOM     30  C   UNL     1       1.280   2.831  21.147  0.00  0.00    +0.000 C 
ATOM     31  C   UNL     1       1.436   4.302  20.829  0.00  0.00    +0.000 C 
ENDBRANCH  29  31
ENDBRANCH  18  29
ENDBRANCH  17  19
ENDBRANCH   1  17
TORSDOF 8
ENDMDL
MODEL 2
REMARK VINA RESULT:      -7.7      0.976      1.419
REMARK  Name = 
REMARK  11 active torsions:
REMARK  status: ('A' for Active; 'I' for Inactive)
REMARK    1  A    between atoms: C_1  and  C_2
REMARK    2  A    between atoms: C_2  and  C_3
REMARK    3  A    between atoms: C_3  and  C_4
REMARK    4  A    between atoms: C_5  and  O_6
REMARK    5  A    between atoms: O_6  and  C_7
REMARK    6  A    between atoms: C_7  and  C_8
REMARK    7  A    between atoms: C_11  and  C_12
REMARK    8  A    between atoms: C_24  and  C_25
REMARK    9  A    between atoms: C_25  and  C_26
REMARK   10  A    between atoms: C_28  and  O_29
REMARK   11  A    between atoms: O_29  and  C_30
REMARK                            x       y       z     vdW  Elec       q    Type
REMARK                         _______ _______ _______ _____ _____    ______ ____
ROOT
ATOM      1  C   UNL     1       1.355   8.413  19.924  0.00  0.00    +0.000 C 
ENDROOT
BRANCH   1   2
ATOM      2  C   UNL     1       0.803   9.478  20.850  0.00  0.00    +0.000 A 
ATOM      3  C   UNL     1       0.805  10.838  20.519  0.00  0.00    +0.000 A 
ATOM      4  C   UNL     1       0.070  11.754  21.287  0.00  0.00    +0.000 A 
ATOM      5  C   UNL     1      -0.678  11.323  22.390  0.00  0.00    +0.000 A 
ATOM      6  C   UNL     1      -0.671   9.970  22.732  0.00  0.00    +0.000 A 
ATOM      7  C   UNL     1       0.061   9.059  21.968  0.00  0.00    +0.000 A 
BRANCH   5   8
ATOM      8  C   UNL     1      -1.474  12.277  23.169  0.00  0.00    +0.000 C 
ATOM      9  C   UNL     1      -2.582  12.901  22.745  0.00  0.00    +0.000 C 
ATOM     10  S   UNL     1      -3.364  12.771  21.212  0.00  0.00    +0.000 S 
ATOM     11  C   UNL     1      -4.589  13.943  21.646  0.00  0.00    +0.000 C 
ATOM     12  S   UNL     1      -5.827  14.478  20.685  0.00  0.00    +0.000 S 
ATOM     13  N   UNL     1      -4.382  14.375  22.919  0.00  0.00    +0.000 N 
ATOM     14  C   UNL     1      -3.317  13.865  23.606  0.00  0.00    +0.000 C 
ATOM     15  O   UNL     1      -3.022  14.164  24.753  0.00  0.00    +0.000 OA
ATOM     16  H   UNL     1      -4.987  15.056  23.354  0.00  0.00    +0.000 HD
ENDBRANCH   5   8
ENDBRANCH   1   2
BRANCH   1  17
ATOM     17  O   UNL     1       1.752   7.177  20.515  0.00  0.00    +0.000 OA
BRANCH  17  19
ATOM     18  C   UNL     1       2.956   5.021  19.991  0.00  0.00    +0.000 A 
ATOM     19  C   UNL     1       2.558   6.363  19.754  0.00  0.00    +0.000 A 
ATOM     20  C   UNL     1       2.969   7.013  18.575  0.00  0.00    +0.000 A 
ATOM     21  C   UNL     1       3.850   6.416  17.672  0.00  0.00    +0.000 A 
ATOM     22  C   UNL     1       4.356   5.134  17.935  0.00  0.00    +0.000 A 
ATOM     23  C   UNL     1       3.933   4.449  19.097  0.00  0.00    +0.000 A 
BRANCH  22  24
ATOM     24  C   UNL     1       5.362   4.638  16.937  0.00  0.00    +0.000 C 
ATOM     25  C   UNL     1       6.844   4.712  17.195  0.00  0.00    +0.000 C 
ATOM     26  O   UNL     1       4.959   4.152  15.877  0.00  0.00    +0.000 OA
ENDBRANCH  22  24
BRANCH  23  27
ATOM     27  O   UNL     1       4.423   3.168  19.215  0.00  0.00    +0.000 OA
ATOM     28  C   UNL     1       3.787   2.083  18.550  0.00  0.00    +0.000 C 
ENDBRANCH  23  27
BRANCH  18  29
ATOM     29  C   UNL     1       2.447   4.128  21.115  0.00  0.00    +0.000 C 
BRANCH  29  31
ATOM     30  C   UNL     1       0.586   3.011  19.740  0.00  0.00    +0.000 C 
ATOM     31  C   UNL     1       1.279   3.142  21.078  0.00  0.00    +0.000 C 
ENDBRANCH  29  31
ENDBRANCH  18  29
ENDBRANCH  17  19
ENDBRANCH   1  17
TORSDOF 8
ENDMDL
MODEL 3
REMARK VINA RESULT:      -7.7      1.553      1.912
REMARK  Name = 
REMARK  11 active torsions:
REMARK  status: ('A' for Active; 'I' for Inactive)
REMARK    1  A    between atoms: C_1  and  C_2
REMARK    2  A    between atoms: C_2  and  C_3
REMARK    3  A    between atoms: C_3  and  C_4
REMARK    4  A    between atoms: C_5  and  O_6
REMARK    5  A    between atoms: O_6  and  C_7
REMARK    6  A    between atoms: C_7  and  C_8
REMARK    7  A    between atoms: C_11  and  C_12
REMARK    8  A    between atoms: C_24  and  C_25
REMARK    9  A    between atoms: C_25  and  C_26
REMARK   10  A    between atoms: C_28  and  O_29
REMARK   11  A    between atoms: O_29  and  C_30
REMARK                            x       y       z     vdW  Elec       q    Type
REMARK                         _______ _______ _______ _____ _____    ______ ____
ROOT
ATOM      1  C   UNL     1       1.765   8.014  20.641  0.00  0.00    +0.000 C 
ENDROOT
BRANCH   1   2
ATOM      2  C   UNL     1       0.935   9.132  21.239  0.00  0.00    +0.000 A 
ATOM      3  C   UNL     1       0.263  10.075  20.453  0.00  0.00    +0.000 A 
ATOM      4  C   UNL     1      -0.682  10.935  21.032  0.00  0.00    +0.000 A 
ATOM      5  C   UNL     1      -0.971  10.861  22.401  0.00  0.00    +0.000 A 
ATOM      6  C   UNL     1      -0.292   9.932  23.191  0.00  0.00    +0.000 A 
ATOM      7  C   UNL     1       0.648   9.077  22.614  0.00  0.00    +0.000 A 
BRANCH   5   8
ATOM      8  C   UNL     1      -1.986  11.736  22.997  0.00  0.00    +0.000 C 
ATOM      9  C   UNL     1      -1.894  13.067  23.125  0.00  0.00    +0.000 C 
ATOM     10  S   UNL     1      -0.598  14.101  22.647  0.00  0.00    +0.000 S 
ATOM     11  C   UNL     1      -1.400  15.528  23.264  0.00  0.00    +0.000 C 
ATOM     12  S   UNL     1      -0.816  17.077  23.242  0.00  0.00    +0.000 S 
ATOM     13  N   UNL     1      -2.609  15.186  23.788  0.00  0.00    +0.000 N 
ATOM     14  C   UNL     1      -2.974  13.870  23.757  0.00  0.00    +0.000 C 
ATOM     15  O   UNL     1      -4.029  13.431  24.187  0.00  0.00    +0.000 OA
ATOM     16  H   UNL     1      -3.226  15.874  24.195  0.00  0.00    +0.000 HD
ENDBRANCH   5   8
ENDBRANCH   1   2
BRANCH   1  17
ATOM     17  O   UNL     1       1.773   7.898  19.220  0.00  0.00    +0.000 OA
BRANCH  17  19
ATOM     18  C   UNL     1       2.676   5.552  18.978  0.00  0.00    +0.000 A 
ATOM     19  C   UNL     1       2.606   6.940  18.687  0.00  0.00    +0.000 A 
ATOM     20  C   UNL     1       3.441   7.487  17.696  0.00  0.00    +0.000 A 
ATOM     21  C   UNL     1       4.422   6.728  17.056  0.00  0.00    +0.000 A 
ATOM     22  C   UNL     1       4.598   5.380  17.404  0.00  0.00    +0.000 A 
ATOM     23  C   UNL     1       3.750   4.800  18.375  0.00  0.00    +0.000 A 
BRANCH  22  24
ATOM     24  C   UNL     1       5.742   4.696  16.712  0.00  0.00    +0.000 C 
ATOM     25  C   UNL     1       7.122   4.644  17.314  0.00  0.00    +0.000 C 
ATOM     26  O   UNL     1       5.541   4.158  15.620  0.00  0.00    +0.000 OA
ENDBRANCH  22  24
BRANCH  23  27
ATOM     27  O   UNL     1       3.952   3.454  18.580  0.00  0.00    +0.000 OA
ATOM     28  C   UNL     1       3.247   2.489  17.808  0.00  0.00    +0.000 C 
ENDBRANCH  23  27
BRANCH  18  29
ATOM     29  C   UNL     1       1.721   4.783  19.880  0.00  0.00    +0.000 C 
BRANCH  29  31
ATOM     30  C   UNL     1       1.491   2.771  21.461  0.00  0.00    +0.000 C 
ATOM     31  C   UNL     1       2.006   4.179  21.255  0.00  0.00    +0.000 C 
ENDBRANCH  29  31
ENDBRANCH  18  29
ENDBRANCH  17  19
ENDBRANCH   1  17
TORSDOF 8
ENDMDL
MODEL 4
REMARK VINA RESULT:      -7.7      1.420      1.822
REMARK  Name = 
REMARK  11 active torsions:
REMARK  status: ('A' for Active; 'I' for Inactive)
REMARK    1  A    between atoms: C_1  and  C_2
REMARK    2  A    between atoms: C_2  and  C_3
REMARK    3  A    between atoms: C_3  and  C_4
REMARK    4  A    between atoms: C_5  and  O_6
REMARK    5  A    between atoms: O_6  and  C_7
REMARK    6  A    between atoms: C_7  and  C_8
REMARK    7  A    between atoms: C_11  and  C_12
REMARK    8  A    between atoms: C_24  and  C_25
REMARK    9  A    between atoms: C_25  and  C_26
REMARK   10  A    between atoms: C_28  and  O_29
REMARK   11  A    between atoms: O_29  and  C_30
REMARK                            x       y       z     vdW  Elec       q    Type
REMARK                         _______ _______ _______ _____ _____    ______ ____
ROOT
ATOM      1  C   UNL     1       0.917   9.395  19.716  0.00  0.00    +0.000 C 
ENDROOT
BRANCH   1   2
ATOM      2  C   UNL     1       0.445  10.361  20.783  0.00  0.00    +0.000 A 
ATOM      3  C   UNL     1       0.374  11.743  20.570  0.00  0.00    +0.000 A 
ATOM      4  C   UNL     1      -0.294  12.567  21.489  0.00  0.00    +0.000 A 
ATOM      5  C   UNL     1      -0.900  12.022  22.628  0.00  0.00    +0.000 A 
ATOM      6  C   UNL     1      -0.818  10.648  22.852  0.00  0.00    +0.000 A 
ATOM      7  C   UNL     1      -0.155   9.828  21.937  0.00  0.00    +0.000 A 
BRANCH   5   8
ATOM      8  C   UNL     1      -1.628  12.881  23.567  0.00  0.00    +0.000 C 
ATOM      9  C   UNL     1      -2.925  13.211  23.483  0.00  0.00    +0.000 C 
ATOM     10  S   UNL     1      -4.073  12.739  22.285  0.00  0.00    +0.000 S 
ATOM     11  C   UNL     1      -5.351  13.681  23.021  0.00  0.00    +0.000 C 
ATOM     12  S   UNL     1      -6.906  13.833  22.474  0.00  0.00    +0.000 S 
ATOM     13  N   UNL     1      -4.882  14.297  24.140  0.00  0.00    +0.000 N 
ATOM     14  C   UNL     1      -3.574  14.102  24.481  0.00  0.00    +0.000 C 
ATOM     15  O   UNL     1      -3.030  14.591  25.459  0.00  0.00    +0.000 OA
ATOM     16  H   UNL     1      -5.472  14.889  24.707  0.00  0.00    +0.000 HD
ENDBRANCH   5   8
ENDBRANCH   1   2
BRANCH   1  17
ATOM     17  O   UNL     1       1.303   8.090  20.143  0.00  0.00    +0.000 OA
BRANCH  17  19
ATOM     18  C   UNL     1       2.809   6.155  19.544  0.00  0.00    +0.000 A 
ATOM     19  C   UNL     1       2.251   7.450  19.379  0.00  0.00    +0.000 A 
ATOM     20  C   UNL     1       2.636   8.239  18.279  0.00  0.00    +0.000 A 
ATOM     21  C   UNL     1       3.637   7.834  17.395  0.00  0.00    +0.000 A 
ATOM     22  C   UNL     1       4.293   6.610  17.597  0.00  0.00    +0.000 A 
ATOM     23  C   UNL     1       3.901   5.786  18.676  0.00  0.00    +0.000 A 
BRANCH  22  24
ATOM     24  C   UNL     1       5.409   6.329  16.633  0.00  0.00    +0.000 C 
ATOM     25  C   UNL     1       6.836   6.167  17.090  0.00  0.00    +0.000 C 
ATOM     26  O   UNL     1       5.147   6.222  15.433  0.00  0.00    +0.000 OA
ENDBRANCH  22  24
BRANCH  23  27
ATOM     27  O   UNL     1       4.550   4.573  18.733  0.00  0.00    +0.000 OA
ATOM     28  C   UNL     1       4.055   3.451  18.011  0.00  0.00    +0.000 C 
ENDBRANCH  23  27
BRANCH  18  29
ATOM     29  C   UNL     1       2.362   5.117  20.564  0.00  0.00    +0.000 C 
BRANCH  29  31
ATOM     30  C   UNL     1       1.300   2.861  21.185  0.00  0.00    +0.000 C 
ATOM     31  C   UNL     1       1.139   4.202  20.503  0.00  0.00    +0.000 C 
ENDBRANCH  29  31
ENDBRANCH  18  29
ENDBRANCH  17  19
ENDBRANCH   1  17
TORSDOF 8
ENDMDL
MODEL 5
REMARK VINA RESULT:      -7.7      1.568      1.755
REMARK  Name = 
REMARK  11 active torsions:
REMARK  status: ('A' for Active; 'I' for Inactive)
REMARK    1  A    between atoms: C_1  and  C_2
REMARK    2  A    between atoms: C_2  and  C_3
REMARK    3  A    between atoms: C_3  and  C_4
REMARK    4  A    between atoms: C_5  and  O_6
REMARK    5  A    between atoms: O_6  and  C_7
REMARK    6  A    between atoms: C_7  and  C_8
REMARK    7  A    between atoms: C_11  and  C_12
REMARK    8  A    between atoms: C_24  and  C_25
REMARK    9  A    between atoms: C_25  and  C_26
REMARK   10  A    between atoms: C_28  and  O_29
REMARK   11  A    between atoms: O_29  and  C_30
REMARK                            x       y       z     vdW  Elec       q    Type
REMARK                         _______ _______ _______ _____ _____    ______ ____
ROOT
ATOM      1  C   UNL     1       1.879   8.538  20.661  0.00  0.00    +0.000 C 
ENDROOT
BRANCH   1   2
ATOM      2  C   UNL     1       0.701   9.272  21.268  0.00  0.00    +0.000 A 
ATOM      3  C   UNL     1       0.388   9.199  22.630  0.00  0.00    +0.000 A 
ATOM      4  C   UNL     1      -0.552  10.079  23.189  0.00  0.00    +0.000 A 
ATOM      5  C   UNL     1      -1.187  11.043  22.396  0.00  0.00    +0.000 A 
ATOM      6  C   UNL     1      -0.889  11.109  21.035  0.00  0.00    +0.000 A 
ATOM      7  C   UNL     1       0.046  10.234  20.479  0.00  0.00    +0.000 A 
BRANCH   5   8
ATOM      8  C   UNL     1      -2.141  11.984  22.990  0.00  0.00    +0.000 C 
ATOM      9  C   UNL     1      -1.953  13.304  23.133  0.00  0.00    +0.000 C 
ATOM     10  S   UNL     1      -0.580  14.245  22.678  0.00  0.00    +0.000 S 
ATOM     11  C   UNL     1      -1.282  15.721  23.302  0.00  0.00    +0.000 C 
ATOM     12  S   UNL     1      -0.585  17.223  23.301  0.00  0.00    +0.000 S 
ATOM     13  N   UNL     1      -2.518  15.464  23.809  0.00  0.00    +0.000 N 
ATOM     14  C   UNL     1      -2.978  14.179  23.761  0.00  0.00    +0.000 C 
ATOM     15  O   UNL     1      -4.068  13.815  24.176  0.00  0.00    +0.000 OA
ATOM     16  H   UNL     1      -3.087  16.192  24.216  0.00  0.00    +0.000 HD
ENDBRANCH   5   8
ENDBRANCH   1   2
BRANCH   1  17
ATOM     17  O   UNL     1       1.669   7.892  19.408  0.00  0.00    +0.000 OA
BRANCH  17  19
ATOM     18  C   UNL     1       2.818   5.655  19.633  0.00  0.00    +0.000 A 
ATOM     19  C   UNL     1       2.585   6.929  19.052  0.00  0.00    +0.000 A 
ATOM     20  C   UNL     1       3.324   7.324  17.921  0.00  0.00    +0.000 A 
ATOM     21  C   UNL     1       4.363   6.545  17.409  0.00  0.00    +0.000 A 
ATOM     22  C   UNL     1       4.697   5.333  18.032  0.00  0.00    +0.000 A 
ATOM     23  C   UNL     1       3.949   4.901  19.150  0.00  0.00    +0.000 A 
BRANCH  22  24
ATOM     24  C   UNL     1       5.888   4.632  17.443  0.00  0.00    +0.000 C 
ATOM     25  C   UNL     1       5.872   4.070  16.046  0.00  0.00    +0.000 C 
ATOM     26  O   UNL     1       6.909   4.519  18.126  0.00  0.00    +0.000 OA
ENDBRANCH  22  24
BRANCH  23  27
ATOM     27  O   UNL     1       4.306   3.661  19.632  0.00  0.00    +0.000 OA
ATOM     28  C   UNL     1       3.920   2.477  18.944  0.00  0.00    +0.000 C 
ENDBRANCH  23  27
BRANCH  18  29
ATOM     29  C   UNL     1       1.982   5.013  20.732  0.00  0.00    +0.000 C 
BRANCH  29  31
ATOM     30  C   UNL     1       1.380   2.658  21.565  0.00  0.00    +0.000 C 
ATOM     31  C   UNL     1       1.059   3.800  20.625  0.00  0.00    +0.000 C 
ENDBRANCH  29  31
ENDBRANCH  18  29
ENDBRANCH  17  19
ENDBRANCH   1  17
TORSDOF 8
ENDMDL
MODEL 6
REMARK VINA RESULT:      -7.6      1.784      2.214
REMARK  Name = 
REMARK  11 active torsions:
REMARK  status: ('A' for Active; 'I' for Inactive)
REMARK    1  A    between atoms: C_1  and  C_2
REMARK    2  A    between atoms: C_2  and  C_3
REMARK    3  A    between atoms: C_3  and  C_4
REMARK    4  A    between atoms: C_5  and  O_6
REMARK    5  A    between atoms: O_6  and  C_7
REMARK    6  A    between atoms: C_7  and  C_8
REMARK    7  A    between atoms: C_11  and  C_12
REMARK    8  A    between atoms: C_24  and  C_25
REMARK    9  A    between atoms: C_25  and  C_26
REMARK   10  A    between atoms: C_28  and  O_29
REMARK   11  A    between atoms: O_29  and  C_30
REMARK                            x       y       z     vdW  Elec       q    Type
REMARK                         _______ _______ _______ _____ _____    ______ ____
ROOT
ATOM      1  C   UNL     1       2.199   8.924  18.334  0.00  0.00    +0.000 C 
ENDROOT
BRANCH   1   2
ATOM      2  C   UNL     1       1.298   9.965  18.966  0.00  0.00    +0.000 A 
ATOM      3  C   UNL     1       1.087  11.225  18.395  0.00  0.00    +0.000 A 
ATOM      4  C   UNL     1       0.066  12.059  18.877  0.00  0.00    +0.000 A 
ATOM      5  C   UNL     1      -0.757  11.643  19.931  0.00  0.00    +0.000 A 
ATOM      6  C   UNL     1      -0.540  10.394  20.514  0.00  0.00    +0.000 A 
ATOM      7  C   UNL     1       0.475   9.565  20.034  0.00  0.00    +0.000 A 
BRANCH   5   8
ATOM      8  C   UNL     1      -1.847  12.501  20.408  0.00  0.00    +0.000 C 
ATOM      9  C   UNL     1      -3.086  12.548  19.900  0.00  0.00    +0.000 C 
ATOM     10  S   UNL     1      -3.736  11.646  18.580  0.00  0.00    +0.000 S 
ATOM     11  C   UNL     1      -5.292  12.438  18.698  0.00  0.00    +0.000 C 
ATOM     12  S   UNL     1      -6.609  12.178  17.729  0.00  0.00    +0.000 S 
ATOM     13  N   UNL     1      -5.277  13.331  19.725  0.00  0.00    +0.000 N 
ATOM     14  C   UNL     1      -4.124  13.463  20.445  0.00  0.00    +0.000 C 
ATOM     15  O   UNL     1      -3.978  14.221  21.391  0.00  0.00    +0.000 OA
ATOM     16  H   UNL     1      -6.086  13.889  19.956  0.00  0.00    +0.000 HD
ENDBRANCH   5   8
ENDBRANCH   1   2
BRANCH   1  17
ATOM     17  O   UNL     1       1.899   7.556  18.598  0.00  0.00    +0.000 OA
BRANCH  17  19
ATOM     18  C   UNL     1       2.649   5.208  18.052  0.00  0.00    +0.000 A 
ATOM     19  C   UNL     1       2.753   6.624  18.055  0.00  0.00    +0.000 A 
ATOM     20  C   UNL     1       3.829   7.245  17.395  0.00  0.00    +0.000 A 
ATOM     21  C   UNL     1       4.867   6.508  16.822  0.00  0.00    +0.000 A 
ATOM     22  C   UNL     1       4.856   5.107  16.903  0.00  0.00    +0.000 A 
ATOM     23  C   UNL     1       3.769   4.460  17.534  0.00  0.00    +0.000 A 
BRANCH  22  24
ATOM     24  C   UNL     1       6.070   4.434  16.329  0.00  0.00    +0.000 C 
ATOM     25  C   UNL     1       6.100   3.916  14.915  0.00  0.00    +0.000 C 
ATOM     26  O   UNL     1       7.071   4.308  17.038  0.00  0.00    +0.000 OA
ENDBRANCH  22  24
BRANCH  23  27
ATOM     27  O   UNL     1       3.816   3.085  17.485  0.00  0.00    +0.000 OA
ATOM     28  C   UNL     1       4.130   2.327  18.647  0.00  0.00    +0.000 C 
ENDBRANCH  23  27
BRANCH  18  29
ATOM     29  C   UNL     1       1.459   4.402  18.556  0.00  0.00    +0.000 C 
BRANCH  29  31
ATOM     30  C   UNL     1       2.031   4.601  21.053  0.00  0.00    +0.000 C 
ATOM     31  C   UNL     1       1.149   3.979  19.992  0.00  0.00    +0.000 C 
ENDBRANCH  29  31
ENDBRANCH  18  29
ENDBRANCH  17  19
ENDBRANCH   1  17
TORSDOF 8
ENDMDL
MODEL 7
REMARK VINA RESULT:      -7.6      1.705      1.924
REMARK  Name = 
REMARK  11 active torsions:
REMARK  status: ('A' for Active; 'I' for Inactive)
REMARK    1  A    between atoms: C_1  and  C_2
REMARK    2  A    between atoms: C_2  and  C_3
REMARK    3  A    between atoms: C_3  and  C_4
REMARK    4  A    between atoms: C_5  and  O_6
REMARK    5  A    between atoms: O_6  and  C_7
REMARK    6  A    between atoms: C_7  and  C_8
REMARK    7  A    between atoms: C_11  and  C_12
REMARK    8  A    between atoms: C_24  and  C_25
REMARK    9  A    between atoms: C_25  and  C_26
REMARK   10  A    between atoms: C_28  and  O_29
REMARK   11  A    between atoms: O_29  and  C_30
REMARK                            x       y       z     vdW  Elec       q    Type
REMARK                         _______ _______ _______ _____ _____    ______ ____
ROOT
ATOM      1  C   UNL     1       1.915   8.824  18.517  0.00  0.00    +0.000 C 
ENDROOT
BRANCH   1   2
ATOM      2  C   UNL     1       0.728   9.627  19.008  0.00  0.00    +0.000 A 
ATOM      3  C   UNL     1       0.259   9.551  20.325  0.00  0.00    +0.000 A 
ATOM      4  C   UNL     1      -0.676  10.483  20.798  0.00  0.00    +0.000 A 
ATOM      5  C   UNL     1      -1.152  11.503  19.965  0.00  0.00    +0.000 A 
ATOM      6  C   UNL     1      -0.699  11.573  18.647  0.00  0.00    +0.000 A 
ATOM      7  C   UNL     1       0.232  10.646  18.177  0.00  0.00    +0.000 A 
BRANCH   5   8
ATOM      8  C   UNL     1      -2.102  12.497  20.473  0.00  0.00    +0.000 C 
ATOM      9  C   UNL     1      -3.372  12.645  20.069  0.00  0.00    +0.000 C 
ATOM     10  S   UNL     1      -4.226  11.742  18.872  0.00  0.00    +0.000 S 
ATOM     11  C   UNL     1      -5.678  12.699  19.067  0.00  0.00    +0.000 C 
ATOM     12  S   UNL     1      -7.096  12.523  18.233  0.00  0.00    +0.000 S 
ATOM     13  N   UNL     1      -5.480  13.644  20.027  0.00  0.00    +0.000 N 
ATOM     14  C   UNL     1      -4.259  13.695  20.636  0.00  0.00    +0.000 C 
ATOM     15  O   UNL     1      -3.953  14.488  21.513  0.00  0.00    +0.000 OA
ATOM     16  H   UNL     1      -6.205  14.297  20.286  0.00  0.00    +0.000 HD
ENDBRANCH   5   8
ENDBRANCH   1   2
BRANCH   1  17
ATOM     17  O   UNL     1       2.119   7.539  19.101  0.00  0.00    +0.000 OA
BRANCH  17  19
ATOM     18  C   UNL     1       2.652   5.228  18.236  0.00  0.00    +0.000 A 
ATOM     19  C   UNL     1       2.833   6.631  18.353  0.00  0.00    +0.000 A 
ATOM     20  C   UNL     1       3.834   7.270  17.597  0.00  0.00    +0.000 A 
ATOM     21  C   UNL     1       4.735   6.551  16.810  0.00  0.00    +0.000 A 
ATOM     22  C   UNL     1       4.659   5.151  16.764  0.00  0.00    +0.000 A 
ATOM     23  C   UNL     1       3.642   4.489  17.489  0.00  0.00    +0.000 A 
BRANCH  22  24
ATOM     24  C   UNL     1       5.737   4.489  15.955  0.00  0.00    +0.000 C 
ATOM     25  C   UNL     1       5.578   4.223  14.481  0.00  0.00    +0.000 C 
ATOM     26  O   UNL     1       6.784   4.160  16.516  0.00  0.00    +0.000 OA
ENDBRANCH  22  24
BRANCH  23  27
ATOM     27  O   UNL     1       3.606   3.125  17.308  0.00  0.00    +0.000 OA
ATOM     28  C   UNL     1       3.965   2.243  18.365  0.00  0.00    +0.000 C 
ENDBRANCH  23  27
BRANCH  18  29
ATOM     29  C   UNL     1       1.506   4.426  18.837  0.00  0.00    +0.000 C 
BRANCH  29  31
ATOM     30  C   UNL     1       1.343   2.934  20.923  0.00  0.00    +0.000 C 
ATOM     31  C   UNL     1       1.117   4.299  20.310  0.00  0.00    +0.000 C 
ENDBRANCH  29  31
ENDBRANCH  18  29
ENDBRANCH  17  19
ENDBRANCH   1  17
TORSDOF 8
ENDMDL
MODEL 8
REMARK VINA RESULT:      -7.5      1.707      2.074
REMARK  Name = 
REMARK  11 active torsions:
REMARK  status: ('A' for Active; 'I' for Inactive)
REMARK    1  A    between atoms: C_1  and  C_2
REMARK    2  A    between atoms: C_2  and  C_3
REMARK    3  A    between atoms: C_3  and  C_4
REMARK    4  A    between atoms: C_5  and  O_6
REMARK    5  A    between atoms: O_6  and  C_7
REMARK    6  A    between atoms: C_7  and  C_8
REMARK    7  A    between atoms: C_11  and  C_12
REMARK    8  A    between atoms: C_24  and  C_25
REMARK    9  A    between atoms: C_25  and  C_26
REMARK   10  A    between atoms: C_28  and  O_29
REMARK   11  A    between atoms: O_29  and  C_30
REMARK                            x       y       z     vdW  Elec       q    Type
REMARK                         _______ _______ _______ _____ _____    ______ ____
ROOT
ATOM      1  C   UNL     1       1.700   7.845  21.118  0.00  0.00    +0.000 C 
ENDROOT
BRANCH   1   2
ATOM      2  C   UNL     1       0.898   9.100  21.395  0.00  0.00    +0.000 A 
ATOM      3  C   UNL     1       0.429   9.934  20.374  0.00  0.00    +0.000 A 
ATOM      4  C   UNL     1      -0.508  10.940  20.657  0.00  0.00    +0.000 A 
ATOM      5  C   UNL     1      -0.989  11.122  21.959  0.00  0.00    +0.000 A 
ATOM      6  C   UNL     1      -0.512  10.303  22.983  0.00  0.00    +0.000 A 
ATOM      7  C   UNL     1       0.420   9.302  22.701  0.00  0.00    +0.000 A 
BRANCH   5   8
ATOM      8  C   UNL     1      -1.994  12.151  22.245  0.00  0.00    +0.000 C 
ATOM      9  C   UNL     1      -1.749  13.456  22.430  0.00  0.00    +0.000 C 
ATOM     10  S   UNL     1      -0.232  14.276  22.389  0.00  0.00    +0.000 S 
ATOM     11  C   UNL     1      -0.962  15.818  22.774  0.00  0.00    +0.000 C 
ATOM     12  S   UNL     1      -0.176  17.262  22.967  0.00  0.00    +0.000 S 
ATOM     13  N   UNL     1      -2.309  15.671  22.901  0.00  0.00    +0.000 N 
ATOM     14  C   UNL     1      -2.838  14.424  22.728  0.00  0.00    +0.000 C 
ATOM     15  O   UNL     1      -4.027  14.155  22.810  0.00  0.00    +0.000 OA
ATOM     16  H   UNL     1      -2.910  16.451  23.121  0.00  0.00    +0.000 HD
ENDBRANCH   5   8
ENDBRANCH   1   2
BRANCH   1  17
ATOM     17  O   UNL     1       1.561   7.253  19.828  0.00  0.00    +0.000 OA
BRANCH  17  19
ATOM     18  C   UNL     1       3.007   5.188  19.962  0.00  0.00    +0.000 A 
ATOM     19  C   UNL     1       2.582   6.428  19.417  0.00  0.00    +0.000 A 
ATOM     20  C   UNL     1       3.214   6.936  18.267  0.00  0.00    +0.000 A 
ATOM     21  C   UNL     1       4.326   6.312  17.699  0.00  0.00    +0.000 A 
ATOM     22  C   UNL     1       4.845   5.146  18.283  0.00  0.00    +0.000 A 
ATOM     23  C   UNL     1       4.208   4.600  19.420  0.00  0.00    +0.000 A 
BRANCH  22  24
ATOM     24  C   UNL     1       6.094   4.621  17.635  0.00  0.00    +0.000 C 
ATOM     25  C   UNL     1       6.119   4.179  16.195  0.00  0.00    +0.000 C 
ATOM     26  O   UNL     1       7.128   4.555  18.303  0.00  0.00    +0.000 OA
ENDBRANCH  22  24
BRANCH  23  27
ATOM     27  O   UNL     1       4.747   3.412  19.862  0.00  0.00    +0.000 OA
ATOM     28  C   UNL     1       4.298   2.171  19.333  0.00  0.00    +0.000 C 
ENDBRANCH  23  27
BRANCH  18  29
ATOM     29  C   UNL     1       2.310   4.423  21.079  0.00  0.00    +0.000 C 
BRANCH  29  31
ATOM     30  C   UNL     1       0.730   3.094  19.549  0.00  0.00    +0.000 C 
ATOM     31  C   UNL     1       1.249   3.330  20.951  0.00  0.00    +0.000 C 
ENDBRANCH  29  31
ENDBRANCH  18  29
ENDBRANCH  17  19
ENDBRANCH   1  17
TORSDOF 8
ENDMDL
MODEL 9
REMARK VINA RESULT:      -7.5      1.030      1.093
REMARK  Name = 
REMARK  11 active torsions:
REMARK  status: ('A' for Active; 'I' for Inactive)
REMARK    1  A    between atoms: C_1  and  C_2
REMARK    2  A    between atoms: C_2  and  C_3
REMARK    3  A    between atoms: C_3  and  C_4
REMARK    4  A    between atoms: C_5  and  O_6
REMARK    5  A    between atoms: O_6  and  C_7
REMARK    6  A    between atoms: C_7  and  C_8
REMARK    7  A    between atoms: C_11  and  C_12
REMARK    8  A    between atoms: C_24  and  C_25
REMARK    9  A    between atoms: C_25  and  C_26
REMARK   10  A    between atoms: C_28  and  O_29
REMARK   11  A    between atoms: O_29  and  C_30
REMARK                            x       y       z     vdW  Elec       q    Type
REMARK                         _______ _______ _______ _____ _____    ______ ____
ROOT
ATOM      1  C   UNL     1       1.508   8.594  19.249  0.00  0.00    +0.000 C 
ENDROOT
BRANCH   1   2
ATOM      2  C   UNL     1       0.707   9.586  20.068  0.00  0.00    +0.000 A 
ATOM      3  C   UNL     1      -0.015   9.214  21.207  0.00  0.00    +0.000 A 
ATOM      4  C   UNL     1      -0.536  10.193  22.066  0.00  0.00    +0.000 A 
ATOM      5  C   UNL     1      -0.339  11.554  21.801  0.00  0.00    +0.000 A 
ATOM      6  C   UNL     1       0.368  11.930  20.659  0.00  0.00    +0.000 A 
ATOM      7  C   UNL     1       0.886  10.955  19.804  0.00  0.00    +0.000 A 
BRANCH   5   8
ATOM      8  C   UNL     1      -0.852  12.574  22.721  0.00  0.00    +0.000 C 
ATOM      9  C   UNL     1      -2.078  13.116  22.683  0.00  0.00    +0.000 C 
ATOM     10  S   UNL     1      -3.362  12.783  21.579  0.00  0.00    +0.000 S 
ATOM     11  C   UNL     1      -4.415  13.968  22.318  0.00  0.00    +0.000 C 
ATOM     12  S   UNL     1      -5.954  14.354  21.844  0.00  0.00    +0.000 S 
ATOM     13  N   UNL     1      -3.781  14.555  23.370  0.00  0.00    +0.000 N 
ATOM     14  C   UNL     1      -2.506  14.157  23.655  0.00  0.00    +0.000 C 
ATOM     15  O   UNL     1      -1.828  14.598  24.570  0.00  0.00    +0.000 OA
ATOM     16  H   UNL     1      -4.227  15.268  23.929  0.00  0.00    +0.000 HD
ENDBRANCH   5   8
ENDBRANCH   1   2
BRANCH   1  17
ATOM     17  O   UNL     1       2.146   7.532  19.954  0.00  0.00    +0.000 OA
BRANCH  17  19
ATOM     18  C   UNL     1       3.163   5.280  19.433  0.00  0.00    +0.000 A 
ATOM     19  C   UNL     1       2.891   6.654  19.200  0.00  0.00    +0.000 A 
ATOM     20  C   UNL     1       3.379   7.273  18.035  0.00  0.00    +0.000 A 
ATOM     21  C   UNL     1       4.220   6.606  17.142  0.00  0.00    +0.000 A 
ATOM     22  C   UNL     1       4.605   5.282  17.403  0.00  0.00    +0.000 A 
ATOM     23  C   UNL     1       4.102   4.630  18.552  0.00  0.00    +0.000 A 
BRANCH  22  24
ATOM     24  C   UNL     1       5.581   4.706  16.418  0.00  0.00    +0.000 C 
ATOM     25  C   UNL     1       7.059   4.645  16.703  0.00  0.00    +0.000 C 
ATOM     26  O   UNL     1       5.156   4.267  15.347  0.00  0.00    +0.000 OA
ENDBRANCH  22  24
BRANCH  23  27
ATOM     27  O   UNL     1       4.475   3.310  18.668  0.00  0.00    +0.000 OA
ATOM     28  C   UNL     1       3.759   2.291  17.980  0.00  0.00    +0.000 C 
ENDBRANCH  23  27
BRANCH  18  29
ATOM     29  C   UNL     1       2.557   4.429  20.540  0.00  0.00    +0.000 C 
BRANCH  29  31
ATOM     30  C   UNL     1       0.695   2.949  19.568  0.00  0.00    +0.000 C 
ATOM     31  C   UNL     1       1.122   3.914  20.653  0.00  0.00    +0.000 C 
ENDBRANCH  29  31
ENDBRANCH  18  29
ENDBRANCH  17  19
ENDBRANCH   1  17
TORSDOF 8
ENDMDL
