MODEL 1
REMARK VINA RESULT:      -4.7      0.000      0.000
REMARK  Name = 
REMARK  1 active torsions:
REMARK  status: ('A' for Active; 'I' for Inactive)
REMARK    1  A    between atoms: C_1  and  C_2
REMARK                            x       y       z     vdW  Elec       q    Type
REMARK                         _______ _______ _______ _____ _____    ______ ____
ROOT
ATOM      1  C   UNL     1       5.887   5.081  19.083  0.00  0.00    +0.000 C 
ATOM      2  C   UNL     1       5.754   4.708  17.620  0.00  0.00    +0.000 C 
ATOM      3  C   UNL     1       5.001   5.764  16.799  0.00  0.00    +0.000 C 
ATOM      4  C   UNL     1       5.439   5.581  15.344  0.00  0.00    +0.000 C 
ATOM      5  C   UNL     1       6.878   5.191  15.502  0.00  0.00    +0.000 C 
ATOM      6  O   UNL     1       7.740   5.225  14.647  0.00  0.00    +0.000 OA
ATOM      7  C   UNL     1       7.080   4.657  16.903  0.00  0.00    +0.000 C 
ATOM      8  O   UNL     1       8.130   4.218  17.323  0.00  0.00    +0.000 OA
ENDROOT
TORSDOF 0
ENDMDL
MODEL 2
REMARK VINA RESULT:      -4.7      5.508      6.177
REMARK  Name = 
REMARK  1 active torsions:
REMARK  status: ('A' for Active; 'I' for Inactive)
REMARK    1  A    between atoms: C_1  and  C_2
REMARK                            x       y       z     vdW  Elec       q    Type
REMARK                         _______ _______ _______ _____ _____    ______ ____
ROOT
ATOM      1  C   UNL     1       1.483   2.604  21.668  0.00  0.00    +0.000 C 
ATOM      2  C   UNL     1       1.201   3.692  20.653  0.00  0.00    +0.000 C 
ATOM      3  C   UNL     1       2.406   4.612  20.410  0.00  0.00    +0.000 C 
ATOM      4  C   UNL     1       2.212   5.233  19.026  0.00  0.00    +0.000 C 
ATOM      5  C   UNL     1       1.570   4.108  18.270  0.00  0.00    +0.000 C 
ATOM      6  O   UNL     1       1.489   3.993  17.064  0.00  0.00    +0.000 OA
ATOM      7  C   UNL     1       0.950   3.153  19.267  0.00  0.00    +0.000 C 
ATOM      8  O   UNL     1       0.317   2.163  18.963  0.00  0.00    +0.000 OA
ENDROOT
TORSDOF 0
ENDMDL
MODEL 3
REMARK VINA RESULT:      -4.6      4.689      5.740
REMARK  Name = 
REMARK  1 active torsions:
REMARK  status: ('A' for Active; 'I' for Inactive)
REMARK    1  A    between atoms: C_1  and  C_2
REMARK                            x       y       z     vdW  Elec       q    Type
REMARK                         _______ _______ _______ _____ _____    ______ ____
ROOT
ATOM      1  C   UNL     1       0.979   4.364  20.439  0.00  0.00    +0.000 C 
ATOM      2  C   UNL     1       1.794   3.223  19.865  0.00  0.00    +0.000 C 
ATOM      3  C   UNL     1       2.643   3.643  18.656  0.00  0.00    +0.000 C 
ATOM      4  C   UNL     1       3.794   2.640  18.560  0.00  0.00    +0.000 C 
ATOM      5  C   UNL     1       4.077   2.357  20.005  0.00  0.00    +0.000 C 
ATOM      6  O   UNL     1       5.084   1.860  20.466  0.00  0.00    +0.000 OA
ATOM      7  C   UNL     1       2.851   2.718  20.814  0.00  0.00    +0.000 C 
ATOM      8  O   UNL     1       2.752   2.561  22.013  0.00  0.00    +0.000 OA
ENDROOT
TORSDOF 0
ENDMDL
MODEL 4
REMARK VINA RESULT:      -4.6      4.617      5.900
REMARK  Name = 
REMARK  1 active torsions:
REMARK  status: ('A' for Active; 'I' for Inactive)
REMARK    1  A    between atoms: C_1  and  C_2
REMARK                            x       y       z     vdW  Elec       q    Type
REMARK                         _______ _______ _______ _____ _____    ______ ____
ROOT
ATOM      1  C   UNL     1       3.327   3.354  17.333  0.00  0.00    +0.000 C 
ATOM      2  C   UNL     1       2.863   3.861  18.684  0.00  0.00    +0.000 C 
ATOM      3  C   UNL     1       1.379   3.574  18.953  0.00  0.00    +0.000 C 
ATOM      4  C   UNL     1       1.201   3.580  20.473  0.00  0.00    +0.000 C 
ATOM      5  C   UNL     1       2.496   2.983  20.937  0.00  0.00    +0.000 C 
ATOM      6  O   UNL     1       2.727   2.504  22.028  0.00  0.00    +0.000 OA
ATOM      7  C   UNL     1       3.522   3.149  19.838  0.00  0.00    +0.000 C 
ATOM      8  O   UNL     1       4.683   2.806  19.929  0.00  0.00    +0.000 OA
ENDROOT
TORSDOF 0
ENDMDL
MODEL 5
REMARK VINA RESULT:      -4.5      1.421      2.893
REMARK  Name = 
REMARK  1 active torsions:
REMARK  status: ('A' for Active; 'I' for Inactive)
REMARK    1  A    between atoms: C_1  and  C_2
REMARK                            x       y       z     vdW  Elec       q    Type
REMARK                         _______ _______ _______ _____ _____    ______ ____
ROOT
ATOM      1  C   UNL     1       5.985   3.852  15.270  0.00  0.00    +0.000 C 
ATOM      2  C   UNL     1       5.931   4.942  16.321  0.00  0.00    +0.000 C 
ATOM      3  C   UNL     1       4.612   4.952  17.107  0.00  0.00    +0.000 C 
ATOM      4  C   UNL     1       4.903   5.640  18.442  0.00  0.00    +0.000 C 
ATOM      5  C   UNL     1       6.302   5.181  18.727  0.00  0.00    +0.000 C 
ATOM      6  O   UNL     1       6.873   5.207  19.798  0.00  0.00    +0.000 OA
ATOM      7  C   UNL     1       6.938   4.745  17.426  0.00  0.00    +0.000 C 
ATOM      8  O   UNL     1       8.085   4.363  17.320  0.00  0.00    +0.000 OA
ENDROOT
TORSDOF 0
ENDMDL
MODEL 6
REMARK VINA RESULT:      -4.5      2.200      3.423
REMARK  Name = 
REMARK  1 active torsions:
REMARK  status: ('A' for Active; 'I' for Inactive)
REMARK    1  A    between atoms: C_1  and  C_2
REMARK                            x       y       z     vdW  Elec       q    Type
REMARK                         _______ _______ _______ _____ _____    ______ ____
ROOT
ATOM      1  C   UNL     1       5.455   5.945  16.096  0.00  0.00    +0.000 C 
ATOM      2  C   UNL     1       6.761   5.897  16.861  0.00  0.00    +0.000 C 
ATOM      3  C   UNL     1       7.205   7.273  17.377  0.00  0.00    +0.000 C 
ATOM      4  C   UNL     1       8.136   7.017  18.564  0.00  0.00    +0.000 C 
ATOM      5  C   UNL     1       7.515   5.802  19.187  0.00  0.00    +0.000 C 
ATOM      6  O   UNL     1       7.700   5.385  20.312  0.00  0.00    +0.000 OA
ATOM      7  C   UNL     1       6.663   5.111  18.145  0.00  0.00    +0.000 C 
ATOM      8  O   UNL     1       6.064   4.072  18.331  0.00  0.00    +0.000 OA
ENDROOT
TORSDOF 0
ENDMDL
MODEL 7
REMARK VINA RESULT:      -4.5      5.293      6.261
REMARK  Name = 
REMARK  1 active torsions:
REMARK  status: ('A' for Active; 'I' for Inactive)
REMARK    1  A    between atoms: C_1  and  C_2
REMARK                            x       y       z     vdW  Elec       q    Type
REMARK                         _______ _______ _______ _____ _____    ______ ____
ROOT
ATOM      1  C   UNL     1       2.470   6.376  18.479  0.00  0.00    +0.000 C 
ATOM      2  C   UNL     1       2.424   5.008  19.129  0.00  0.00    +0.000 C 
ATOM      3  C   UNL     1       1.615   4.993  20.434  0.00  0.00    +0.000 C 
ATOM      4  C   UNL     1       1.159   3.548  20.650  0.00  0.00    +0.000 C 
ATOM      5  C   UNL     1       0.910   3.090  19.244  0.00  0.00    +0.000 C 
ATOM      6  O   UNL     1       0.258   2.126  18.896  0.00  0.00    +0.000 OA
ATOM      7  C   UNL     1       1.682   3.989  18.303  0.00  0.00    +0.000 C 
ATOM      8  O   UNL     1       1.719   3.846  17.098  0.00  0.00    +0.000 OA
ENDROOT
TORSDOF 0
ENDMDL
MODEL 8
REMARK VINA RESULT:      -4.5      4.733      6.111
REMARK  Name = 
REMARK  1 active torsions:
REMARK  status: ('A' for Active; 'I' for Inactive)
REMARK    1  A    between atoms: C_1  and  C_2
REMARK                            x       y       z     vdW  Elec       q    Type
REMARK                         _______ _______ _______ _____ _____    ______ ____
ROOT
ATOM      1  C   UNL     1       1.677   4.285  17.761  0.00  0.00    +0.000 C 
ATOM      2  C   UNL     1       1.863   4.235  19.263  0.00  0.00    +0.000 C 
ATOM      3  C   UNL     1       0.806   3.373  19.969  0.00  0.00    +0.000 C 
ATOM      4  C   UNL     1       1.418   2.934  21.301  0.00  0.00    +0.000 C 
ATOM      5  C   UNL     1       2.860   2.751  20.933  0.00  0.00    +0.000 C 
ATOM      6  O   UNL     1       3.697   2.131  21.556  0.00  0.00    +0.000 OA
ATOM      7  C   UNL     1       3.139   3.546  19.676  0.00  0.00    +0.000 C 
ATOM      8  O   UNL     1       4.230   3.635  19.152  0.00  0.00    +0.000 OA
ENDROOT
TORSDOF 0
ENDMDL
MODEL 9
REMARK VINA RESULT:      -4.5      1.468      1.468
REMARK  Name = 
REMARK  1 active torsions:
REMARK  status: ('A' for Active; 'I' for Inactive)
REMARK    1  A    between atoms: C_1  and  C_2
REMARK                            x       y       z     vdW  Elec       q    Type
REMARK                         _______ _______ _______ _____ _____    ______ ____
ROOT
ATOM      1  C   UNL     1       7.897   6.825  18.525  0.00  0.00    +0.000 C 
ATOM      2  C   UNL     1       6.769   6.012  17.924  0.00  0.00    +0.000 C 
ATOM      3  C   UNL     1       5.925   6.809  16.918  0.00  0.00    +0.000 C 
ATOM      4  C   UNL     1       5.261   5.786  15.995  0.00  0.00    +0.000 C 
ATOM      5  C   UNL     1       6.322   4.733  15.887  0.00  0.00    +0.000 C 
ATOM      6  O   UNL     1       6.403   3.865  15.042  0.00  0.00    +0.000 OA
ATOM      7  C   UNL     1       7.257   4.870  17.068  0.00  0.00    +0.000 C 
ATOM      8  O   UNL     1       8.195   4.132  17.287  0.00  0.00    +0.000 OA
ENDROOT
TORSDOF 0
ENDMDL
