MODEL 1
REMARK VINA RESULT:      -6.4      0.000      0.000
REMARK  Name = 
REMARK  5 active torsions:
REMARK  status: ('A' for Active; 'I' for Inactive)
REMARK    1  A    between atoms: C_1  and  C_2
REMARK    2  A    between atoms: C_5  and  C_6
REMARK    3  A    between atoms: C_6  and  N_7
REMARK    4  A    between atoms: C_6  and  C_16
REMARK    5  A    between atoms: C_8  and  C_10
REMARK                            x       y       z     vdW  Elec       q    Type
REMARK                         _______ _______ _______ _____ _____    ______ ____
ROOT
ATOM      1  C   UNL     1      -0.400  12.738  20.421  0.00  0.00    +0.000 C 
ENDROOT
BRANCH   1   2
ATOM      2  C   UNL     1      -0.005  13.828  19.393  0.00  0.00    +0.000 C 
ATOM      3  O   UNL     1      -0.398  13.791  18.226  0.00  0.00    +0.000 OA
ATOM      4  N   UNL     1       0.900  14.788  19.802  0.00  0.00    +0.000 N 
ATOM      5  C   UNL     1       1.485  14.950  21.127  0.00  0.00    +0.000 C 
ATOM      6  C   UNL     1       2.271  16.265  21.084  0.00  0.00    +0.000 C 
ATOM      7 CL   UNL     1       1.786  17.348  22.421  0.00  0.00    +0.000 Cl
ATOM      8  C   UNL     1       1.949  16.902  19.717  0.00  0.00    +0.000 C 
ATOM      9  O   UNL     1       3.117  17.463  19.094  0.00  0.00    +0.000 OA
ATOM     10  C   UNL     1       3.710  16.484  18.222  0.00  0.00    +0.000 C 
ATOM     11  C   UNL     1       2.763  15.318  18.263  0.00  0.00    +0.000 C 
ATOM     12  O   UNL     1       3.040  14.189  17.877  0.00  0.00    +0.000 OA
ATOM     13  C   UNL     1       1.452  15.744  18.869  0.00  0.00    +0.000 C 
ENDBRANCH   1   2
BRANCH   1  18
ATOM     14  C   UNL     1      -3.584  13.976  24.082  0.00  0.00    +0.000 C 
ATOM     15  C   UNL     1      -2.127  13.886  23.622  0.00  0.00    +0.000 C 
ATOM     16  C   UNL     1      -1.722  12.436  23.336  0.00  0.00    +0.000 C 
ATOM     17  C   UNL     1      -2.262  11.901  22.007  0.00  0.00    +0.000 C 
ATOM     18  C   UNL     1      -1.907  12.788  20.797  0.00  0.00    +0.000 C 
ATOM     19  C   UNL     1      -2.386  14.227  21.095  0.00  0.00    +0.000 C 
ATOM     20  C   UNL     1      -1.848  14.789  22.415  0.00  0.00    +0.000 C 
ENDBRANCH   1  18
BRANCH   1  21
ATOM     21  N   UNL     1      -0.013  11.467  19.790  0.00  0.00    +0.000 N 
ATOM     22  C   UNL     1       0.784  10.564  20.459  0.00  0.00    +0.000 C 
ATOM     23  O   UNL     1       1.116  10.728  21.630  0.00  0.00    +0.000 OA
ATOM     24  H   UNL     1      -0.141  11.396  18.786  0.00  0.00    +0.000 HD
BRANCH  22  25
ATOM     25  C   UNL     1       1.328   9.397  19.711  0.00  0.00    +0.000 A 
ATOM     26  C   UNL     1       1.587   8.233  20.455  0.00  0.00    +0.000 A 
ATOM     27  C   UNL     1       2.149   7.110  19.852  0.00  0.00    +0.000 A 
ATOM     28  C   UNL     1       2.448   7.134  18.494  0.00  0.00    +0.000 A 
ATOM     29  C   UNL     1       2.168   8.276  17.738  0.00  0.00    +0.000 A 
ATOM     30  C   UNL     1       1.605   9.408  18.343  0.00  0.00    +0.000 A 
ENDBRANCH  22  25
ENDBRANCH   1  21
TORSDOF 4
ENDMDL
MODEL 2
REMARK VINA RESULT:      -6.3      2.677      3.400
REMARK  Name = 
REMARK  5 active torsions:
REMARK  status: ('A' for Active; 'I' for Inactive)
REMARK    1  A    between atoms: C_1  and  C_2
REMARK    2  A    between atoms: C_5  and  C_6
REMARK    3  A    between atoms: C_6  and  N_7
REMARK    4  A    between atoms: C_6  and  C_16
REMARK    5  A    between atoms: C_8  and  C_10
REMARK                            x       y       z     vdW  Elec       q    Type
REMARK                         _______ _______ _______ _____ _____    ______ ____
ROOT
ATOM      1  C   UNL     1      -0.798  13.602  20.424  0.00  0.00    +0.000 C 
ENDROOT
BRANCH   1   2
ATOM      2  C   UNL     1       0.131  14.542  19.614  0.00  0.00    +0.000 C 
ATOM      3  O   UNL     1      -0.270  15.149  18.620  0.00  0.00    +0.000 OA
ATOM      4  N   UNL     1       1.462  14.586  19.979  0.00  0.00    +0.000 N 
ATOM      5  C   UNL     1       2.100  13.904  21.098  0.00  0.00    +0.000 C 
ATOM      6  C   UNL     1       3.535  14.439  21.157  0.00  0.00    +0.000 C 
ATOM      7 CL   UNL     1       3.928  15.048  22.790  0.00  0.00    +0.000 Cl
ATOM      8  C   UNL     1       3.603  15.574  20.115  0.00  0.00    +0.000 C 
ATOM      9  O   UNL     1       4.820  15.536  19.352  0.00  0.00    +0.000 OA
ATOM     10  C   UNL     1       4.605  14.778  18.149  0.00  0.00    +0.000 C 
ATOM     11  C   UNL     1       3.140  14.447  18.167  0.00  0.00    +0.000 C 
ATOM     12  O   UNL     1       2.617  13.588  17.465  0.00  0.00    +0.000 OA
ATOM     13  C   UNL     1       2.433  15.302  19.185  0.00  0.00    +0.000 C 
ENDBRANCH   1   2
BRANCH   1  18
ATOM     14  C   UNL     1      -3.862  12.894  24.320  0.00  0.00    +0.000 C 
ATOM     15  C   UNL     1      -3.114  12.265  23.142  0.00  0.00    +0.000 C 
ATOM     16  C   UNL     1      -3.598  12.837  21.806  0.00  0.00    +0.000 C 
ATOM     17  C   UNL     1      -3.056  14.238  21.508  0.00  0.00    +0.000 C 
ATOM     18  C   UNL     1      -1.520  14.334  21.590  0.00  0.00    +0.000 C 
ATOM     19  C   UNL     1      -1.074  13.807  22.972  0.00  0.00    +0.000 C 
ATOM     20  C   UNL     1      -1.594  12.400  23.287  0.00  0.00    +0.000 C 
ENDBRANCH   1  18
BRANCH   1  21
ATOM     21  N   UNL     1      -1.735  13.052  19.431  0.00  0.00    +0.000 N 
ATOM     22  C   UNL     1      -1.709  11.712  19.108  0.00  0.00    +0.000 C 
ATOM     23  O   UNL     1      -0.988  10.911  19.698  0.00  0.00    +0.000 OA
ATOM     24  H   UNL     1      -2.212  13.717  18.832  0.00  0.00    +0.000 HD
BRANCH  22  25
ATOM     25  C   UNL     1      -2.519  11.239  17.952  0.00  0.00    +0.000 A 
ATOM     26  C   UNL     1      -1.908  10.316  17.087  0.00  0.00    +0.000 A 
ATOM     27  C   UNL     1      -2.568   9.859  15.947  0.00  0.00    +0.000 A 
ATOM     28  C   UNL     1      -3.852  10.313  15.667  0.00  0.00    +0.000 A 
ATOM     29  C   UNL     1      -4.481  11.208  16.536  0.00  0.00    +0.000 A 
ATOM     30  C   UNL     1      -3.819  11.671  17.682  0.00  0.00    +0.000 A 
ENDBRANCH  22  25
ENDBRANCH   1  21
TORSDOF 4
ENDMDL
MODEL 3
REMARK VINA RESULT:      -6.1      4.232      8.006
REMARK  Name = 
REMARK  5 active torsions:
REMARK  status: ('A' for Active; 'I' for Inactive)
REMARK    1  A    between atoms: C_1  and  C_2
REMARK    2  A    between atoms: C_5  and  C_6
REMARK    3  A    between atoms: C_6  and  N_7
REMARK    4  A    between atoms: C_6  and  C_16
REMARK    5  A    between atoms: C_8  and  C_10
REMARK                            x       y       z     vdW  Elec       q    Type
REMARK                         _______ _______ _______ _____ _____    ______ ____
ROOT
ATOM      1  C   UNL     1       3.015   6.587  19.132  0.00  0.00    +0.000 C 
ENDROOT
BRANCH   1   2
ATOM      2  C   UNL     1       2.044   7.630  18.521  0.00  0.00    +0.000 C 
ATOM      3  O   UNL     1       1.866   7.714  17.305  0.00  0.00    +0.000 OA
ATOM      4  N   UNL     1       1.469   8.541  19.384  0.00  0.00    +0.000 N 
ATOM      5  C   UNL     1       1.604   8.601  20.834  0.00  0.00    +0.000 C 
ATOM      6  C   UNL     1       0.621   9.678  21.307  0.00  0.00    +0.000 C 
ATOM      7 CL   UNL     1      -0.461   9.046  22.581  0.00  0.00    +0.000 Cl
ATOM      8  C   UNL     1      -0.183  10.090  20.057  0.00  0.00    +0.000 C 
ATOM      9  O   UNL     1      -0.373  11.512  19.980  0.00  0.00    +0.000 OA
ATOM     10  C   UNL     1       0.680  12.092  19.191  0.00  0.00    +0.000 C 
ATOM     11  C   UNL     1       1.470  10.916  18.691  0.00  0.00    +0.000 C 
ATOM     12  O   UNL     1       2.597  10.992  18.214  0.00  0.00    +0.000 OA
ATOM     13  C   UNL     1       0.682   9.648  18.889  0.00  0.00    +0.000 C 
ENDBRANCH   1   2
BRANCH   1  18
ATOM     14  C   UNL     1       1.744   1.760  19.518  0.00  0.00    +0.000 C 
ATOM     15  C   UNL     1       2.432   2.845  18.686  0.00  0.00    +0.000 C 
ATOM     16  C   UNL     1       1.437   3.928  18.253  0.00  0.00    +0.000 C 
ATOM     17  C   UNL     1       1.069   4.904  19.374  0.00  0.00    +0.000 C 
ATOM     18  C   UNL     1       2.292   5.560  20.046  0.00  0.00    +0.000 C 
ATOM     19  C   UNL     1       3.241   4.438  20.524  0.00  0.00    +0.000 C 
ATOM     20  C   UNL     1       3.634   3.455  19.416  0.00  0.00    +0.000 C 
ENDBRANCH   1  18
BRANCH   1  21
ATOM     21  N   UNL     1       3.668   5.958  17.973  0.00  0.00    +0.000 N 
ATOM     22  C   UNL     1       5.042   5.877  17.899  0.00  0.00    +0.000 C 
ATOM     23  O   UNL     1       5.769   6.226  18.826  0.00  0.00    +0.000 OA
ATOM     24  H   UNL     1       3.099   5.817  17.146  0.00  0.00    +0.000 HD
BRANCH  22  25
ATOM     25  C   UNL     1       5.666   5.432  16.622  0.00  0.00    +0.000 A 
ATOM     26  C   UNL     1       4.838   4.742  15.720  0.00  0.00    +0.000 A 
ATOM     27  C   UNL     1       5.347   4.238  14.525  0.00  0.00    +0.000 A 
ATOM     28  C   UNL     1       6.689   4.428  14.214  0.00  0.00    +0.000 A 
ATOM     29  C   UNL     1       7.515   5.139  15.089  0.00  0.00    +0.000 A 
ATOM     30  C   UNL     1       7.005   5.645  16.293  0.00  0.00    +0.000 A 
ENDBRANCH  22  25
ENDBRANCH   1  21
TORSDOF 4
ENDMDL
MODEL 4
REMARK VINA RESULT:      -6.1      3.809      6.700
REMARK  Name = 
REMARK  5 active torsions:
REMARK  status: ('A' for Active; 'I' for Inactive)
REMARK    1  A    between atoms: C_1  and  C_2
REMARK    2  A    between atoms: C_5  and  C_6
REMARK    3  A    between atoms: C_6  and  N_7
REMARK    4  A    between atoms: C_6  and  C_16
REMARK    5  A    between atoms: C_8  and  C_10
REMARK                            x       y       z     vdW  Elec       q    Type
REMARK                         _______ _______ _______ _____ _____    ______ ____
ROOT
ATOM      1  C   UNL     1      -1.901  14.861  21.488  0.00  0.00    +0.000 C 
ENDROOT
BRANCH   1   2
ATOM      2  C   UNL     1      -2.954  14.923  22.623  0.00  0.00    +0.000 C 
ATOM      3  O   UNL     1      -2.636  15.160  23.789  0.00  0.00    +0.000 OA
ATOM      4  N   UNL     1      -4.254  14.588  22.300  0.00  0.00    +0.000 N 
ATOM      5  C   UNL     1      -4.784  14.249  20.986  0.00  0.00    +0.000 C 
ATOM      6  C   UNL     1      -6.304  14.145  21.157  0.00  0.00    +0.000 C 
ATOM      7 CL   UNL     1      -7.157  15.175  19.970  0.00  0.00    +0.000 Cl
ATOM      8  C   UNL     1      -6.597  14.609  22.598  0.00  0.00    +0.000 C 
ATOM      9  O   UNL     1      -7.574  13.777  23.245  0.00  0.00    +0.000 OA
ATOM     10  C   UNL     1      -6.904  12.736  23.978  0.00  0.00    +0.000 C 
ATOM     11  C   UNL     1      -5.442  13.051  23.832  0.00  0.00    +0.000 C 
ATOM     12  O   UNL     1      -4.538  12.261  24.076  0.00  0.00    +0.000 OA
ATOM     13  C   UNL     1      -5.269  14.456  23.320  0.00  0.00    +0.000 C 
ENDBRANCH   1   2
BRANCH   1  18
ATOM     14  C   UNL     1      -0.337  18.539  18.471  0.00  0.00    +0.000 C 
ATOM     15  C   UNL     1      -1.188  17.276  18.623  0.00  0.00    +0.000 C 
ATOM     16  C   UNL     1      -0.321  16.057  18.956  0.00  0.00    +0.000 C 
ATOM     17  C   UNL     1       0.146  16.018  20.414  0.00  0.00    +0.000 C 
ATOM     18  C   UNL     1      -1.006  16.131  21.433  0.00  0.00    +0.000 C 
ATOM     19  C   UNL     1      -1.820  17.403  21.104  0.00  0.00    +0.000 C 
ATOM     20  C   UNL     1      -2.309  17.458  19.653  0.00  0.00    +0.000 C 
ENDBRANCH   1  18
BRANCH   1  21
ATOM     21  N   UNL     1      -1.132  13.635  21.753  0.00  0.00    +0.000 N 
ATOM     22  C   UNL     1      -1.235  12.546  20.914  0.00  0.00    +0.000 C 
ATOM     23  O   UNL     1      -1.879  12.585  19.869  0.00  0.00    +0.000 OA
ATOM     24  H   UNL     1      -0.734  13.534  22.680  0.00  0.00    +0.000 HD
BRANCH  22  25
ATOM     25  C   UNL     1      -0.614  11.259  21.332  0.00  0.00    +0.000 A 
ATOM     26  C   UNL     1       0.040  10.518  20.334  0.00  0.00    +0.000 A 
ATOM     27  C   UNL     1       0.602   9.275  20.619  0.00  0.00    +0.000 A 
ATOM     28  C   UNL     1       0.525   8.764  21.910  0.00  0.00    +0.000 A 
ATOM     29  C   UNL     1      -0.097   9.506  22.918  0.00  0.00    +0.000 A 
ATOM     30  C   UNL     1      -0.665  10.756  22.634  0.00  0.00    +0.000 A 
ENDBRANCH  22  25
ENDBRANCH   1  21
TORSDOF 4
ENDMDL
MODEL 5
REMARK VINA RESULT:      -6.0      6.750      9.351
REMARK  Name = 
REMARK  5 active torsions:
REMARK  status: ('A' for Active; 'I' for Inactive)
REMARK    1  A    between atoms: C_1  and  C_2
REMARK    2  A    between atoms: C_5  and  C_6
REMARK    3  A    between atoms: C_6  and  N_7
REMARK    4  A    between atoms: C_6  and  C_16
REMARK    5  A    between atoms: C_8  and  C_10
REMARK                            x       y       z     vdW  Elec       q    Type
REMARK                         _______ _______ _______ _____ _____    ______ ____
ROOT
ATOM      1  C   UNL     1       8.778  13.910  21.529  0.00  0.00    +0.000 C 
ENDROOT
BRANCH   1   2
ATOM      2  C   UNL     1       8.434  15.414  21.385  0.00  0.00    +0.000 C 
ATOM      3  O   UNL     1       9.143  16.292  21.877  0.00  0.00    +0.000 OA
ATOM      4  N   UNL     1       7.235  15.733  20.778  0.00  0.00    +0.000 N 
ATOM      5  C   UNL     1       6.270  14.821  20.179  0.00  0.00    +0.000 C 
ATOM      6  C   UNL     1       5.221  15.703  19.493  0.00  0.00    +0.000 C 
ATOM      7 CL   UNL     1       5.005  15.232  17.782  0.00  0.00    +0.000 Cl
ATOM      8  C   UNL     1       5.751  17.147  19.603  0.00  0.00    +0.000 C 
ATOM      9  O   UNL     1       4.712  18.080  19.940  0.00  0.00    +0.000 OA
ATOM     10  C   UNL     1       4.667  18.249  21.368  0.00  0.00    +0.000 C 
ATOM     11  C   UNL     1       5.827  17.443  21.881  0.00  0.00    +0.000 C 
ATOM     12  O   UNL     1       5.971  17.107  23.051  0.00  0.00    +0.000 OA
ATOM     13  C   UNL     1       6.752  17.095  20.745  0.00  0.00    +0.000 C 
ENDBRANCH   1   2
BRANCH   1  18
ATOM     14  C   UNL     1      10.964  11.446  17.758  0.00  0.00    +0.000 C 
ATOM     15  C   UNL     1       9.656  11.849  18.443  0.00  0.00    +0.000 C 
ATOM     16  C   UNL     1       9.571  11.278  19.862  0.00  0.00    +0.000 C 
ATOM     17  C   UNL     1      10.432  12.034  20.878  0.00  0.00    +0.000 C 
ATOM     18  C   UNL     1      10.158  13.551  20.910  0.00  0.00    +0.000 C 
ATOM     19  C   UNL     1      10.313  14.102  19.475  0.00  0.00    +0.000 C 
ATOM     20  C   UNL     1       9.450  13.369  18.442  0.00  0.00    +0.000 C 
ENDBRANCH   1  18
BRANCH   1  21
ATOM     21  N   UNL     1       8.718  13.648  22.976  0.00  0.00    +0.000 N 
ATOM     22  C   UNL     1       7.870  12.687  23.481  0.00  0.00    +0.000 C 
ATOM     23  O   UNL     1       7.214  11.946  22.753  0.00  0.00    +0.000 OA
ATOM     24  H   UNL     1       9.124  14.349  23.587  0.00  0.00    +0.000 HD
BRANCH  22  25
ATOM     25  C   UNL     1       7.680  12.601  24.955  0.00  0.00    +0.000 A 
ATOM     26  C   UNL     1       6.891  11.541  25.432  0.00  0.00    +0.000 A 
ATOM     27  C   UNL     1       6.613  11.413  26.791  0.00  0.00    +0.000 A 
ATOM     28  C   UNL     1       7.130  12.339  27.691  0.00  0.00    +0.000 A 
ATOM     29  C   UNL     1       7.941  13.380  27.232  0.00  0.00    +0.000 A 
ATOM     30  C   UNL     1       8.221  13.513  25.864  0.00  0.00    +0.000 A 
ENDBRANCH  22  25
ENDBRANCH   1  21
TORSDOF 4
ENDMDL
MODEL 6
REMARK VINA RESULT:      -6.0      3.368      6.119
REMARK  Name = 
REMARK  5 active torsions:
REMARK  status: ('A' for Active; 'I' for Inactive)
REMARK    1  A    between atoms: C_1  and  C_2
REMARK    2  A    between atoms: C_5  and  C_6
REMARK    3  A    between atoms: C_6  and  N_7
REMARK    4  A    between atoms: C_6  and  C_16
REMARK    5  A    between atoms: C_8  and  C_10
REMARK                            x       y       z     vdW  Elec       q    Type
REMARK                         _______ _______ _______ _____ _____    ______ ____
ROOT
ATOM      1  C   UNL     1      -2.340  14.138  21.637  0.00  0.00    +0.000 C 
ENDROOT
BRANCH   1   2
ATOM      2  C   UNL     1      -1.064  13.668  20.892  0.00  0.00    +0.000 C 
ATOM      3  O   UNL     1      -0.459  14.408  20.116  0.00  0.00    +0.000 OA
ATOM      4  N   UNL     1      -0.693  12.347  21.043  0.00  0.00    +0.000 N 
ATOM      5  C   UNL     1      -1.319  11.338  21.888  0.00  0.00    +0.000 C 
ATOM      6  C   UNL     1      -0.408  10.107  21.824  0.00  0.00    +0.000 C 
ATOM      7 CL   UNL     1       0.041   9.552  23.462  0.00  0.00    +0.000 Cl
ATOM      8  C   UNL     1       0.839  10.549  21.031  0.00  0.00    +0.000 C 
ATOM      9  O   UNL     1       1.265   9.548  20.092  0.00  0.00    +0.000 OA
ATOM     10  C   UNL     1       0.662   9.807  18.812  0.00  0.00    +0.000 C 
ATOM     11  C   UNL     1      -0.076  11.103  18.996  0.00  0.00    +0.000 C 
ATOM     12  O   UNL     1      -0.935  11.523  18.231  0.00  0.00    +0.000 OA
ATOM     13  C   UNL     1       0.381  11.777  20.263  0.00  0.00    +0.000 C 
ENDBRANCH   1   2
BRANCH   1  18
ATOM     14  C   UNL     1      -3.866  17.242  25.257  0.00  0.00    +0.000 C 
ATOM     15  C   UNL     1      -3.916  15.830  24.669  0.00  0.00    +0.000 C 
ATOM     16  C   UNL     1      -4.533  15.832  23.266  0.00  0.00    +0.000 C 
ATOM     17  C   UNL     1      -3.580  16.340  22.180  0.00  0.00    +0.000 C 
ATOM     18  C   UNL     1      -2.227  15.599  22.153  0.00  0.00    +0.000 C 
ATOM     19  C   UNL     1      -1.608  15.671  23.567  0.00  0.00    +0.000 C 
ATOM     20  C   UNL     1      -2.539  15.157  24.670  0.00  0.00    +0.000 C 
ENDBRANCH   1  18
BRANCH   1  21
ATOM     21  N   UNL     1      -3.430  13.960  20.665  0.00  0.00    +0.000 N 
ATOM     22  C   UNL     1      -4.446  13.060  20.905  0.00  0.00    +0.000 C 
ATOM     23  O   UNL     1      -4.543  12.453  21.968  0.00  0.00    +0.000 OA
ATOM     24  H   UNL     1      -3.277  14.327  19.732  0.00  0.00    +0.000 HD
BRANCH  22  25
ATOM     25  C   UNL     1      -5.406  12.754  19.809  0.00  0.00    +0.000 A 
ATOM     26  C   UNL     1      -4.907  12.028  18.715  0.00  0.00    +0.000 A 
ATOM     27  C   UNL     1      -5.716  11.743  17.617  0.00  0.00    +0.000 A 
ATOM     28  C   UNL     1      -7.039  12.174  17.606  0.00  0.00    +0.000 A 
ATOM     29  C   UNL     1      -7.554  12.871  18.701  0.00  0.00    +0.000 A 
ATOM     30  C   UNL     1      -6.742  13.161  19.807  0.00  0.00    +0.000 A 
ENDBRANCH  22  25
ENDBRANCH   1  21
TORSDOF 4
ENDMDL
MODEL 7
REMARK VINA RESULT:      -6.0      3.323      6.073
REMARK  Name = 
REMARK  5 active torsions:
REMARK  status: ('A' for Active; 'I' for Inactive)
REMARK    1  A    between atoms: C_1  and  C_2
REMARK    2  A    between atoms: C_5  and  C_6
REMARK    3  A    between atoms: C_6  and  N_7
REMARK    4  A    between atoms: C_6  and  C_16
REMARK    5  A    between atoms: C_8  and  C_10
REMARK                            x       y       z     vdW  Elec       q    Type
REMARK                         _______ _______ _______ _____ _____    ______ ____
ROOT
ATOM      1  C   UNL     1      -2.131  14.053  21.552  0.00  0.00    +0.000 C 
ENDROOT
BRANCH   1   2
ATOM      2  C   UNL     1      -0.856  13.528  20.844  0.00  0.00    +0.000 C 
ATOM      3  O   UNL     1      -0.216  14.229  20.058  0.00  0.00    +0.000 OA
ATOM      4  N   UNL     1      -0.525  12.202  21.038  0.00  0.00    +0.000 N 
ATOM      5  C   UNL     1      -1.193  11.235  21.898  0.00  0.00    +0.000 C 
ATOM      6  C   UNL     1      -0.316   9.977  21.884  0.00  0.00    +0.000 C 
ATOM      7 CL   UNL     1       0.089   9.456  23.544  0.00  0.00    +0.000 Cl
ATOM      8  C   UNL     1       0.956  10.363  21.102  0.00  0.00    +0.000 C 
ATOM      9  O   UNL     1       1.370   9.325  20.198  0.00  0.00    +0.000 OA
ATOM     10  C   UNL     1       0.798   9.564  18.901  0.00  0.00    +0.000 C 
ATOM     11  C   UNL     1       0.093  10.885  19.036  0.00  0.00    +0.000 C 
ATOM     12  O   UNL     1      -0.741  11.307  18.244  0.00  0.00    +0.000 OA
ATOM     13  C   UNL     1       0.547  11.581  20.292  0.00  0.00    +0.000 C 
ENDBRANCH   1   2
BRANCH   1  18
ATOM     14  C   UNL     1      -2.549  17.059  25.535  0.00  0.00    +0.000 C 
ATOM     15  C   UNL     1      -2.662  15.637  24.980  0.00  0.00    +0.000 C 
ATOM     16  C   UNL     1      -3.744  15.545  23.899  0.00  0.00    +0.000 C 
ATOM     17  C   UNL     1      -3.310  16.126  22.549  0.00  0.00    +0.000 C 
ATOM     18  C   UNL     1      -1.992  15.529  22.018  0.00  0.00    +0.000 C 
ATOM     19  C   UNL     1      -0.910  15.695  23.110  0.00  0.00    +0.000 C 
ATOM     20  C   UNL     1      -1.317  15.111  24.467  0.00  0.00    +0.000 C 
ENDBRANCH   1  18
BRANCH   1  21
ATOM     21  N   UNL     1      -3.211  13.866  20.571  0.00  0.00    +0.000 N 
ATOM     22  C   UNL     1      -4.270  13.028  20.843  0.00  0.00    +0.000 C 
ATOM     23  O   UNL     1      -4.414  12.490  21.938  0.00  0.00    +0.000 OA
ATOM     24  H   UNL     1      -3.025  14.169  19.620  0.00  0.00    +0.000 HD
BRANCH  22  25
ATOM     25  C   UNL     1      -5.224  12.700  19.747  0.00  0.00    +0.000 A 
ATOM     26  C   UNL     1      -6.559  13.101  19.928  0.00  0.00    +0.000 A 
ATOM     27  C   UNL     1      -7.533  12.788  18.982  0.00  0.00    +0.000 A 
ATOM     28  C   UNL     1      -7.181  12.080  17.838  0.00  0.00    +0.000 A 
ATOM     29  C   UNL     1      -5.851  11.703  17.633  0.00  0.00    +0.000 A 
ATOM     30  C   UNL     1      -4.869  12.014  18.584  0.00  0.00    +0.000 A 
ENDBRANCH  22  25
ENDBRANCH   1  21
TORSDOF 4
ENDMDL
MODEL 8
REMARK VINA RESULT:      -6.0      3.386      6.237
REMARK  Name = 
REMARK  5 active torsions:
REMARK  status: ('A' for Active; 'I' for Inactive)
REMARK    1  A    between atoms: C_1  and  C_2
REMARK    2  A    between atoms: C_5  and  C_6
REMARK    3  A    between atoms: C_6  and  N_7
REMARK    4  A    between atoms: C_6  and  C_16
REMARK    5  A    between atoms: C_8  and  C_10
REMARK                            x       y       z     vdW  Elec       q    Type
REMARK                         _______ _______ _______ _____ _____    ______ ____
ROOT
ATOM      1  C   UNL     1      -1.197  14.560  21.358  0.00  0.00    +0.000 C 
ENDROOT
BRANCH   1   2
ATOM      2  C   UNL     1      -2.057  14.565  22.648  0.00  0.00    +0.000 C 
ATOM      3  O   UNL     1      -1.545  14.536  23.768  0.00  0.00    +0.000 OA
ATOM      4  N   UNL     1      -3.427  14.488  22.495  0.00  0.00    +0.000 N 
ATOM      5  C   UNL     1      -4.184  14.476  21.251  0.00  0.00    +0.000 C 
ATOM      6  C   UNL     1      -5.661  14.565  21.652  0.00  0.00    +0.000 C 
ATOM      7 CL   UNL     1      -6.479  15.907  20.802  0.00  0.00    +0.000 Cl
ATOM      8  C   UNL     1      -5.668  14.795  23.177  0.00  0.00    +0.000 C 
ATOM      9  O   UNL     1      -6.674  14.010  23.838  0.00  0.00    +0.000 OA
ATOM     10  C   UNL     1      -6.099  12.766  24.275  0.00  0.00    +0.000 C 
ATOM     11  C   UNL     1      -4.639  12.886  23.940  0.00  0.00    +0.000 C 
ATOM     12  O   UNL     1      -3.859  11.942  23.903  0.00  0.00    +0.000 OA
ATOM     13  C   UNL     1      -4.299  14.321  23.636  0.00  0.00    +0.000 C 
ENDBRANCH   1   2
BRANCH   1  18
ATOM     14  C   UNL     1      -0.019  18.415  18.389  0.00  0.00    +0.000 C 
ATOM     15  C   UNL     1      -0.876  17.164  18.590  0.00  0.00    +0.000 C 
ATOM     16  C   UNL     1      -0.008  15.904  18.691  0.00  0.00    +0.000 C 
ATOM     17  C   UNL     1       0.687  15.748  20.047  0.00  0.00    +0.000 C 
ATOM     18  C   UNL     1      -0.281  15.810  21.245  0.00  0.00    +0.000 C 
ATOM     19  C   UNL     1      -1.094  17.120  21.144  0.00  0.00    +0.000 C 
ATOM     20  C   UNL     1      -1.809  17.294  19.800  0.00  0.00    +0.000 C 
ENDBRANCH   1  18
BRANCH   1  21
ATOM     21  N   UNL     1      -0.438  13.301  21.418  0.00  0.00    +0.000 N 
ATOM     22  C   UNL     1      -0.873  12.185  20.736  0.00  0.00    +0.000 C 
ATOM     23  O   UNL     1      -1.839  12.217  19.979  0.00  0.00    +0.000 OA
ATOM     24  H   UNL     1       0.255  13.217  22.154  0.00  0.00    +0.000 HD
BRANCH  22  25
ATOM     25  C   UNL     1      -0.201  10.882  20.993  0.00  0.00    +0.000 A 
ATOM     26  C   UNL     1      -0.191  10.425  22.322  0.00  0.00    +0.000 A 
ATOM     27  C   UNL     1       0.463   9.244  22.668  0.00  0.00    +0.000 A 
ATOM     28  C   UNL     1       1.105   8.499  21.684  0.00  0.00    +0.000 A 
ATOM     29  C   UNL     1       1.076   8.928  20.355  0.00  0.00    +0.000 A 
ATOM     30  C   UNL     1       0.421  10.117  20.004  0.00  0.00    +0.000 A 
ENDBRANCH  22  25
ENDBRANCH   1  21
TORSDOF 4
ENDMDL
MODEL 9
REMARK VINA RESULT:      -6.0      2.587      3.188
REMARK  Name = 
REMARK  5 active torsions:
REMARK  status: ('A' for Active; 'I' for Inactive)
REMARK    1  A    between atoms: C_1  and  C_2
REMARK    2  A    between atoms: C_5  and  C_6
REMARK    3  A    between atoms: C_6  and  N_7
REMARK    4  A    between atoms: C_6  and  C_16
REMARK    5  A    between atoms: C_8  and  C_10
REMARK                            x       y       z     vdW  Elec       q    Type
REMARK                         _______ _______ _______ _____ _____    ______ ____
ROOT
ATOM      1  C   UNL     1      -0.980  14.493  20.595  0.00  0.00    +0.000 C 
ENDROOT
BRANCH   1   2
ATOM      2  C   UNL     1       0.084  15.197  19.715  0.00  0.00    +0.000 C 
ATOM      3  O   UNL     1      -0.214  15.749  18.655  0.00  0.00    +0.000 OA
ATOM      4  N   UNL     1       1.403  15.086  20.107  0.00  0.00    +0.000 N 
ATOM      5  C   UNL     1       1.924  14.440  21.304  0.00  0.00    +0.000 C 
ATOM      6  C   UNL     1       3.422  14.764  21.343  0.00  0.00    +0.000 C 
ATOM      7 CL   UNL     1       3.886  15.478  22.914  0.00  0.00    +0.000 Cl
ATOM      8  C   UNL     1       3.665  15.761  20.192  0.00  0.00    +0.000 C 
ATOM      9  O   UNL     1       4.870  15.467  19.466  0.00  0.00    +0.000 OA
ATOM     10  C   UNL     1       4.557  14.626  18.343  0.00  0.00    +0.000 C 
ATOM     11  C   UNL     1       3.059  14.514  18.359  0.00  0.00    +0.000 C 
ATOM     12  O   UNL     1       2.422  13.672  17.737  0.00  0.00    +0.000 OA
ATOM     13  C   UNL     1       2.477  15.566  19.266  0.00  0.00    +0.000 C 
ENDBRANCH   1   2
BRANCH   1  18
ATOM     14  C   UNL     1      -3.012  15.424  25.075  0.00  0.00    +0.000 C 
ATOM     15  C   UNL     1      -2.145  14.492  24.226  0.00  0.00    +0.000 C 
ATOM     16  C   UNL     1      -2.946  13.890  23.066  0.00  0.00    +0.000 C 
ATOM     17  C   UNL     1      -3.174  14.866  21.909  0.00  0.00    +0.000 C 
ATOM     18  C   UNL     1      -1.875  15.499  21.372  0.00  0.00    +0.000 C 
ATOM     19  C   UNL     1      -1.126  16.149  22.557  0.00  0.00    +0.000 C 
ATOM     20  C   UNL     1      -0.875  15.187  23.723  0.00  0.00    +0.000 C 
ENDBRANCH   1  18
BRANCH   1  21
ATOM     21  N   UNL     1      -1.746  13.654  19.660  0.00  0.00    +0.000 N 
ATOM     22  C   UNL     1      -1.683  12.280  19.735  0.00  0.00    +0.000 C 
ATOM     23  O   UNL     1      -1.078  11.701  20.634  0.00  0.00    +0.000 OA
ATOM     24  H   UNL     1      -2.111  14.108  18.829  0.00  0.00    +0.000 HD
BRANCH  22  25
ATOM     25  C   UNL     1      -2.296  11.474  18.643  0.00  0.00    +0.000 A 
ATOM     26  C   UNL     1      -1.458  10.561  17.982  0.00  0.00    +0.000 A 
ATOM     27  C   UNL     1      -1.929   9.804  16.912  0.00  0.00    +0.000 A 
ATOM     28  C   UNL     1      -3.249   9.944  16.497  0.00  0.00    +0.000 A 
ATOM     29  C   UNL     1      -4.100  10.827  17.166  0.00  0.00    +0.000 A 
ATOM     30  C   UNL     1      -3.629  11.591  18.242  0.00  0.00    +0.000 A 
ENDBRANCH  22  25
ENDBRANCH   1  21
TORSDOF 4
ENDMDL
