MODEL 1
REMARK VINA RESULT:      -7.0      0.000      0.000
REMARK  Name = 
REMARK  5 active torsions:
REMARK  status: ('A' for Active; 'I' for Inactive)
REMARK    1  A    between atoms: C_1  and  O_2
REMARK    2  A    between atoms: O_2  and  C_3
REMARK    3  A    between atoms: C_3  and  C_5
REMARK    4  A    between atoms: C_8  and  C_9
REMARK    5  A    between atoms: C_10  and  C_11
REMARK                            x       y       z     vdW  Elec       q    Type
REMARK                         _______ _______ _______ _____ _____    ______ ____
ROOT
ATOM      1  C   UNL     1       6.768   5.830  16.844  0.00  0.00    +0.000 A 
ATOM      2  C   UNL     1       7.295   5.449  18.058  0.00  0.00    +0.000 A 
ATOM      3  C   UNL     1       7.906   6.604  18.610  0.00  0.00    +0.000 A 
ATOM      4  C   UNL     1       7.726   7.651  17.714  0.00  0.00    +0.000 A 
ATOM      5  O   UNL     1       7.034   7.154  16.637  0.00  0.00    +0.000 OA
ENDROOT
BRANCH   1   6
ATOM      6  C   UNL     1       6.030   5.091  15.849  0.00  0.00    +0.000 C 
ATOM      7  O   UNL     1       5.015   4.436  16.056  0.00  0.00    +0.000 OA
BRANCH   6   9
ATOM      8  C   UNL     1       6.416   4.152  13.723  0.00  0.00    +0.000 C 
ATOM      9  O   UNL     1       6.624   5.232  14.628  0.00  0.00    +0.000 OA
ENDBRANCH   6   9
ENDBRANCH   1   6
BRANCH   4  10
ATOM     10  C   UNL     1       8.160   9.001  17.820  0.00  0.00    +0.000 C 
ATOM     11  C   UNL     1       8.929   9.398  18.848  0.00  0.00    +0.000 C 
BRANCH  11  12
ATOM     12  C   UNL     1       9.363  10.786  19.072  0.00  0.00    +0.000 A 
ATOM     13  C   UNL     1       9.724  11.177  20.369  0.00  0.00    +0.000 A 
ATOM     14  C   UNL     1      10.109  12.492  20.638  0.00  0.00    +0.000 A 
ATOM     15  C   UNL     1      10.151  13.430  19.610  0.00  0.00    +0.000 A 
ATOM     16  C   UNL     1       9.829  13.048  18.310  0.00  0.00    +0.000 A 
ATOM     17  C   UNL     1       9.447  11.731  18.041  0.00  0.00    +0.000 A 
ENDBRANCH  11  12
ENDBRANCH   4  10
TORSDOF 4
ENDMDL
MODEL 2
REMARK VINA RESULT:      -7.0      0.703      1.183
REMARK  Name = 
REMARK  5 active torsions:
REMARK  status: ('A' for Active; 'I' for Inactive)
REMARK    1  A    between atoms: C_1  and  O_2
REMARK    2  A    between atoms: O_2  and  C_3
REMARK    3  A    between atoms: C_3  and  C_5
REMARK    4  A    between atoms: C_8  and  C_9
REMARK    5  A    between atoms: C_10  and  C_11
REMARK                            x       y       z     vdW  Elec       q    Type
REMARK                         _______ _______ _______ _____ _____    ______ ____
ROOT
ATOM      1  C   UNL     1       7.270   5.605  16.657  0.00  0.00    +0.000 A 
ATOM      2  C   UNL     1       7.489   5.245  17.969  0.00  0.00    +0.000 A 
ATOM      3  C   UNL     1       7.818   6.437  18.662  0.00  0.00    +0.000 A 
ATOM      4  C   UNL     1       7.784   7.484  17.749  0.00  0.00    +0.000 A 
ATOM      5  O   UNL     1       7.454   6.952  16.527  0.00  0.00    +0.000 OA
ENDROOT
BRANCH   1   6
ATOM      6  C   UNL     1       6.898   4.824  15.502  0.00  0.00    +0.000 C 
ATOM      7  O   UNL     1       7.226   5.063  14.346  0.00  0.00    +0.000 OA
BRANCH   6   9
ATOM      8  C   UNL     1       4.803   4.096  16.295  0.00  0.00    +0.000 C 
ATOM      9  O   UNL     1       6.126   3.765  15.885  0.00  0.00    +0.000 OA
ENDBRANCH   6   9
ENDBRANCH   1   6
BRANCH   4  10
ATOM     10  C   UNL     1       8.042   8.866  17.965  0.00  0.00    +0.000 C 
ATOM     11  C   UNL     1       9.019   9.261  18.800  0.00  0.00    +0.000 C 
BRANCH  11  12
ATOM     12  C   UNL     1       9.308  10.665  19.134  0.00  0.00    +0.000 A 
ATOM     13  C   UNL     1       9.504  11.010  20.478  0.00  0.00    +0.000 A 
ATOM     14  C   UNL     1       9.745  12.335  20.849  0.00  0.00    +0.000 A 
ATOM     15  C   UNL     1       9.807  13.330  19.877  0.00  0.00    +0.000 A 
ATOM     16  C   UNL     1       9.650  12.997  18.534  0.00  0.00    +0.000 A 
ATOM     17  C   UNL     1       9.411  11.671  18.164  0.00  0.00    +0.000 A 
ENDBRANCH  11  12
ENDBRANCH   4  10
TORSDOF 4
ENDMDL
MODEL 3
REMARK VINA RESULT:      -6.9      1.153      1.396
REMARK  Name = 
REMARK  5 active torsions:
REMARK  status: ('A' for Active; 'I' for Inactive)
REMARK    1  A    between atoms: C_1  and  O_2
REMARK    2  A    between atoms: O_2  and  C_3
REMARK    3  A    between atoms: C_3  and  C_5
REMARK    4  A    between atoms: C_8  and  C_9
REMARK    5  A    between atoms: C_10  and  C_11
REMARK                            x       y       z     vdW  Elec       q    Type
REMARK                         _______ _______ _______ _____ _____    ______ ____
ROOT
ATOM      1  C   UNL     1       6.715   5.642  15.961  0.00  0.00    +0.000 A 
ATOM      2  C   UNL     1       5.699   5.687  16.890  0.00  0.00    +0.000 A 
ATOM      3  C   UNL     1       6.124   6.577  17.907  0.00  0.00    +0.000 A 
ATOM      4  C   UNL     1       7.384   7.050  17.561  0.00  0.00    +0.000 A 
ATOM      5  O   UNL     1       7.730   6.459  16.371  0.00  0.00    +0.000 OA
ENDROOT
BRANCH   1   6
ATOM      6  C   UNL     1       6.842   4.921  14.717  0.00  0.00    +0.000 C 
ATOM      7  O   UNL     1       6.109   4.013  14.343  0.00  0.00    +0.000 OA
BRANCH   6   9
ATOM      8  C   UNL     1       7.778   5.305  12.590  0.00  0.00    +0.000 C 
ATOM      9  O   UNL     1       7.902   5.404  14.005  0.00  0.00    +0.000 OA
ENDBRANCH   6   9
ENDBRANCH   1   6
BRANCH   4  10
ATOM     10  C   UNL     1       8.220   7.962  18.263  0.00  0.00    +0.000 C 
ATOM     11  C   UNL     1       8.250   9.264  17.930  0.00  0.00    +0.000 C 
BRANCH  11  12
ATOM     12  C   UNL     1       9.134  10.259  18.556  0.00  0.00    +0.000 A 
ATOM     13  C   UNL     1       9.176  10.336  19.956  0.00  0.00    +0.000 A 
ATOM     14  C   UNL     1       9.972  11.288  20.596  0.00  0.00    +0.000 A 
ATOM     15  C   UNL     1      10.749  12.166  19.844  0.00  0.00    +0.000 A 
ATOM     16  C   UNL     1      10.745  12.078  18.454  0.00  0.00    +0.000 A 
ATOM     17  C   UNL     1       9.950  11.124  17.815  0.00  0.00    +0.000 A 
ENDBRANCH  11  12
ENDBRANCH   4  10
TORSDOF 4
ENDMDL
MODEL 4
REMARK VINA RESULT:      -6.9      0.849      1.425
REMARK  Name = 
REMARK  5 active torsions:
REMARK  status: ('A' for Active; 'I' for Inactive)
REMARK    1  A    between atoms: C_1  and  O_2
REMARK    2  A    between atoms: O_2  and  C_3
REMARK    3  A    between atoms: C_3  and  C_5
REMARK    4  A    between atoms: C_8  and  C_9
REMARK    5  A    between atoms: C_10  and  C_11
REMARK                            x       y       z     vdW  Elec       q    Type
REMARK                         _______ _______ _______ _____ _____    ______ ____
ROOT
ATOM      1  C   UNL     1       6.406   6.471  17.190  0.00  0.00    +0.000 A 
ATOM      2  C   UNL     1       7.231   5.891  18.128  0.00  0.00    +0.000 A 
ATOM      3  C   UNL     1       8.116   6.907  18.568  0.00  0.00    +0.000 A 
ATOM      4  C   UNL     1       7.797   8.075  17.885  0.00  0.00    +0.000 A 
ATOM      5  O   UNL     1       6.753   7.784  17.042  0.00  0.00    +0.000 OA
ENDROOT
BRANCH   1   6
ATOM      6  C   UNL     1       5.315   5.933  16.414  0.00  0.00    +0.000 C 
ATOM      7  O   UNL     1       4.244   5.546  16.865  0.00  0.00    +0.000 OA
BRANCH   6   9
ATOM      8  C   UNL     1       6.018   4.654  14.565  0.00  0.00    +0.000 C 
ATOM      9  O   UNL     1       5.646   5.925  15.089  0.00  0.00    +0.000 OA
ENDBRANCH   6   9
ENDBRANCH   1   6
BRANCH   4  10
ATOM     10  C   UNL     1       8.401   9.358  17.981  0.00  0.00    +0.000 C 
ATOM     11  C   UNL     1       9.192   9.671  19.022  0.00  0.00    +0.000 C 
BRANCH  11  12
ATOM     12  C   UNL     1       9.799  10.994  19.235  0.00  0.00    +0.000 A 
ATOM     13  C   UNL     1      10.230  11.724  18.118  0.00  0.00    +0.000 A 
ATOM     14  C   UNL     1      10.844  12.969  18.270  0.00  0.00    +0.000 A 
ATOM     15  C   UNL     1      11.022  13.507  19.543  0.00  0.00    +0.000 A 
ATOM     16  C   UNL     1      10.567  12.810  20.659  0.00  0.00    +0.000 A 
ATOM     17  C   UNL     1       9.951  11.566  20.506  0.00  0.00    +0.000 A 
ENDBRANCH  11  12
ENDBRANCH   4  10
TORSDOF 4
ENDMDL
MODEL 5
REMARK VINA RESULT:      -6.8      1.131      1.779
REMARK  Name = 
REMARK  5 active torsions:
REMARK  status: ('A' for Active; 'I' for Inactive)
REMARK    1  A    between atoms: C_1  and  O_2
REMARK    2  A    between atoms: O_2  and  C_3
REMARK    3  A    between atoms: C_3  and  C_5
REMARK    4  A    between atoms: C_8  and  C_9
REMARK    5  A    between atoms: C_10  and  C_11
REMARK                            x       y       z     vdW  Elec       q    Type
REMARK                         _______ _______ _______ _____ _____    ______ ____
ROOT
ATOM      1  C   UNL     1       6.768   5.594  15.889  0.00  0.00    +0.000 A 
ATOM      2  C   UNL     1       5.746   5.628  16.813  0.00  0.00    +0.000 A 
ATOM      3  C   UNL     1       6.134   6.561  17.806  0.00  0.00    +0.000 A 
ATOM      4  C   UNL     1       7.378   7.069  17.452  0.00  0.00    +0.000 A 
ATOM      5  O   UNL     1       7.751   6.458  16.279  0.00  0.00    +0.000 OA
ENDROOT
BRANCH   1   6
ATOM      6  C   UNL     1       6.926   4.844  14.667  0.00  0.00    +0.000 C 
ATOM      7  O   UNL     1       6.292   3.841  14.360  0.00  0.00    +0.000 OA
BRANCH   6   9
ATOM      8  C   UNL     1       7.767   5.171  12.491  0.00  0.00    +0.000 C 
ATOM      9  O   UNL     1       7.888   5.420  13.888  0.00  0.00    +0.000 OA
ENDBRANCH   6   9
ENDBRANCH   1   6
BRANCH   4  10
ATOM     10  C   UNL     1       8.177   8.030  18.131  0.00  0.00    +0.000 C 
ATOM     11  C   UNL     1       8.037   9.343  17.879  0.00  0.00    +0.000 C 
BRANCH  11  12
ATOM     12  C   UNL     1       8.868  10.396  18.483  0.00  0.00    +0.000 A 
ATOM     13  C   UNL     1       9.069  11.586  17.769  0.00  0.00    +0.000 A 
ATOM     14  C   UNL     1       9.879  12.601  18.285  0.00  0.00    +0.000 A 
ATOM     15  C   UNL     1      10.486  12.444  19.528  0.00  0.00    +0.000 A 
ATOM     16  C   UNL     1      10.267  11.282  20.265  0.00  0.00    +0.000 A 
ATOM     17  C   UNL     1       9.455  10.269  19.749  0.00  0.00    +0.000 A 
ENDBRANCH  11  12
ENDBRANCH   4  10
TORSDOF 4
ENDMDL
MODEL 6
REMARK VINA RESULT:      -6.7      0.850      1.497
REMARK  Name = 
REMARK  5 active torsions:
REMARK  status: ('A' for Active; 'I' for Inactive)
REMARK    1  A    between atoms: C_1  and  O_2
REMARK    2  A    between atoms: O_2  and  C_3
REMARK    3  A    between atoms: C_3  and  C_5
REMARK    4  A    between atoms: C_8  and  C_9
REMARK    5  A    between atoms: C_10  and  C_11
REMARK                            x       y       z     vdW  Elec       q    Type
REMARK                         _______ _______ _______ _____ _____    ______ ____
ROOT
ATOM      1  C   UNL     1       6.475   6.073  16.979  0.00  0.00    +0.000 A 
ATOM      2  C   UNL     1       7.238   5.590  18.020  0.00  0.00    +0.000 A 
ATOM      3  C   UNL     1       7.994   6.687  18.505  0.00  0.00    +0.000 A 
ATOM      4  C   UNL     1       7.662   7.803  17.746  0.00  0.00    +0.000 A 
ATOM      5  O   UNL     1       6.738   7.403  16.813  0.00  0.00    +0.000 OA
ENDROOT
BRANCH   1   6
ATOM      6  C   UNL     1       5.514   5.426  16.118  0.00  0.00    +0.000 C 
ATOM      7  O   UNL     1       5.547   5.421  14.893  0.00  0.00    +0.000 OA
BRANCH   6   9
ATOM      8  C   UNL     1       3.722   5.679  17.626  0.00  0.00    +0.000 C 
ATOM      9  O   UNL     1       4.558   4.807  16.871  0.00  0.00    +0.000 OA
ENDBRANCH   6   9
ENDBRANCH   1   6
BRANCH   4  10
ATOM     10  C   UNL     1       8.156   9.132  17.850  0.00  0.00    +0.000 C 
ATOM     11  C   UNL     1       8.953   9.492  18.871  0.00  0.00    +0.000 C 
BRANCH  11  12
ATOM     12  C   UNL     1       9.450  10.859  19.093  0.00  0.00    +0.000 A 
ATOM     13  C   UNL     1       9.981  11.186  20.349  0.00  0.00    +0.000 A 
ATOM     14  C   UNL     1      10.432  12.480  20.620  0.00  0.00    +0.000 A 
ATOM     15  C   UNL     1      10.372  13.460  19.632  0.00  0.00    +0.000 A 
ATOM     16  C   UNL     1       9.881  13.141  18.368  0.00  0.00    +0.000 A 
ATOM     17  C   UNL     1       9.431  11.846  18.098  0.00  0.00    +0.000 A 
ENDBRANCH  11  12
ENDBRANCH   4  10
TORSDOF 4
ENDMDL
MODEL 7
REMARK VINA RESULT:      -6.7      5.795      7.839
REMARK  Name = 
REMARK  5 active torsions:
REMARK  status: ('A' for Active; 'I' for Inactive)
REMARK    1  A    between atoms: C_1  and  O_2
REMARK    2  A    between atoms: O_2  and  C_3
REMARK    3  A    between atoms: C_3  and  C_5
REMARK    4  A    between atoms: C_8  and  C_9
REMARK    5  A    between atoms: C_10  and  C_11
REMARK                            x       y       z     vdW  Elec       q    Type
REMARK                         _______ _______ _______ _____ _____    ______ ____
ROOT
ATOM      1  C   UNL     1       6.435   4.062  13.874  0.00  0.00    +0.000 A 
ATOM      2  C   UNL     1       7.285   4.817  14.652  0.00  0.00    +0.000 A 
ATOM      3  C   UNL     1       6.752   4.794  15.965  0.00  0.00    +0.000 A 
ATOM      4  C   UNL     1       5.597   4.021  15.944  0.00  0.00    +0.000 A 
ATOM      5  O   UNL     1       5.417   3.590  14.653  0.00  0.00    +0.000 OA
ENDROOT
BRANCH   1   6
ATOM      6  C   UNL     1       6.471   3.723  12.471  0.00  0.00    +0.000 C 
ATOM      7  O   UNL     1       7.257   4.180  11.649  0.00  0.00    +0.000 OA
BRANCH   6   9
ATOM      8  C   UNL     1       4.420   3.288  11.397  0.00  0.00    +0.000 C 
ATOM      9  O   UNL     1       5.501   2.805  12.189  0.00  0.00    +0.000 OA
ENDBRANCH   6   9
ENDBRANCH   1   6
BRANCH   4  10
ATOM     10  C   UNL     1       4.714   3.706  17.013  0.00  0.00    +0.000 C 
ATOM     11  C   UNL     1       3.541   4.348  17.148  0.00  0.00    +0.000 C 
BRANCH  11  12
ATOM     12  C   UNL     1       2.602   4.134  18.261  0.00  0.00    +0.000 A 
ATOM     13  C   UNL     1       2.411   5.168  19.188  0.00  0.00    +0.000 A 
ATOM     14  C   UNL     1       1.558   5.000  20.281  0.00  0.00    +0.000 A 
ATOM     15  C   UNL     1       0.872   3.800  20.452  0.00  0.00    +0.000 A 
ATOM     16  C   UNL     1       1.024   2.777  19.520  0.00  0.00    +0.000 A 
ATOM     17  C   UNL     1       1.877   2.946  18.426  0.00  0.00    +0.000 A 
ENDBRANCH  11  12
ENDBRANCH   4  10
TORSDOF 4
ENDMDL
MODEL 8
REMARK VINA RESULT:      -6.7      5.783      7.763
REMARK  Name = 
REMARK  5 active torsions:
REMARK  status: ('A' for Active; 'I' for Inactive)
REMARK    1  A    between atoms: C_1  and  O_2
REMARK    2  A    between atoms: O_2  and  C_3
REMARK    3  A    between atoms: C_3  and  C_5
REMARK    4  A    between atoms: C_8  and  C_9
REMARK    5  A    between atoms: C_10  and  C_11
REMARK                            x       y       z     vdW  Elec       q    Type
REMARK                         _______ _______ _______ _____ _____    ______ ____
ROOT
ATOM      1  C   UNL     1       6.270   4.166  14.093  0.00  0.00    +0.000 A 
ATOM      2  C   UNL     1       7.087   4.796  15.005  0.00  0.00    +0.000 A 
ATOM      3  C   UNL     1       6.365   4.843  16.224  0.00  0.00    +0.000 A 
ATOM      4  C   UNL     1       5.134   4.235  16.014  0.00  0.00    +0.000 A 
ATOM      5  O   UNL     1       5.093   3.835  14.701  0.00  0.00    +0.000 OA
ENDROOT
BRANCH   1   6
ATOM      6  C   UNL     1       6.470   3.828  12.704  0.00  0.00    +0.000 C 
ATOM      7  O   UNL     1       7.299   4.339  11.960  0.00  0.00    +0.000 OA
BRANCH   6   9
ATOM      8  C   UNL     1       4.569   3.246  11.440  0.00  0.00    +0.000 C 
ATOM      9  O   UNL     1       5.602   2.842  12.335  0.00  0.00    +0.000 OA
ENDBRANCH   6   9
ENDBRANCH   1   6
BRANCH   4  10
ATOM     10  C   UNL     1       4.066   4.040  16.933  0.00  0.00    +0.000 C 
ATOM     11  C   UNL     1       4.289   4.048  18.259  0.00  0.00    +0.000 C 
BRANCH  11  12
ATOM     12  C   UNL     1       3.257   3.786  19.274  0.00  0.00    +0.000 A 
ATOM     13  C   UNL     1       3.551   2.898  20.318  0.00  0.00    +0.000 A 
ATOM     14  C   UNL     1       2.592   2.590  21.287  0.00  0.00    +0.000 A 
ATOM     15  C   UNL     1       1.331   3.178  21.230  0.00  0.00    +0.000 A 
ATOM     16  C   UNL     1       1.036   4.090  20.220  0.00  0.00    +0.000 A 
ATOM     17  C   UNL     1       1.997   4.399  19.253  0.00  0.00    +0.000 A 
ENDBRANCH  11  12
ENDBRANCH   4  10
TORSDOF 4
ENDMDL
MODEL 9
REMARK VINA RESULT:      -6.6      5.715      7.910
REMARK  Name = 
REMARK  5 active torsions:
REMARK  status: ('A' for Active; 'I' for Inactive)
REMARK    1  A    between atoms: C_1  and  O_2
REMARK    2  A    between atoms: O_2  and  C_3
REMARK    3  A    between atoms: C_3  and  C_5
REMARK    4  A    between atoms: C_8  and  C_9
REMARK    5  A    between atoms: C_10  and  C_11
REMARK                            x       y       z     vdW  Elec       q    Type
REMARK                         _______ _______ _______ _____ _____    ______ ____
ROOT
ATOM      1  C   UNL     1       6.346   4.272  13.924  0.00  0.00    +0.000 A 
ATOM      2  C   UNL     1       7.297   4.706  14.820  0.00  0.00    +0.000 A 
ATOM      3  C   UNL     1       6.626   4.899  16.054  0.00  0.00    +0.000 A 
ATOM      4  C   UNL     1       5.289   4.571  15.868  0.00  0.00    +0.000 A 
ATOM      5  O   UNL     1       5.138   4.197  14.556  0.00  0.00    +0.000 OA
ENDROOT
BRANCH   1   6
ATOM      6  C   UNL     1       6.442   3.908  12.530  0.00  0.00    +0.000 C 
ATOM      7  O   UNL     1       7.368   4.197  11.782  0.00  0.00    +0.000 OA
BRANCH   6   9
ATOM      8  C   UNL     1       5.627   1.962  11.483  0.00  0.00    +0.000 C 
ATOM      9  O   UNL     1       5.346   3.182  12.162  0.00  0.00    +0.000 OA
ENDBRANCH   6   9
ENDBRANCH   1   6
BRANCH   4  10
ATOM     10  C   UNL     1       4.223   4.604  16.808  0.00  0.00    +0.000 C 
ATOM     11  C   UNL     1       4.138   3.686  17.787  0.00  0.00    +0.000 C 
BRANCH  11  12
ATOM     12  C   UNL     1       3.034   3.606  18.756  0.00  0.00    +0.000 A 
ATOM     13  C   UNL     1       1.930   2.797  18.451  0.00  0.00    +0.000 A 
ATOM     14  C   UNL     1       0.841   2.716  19.322  0.00  0.00    +0.000 A 
ATOM     15  C   UNL     1       0.850   3.432  20.517  0.00  0.00    +0.000 A 
ATOM     16  C   UNL     1       1.955   4.211  20.850  0.00  0.00    +0.000 A 
ATOM     17  C   UNL     1       3.045   4.290  19.979  0.00  0.00    +0.000 A 
ENDBRANCH  11  12
ENDBRANCH   4  10
TORSDOF 4
ENDMDL
