MODEL 1
REMARK VINA RESULT:      -7.2      0.000      0.000
REMARK  Name = 
REMARK  3 active torsions:
REMARK  status: ('A' for Active; 'I' for Inactive)
REMARK    1  A    between atoms: C_1  and  C_2
REMARK    2  A    between atoms: C_2  and  N_3
REMARK    3  A    between atoms: C_13  and  C_15
REMARK                            x       y       z     vdW  Elec       q    Type
REMARK                         _______ _______ _______ _____ _____    ______ ____
ROOT
ATOM      1  N   UNL     1      -3.742  12.872  19.973  0.00  0.00    +0.000 N 
ATOM      2  C   UNL     1      -2.777  12.037  19.366  0.00  0.00    +0.000 A 
ATOM      3  C   UNL     1      -1.622  11.741  20.076  0.00  0.00    +0.000 A 
ATOM      4  C   UNL     1      -0.663  10.888  19.519  0.00  0.00    +0.000 A 
ATOM      5  C   UNL     1      -0.865  10.449  18.213  0.00  0.00    +0.000 A 
ATOM      6  N   UNL     1      -1.970  10.784  17.520  0.00  0.00    +0.000 NA
ATOM      7  N   UNL     1      -2.926  11.576  18.105  0.00  0.00    +0.000 NA
ATOM      8  C   UNL     1       0.098   9.512  17.541  0.00  0.00    +0.000 C 
ATOM      9  C   UNL     1       1.443   9.501  18.259  0.00  0.00    +0.000 C 
ATOM     10  N   UNL     1       1.222   9.339  19.694  0.00  0.00    +0.000 N 
ATOM     11  C   UNL     1       1.601   8.260  20.501  0.00  0.00    +0.000 C 
ATOM     12  O   UNL     1       1.498   8.356  21.726  0.00  0.00    +0.000 OA
ATOM     13  C   UNL     1       0.545  10.474  20.315  0.00  0.00    +0.000 C 
ATOM     14  H   UNL     1      -3.785  12.661  20.967  0.00  0.00    +0.000 HD
ENDROOT
BRANCH  11  15
ATOM     15  C   UNL     1       2.100   7.037  19.872  0.00  0.00    +0.000 A 
ATOM     16  C   UNL     1       2.811   6.836  18.699  0.00  0.00    +0.000 A 
ATOM     17  C   UNL     1       3.107   5.463  18.458  0.00  0.00    +0.000 A 
ATOM     18  C   UNL     1       2.523   4.655  19.406  0.00  0.00    +0.000 A 
ATOM     19  S   UNL     1       1.702   5.526  20.603  0.00  0.00    +0.000 S 
ATOM     20  C   UNL     1       2.541   3.163  19.336  0.00  0.00    +0.000 C 
ATOM     21  C   UNL     1       3.498   2.692  18.224  0.00  0.00    +0.000 C 
ATOM     22  O   UNL     1       3.457   3.525  17.052  0.00  0.00    +0.000 OA
ATOM     23  C   UNL     1       3.889   4.869  17.333  0.00  0.00    +0.000 C 
ENDBRANCH  11  15
BRANCH   1  25
ATOM     24  C   UNL     1      -6.048  12.215  20.382  0.00  0.00    +0.000 C 
ATOM     25  C   UNL     1      -5.060  12.742  19.354  0.00  0.00    +0.000 C 
ENDBRANCH   1  25
TORSDOF 2
ENDMDL
MODEL 2
REMARK VINA RESULT:      -7.0      4.189      8.679
REMARK  Name = 
REMARK  3 active torsions:
REMARK  status: ('A' for Active; 'I' for Inactive)
REMARK    1  A    between atoms: C_1  and  C_2
REMARK    2  A    between atoms: C_2  and  N_3
REMARK    3  A    between atoms: C_13  and  C_15
REMARK                            x       y       z     vdW  Elec       q    Type
REMARK                         _______ _______ _______ _____ _____    ______ ____
ROOT
ATOM      1  N   UNL     1       3.185   5.046  20.217  0.00  0.00    +0.000 N 
ATOM      2  C   UNL     1       2.818   6.255  19.585  0.00  0.00    +0.000 A 
ATOM      3  C   UNL     1       1.934   7.100  20.243  0.00  0.00    +0.000 A 
ATOM      4  C   UNL     1       1.578   8.322  19.662  0.00  0.00    +0.000 A 
ATOM      5  C   UNL     1       2.052   8.595  18.382  0.00  0.00    +0.000 A 
ATOM      6  N   UNL     1       2.871   7.743  17.737  0.00  0.00    +0.000 NA
ATOM      7  N   UNL     1       3.254   6.575  18.347  0.00  0.00    +0.000 NA
ATOM      8  C   UNL     1       1.741   9.891  17.689  0.00  0.00    +0.000 C 
ATOM      9  C   UNL     1       0.549  10.587  18.336  0.00  0.00    +0.000 C 
ATOM     10  N   UNL     1       0.736  10.615  19.785  0.00  0.00    +0.000 N 
ATOM     11  C   UNL     1       0.912  11.738  20.602  0.00  0.00    +0.000 C 
ATOM     12  O   UNL     1       0.879  11.604  21.828  0.00  0.00    +0.000 OA
ATOM     13  C   UNL     1       0.703   9.294  20.406  0.00  0.00    +0.000 C 
ATOM     14  H   UNL     1       3.271   5.207  21.216  0.00  0.00    +0.000 HD
ENDROOT
BRANCH  11  15
ATOM     15  C   UNL     1       1.142  13.044  19.985  0.00  0.00    +0.000 A 
ATOM     16  C   UNL     1       2.311  13.673  19.584  0.00  0.00    +0.000 A 
ATOM     17  C   UNL     1       2.081  14.958  19.013  0.00  0.00    +0.000 A 
ATOM     18  C   UNL     1       0.753  15.307  19.092  0.00  0.00    +0.000 A 
ATOM     19  S   UNL     1      -0.211  14.089  19.765  0.00  0.00    +0.000 S 
ATOM     20  C   UNL     1       0.233  16.653  18.704  0.00  0.00    +0.000 C 
ATOM     21  C   UNL     1       1.331  17.462  17.986  0.00  0.00    +0.000 C 
ATOM     22  O   UNL     1       2.639  17.268  18.553  0.00  0.00    +0.000 OA
ATOM     23  C   UNL     1       3.080  15.903  18.430  0.00  0.00    +0.000 C 
ENDBRANCH  11  15
BRANCH   1  25
ATOM     24  C   UNL     1       4.318   2.970  19.651  0.00  0.00    +0.000 C 
ATOM     25  C   UNL     1       4.420   4.486  19.670  0.00  0.00    +0.000 C 
ENDBRANCH   1  25
TORSDOF 2
ENDMDL
MODEL 3
REMARK VINA RESULT:      -7.0      4.009      8.677
REMARK  Name = 
REMARK  3 active torsions:
REMARK  status: ('A' for Active; 'I' for Inactive)
REMARK    1  A    between atoms: C_1  and  C_2
REMARK    2  A    between atoms: C_2  and  N_3
REMARK    3  A    between atoms: C_13  and  C_15
REMARK                            x       y       z     vdW  Elec       q    Type
REMARK                         _______ _______ _______ _____ _____    ______ ____
ROOT
ATOM      1  N   UNL     1       3.316   5.180  20.179  0.00  0.00    +0.000 N 
ATOM      2  C   UNL     1       2.831   6.369  19.589  0.00  0.00    +0.000 A 
ATOM      3  C   UNL     1       1.929   7.141  20.308  0.00  0.00    +0.000 A 
ATOM      4  C   UNL     1       1.457   8.343  19.770  0.00  0.00    +0.000 A 
ATOM      5  C   UNL     1       1.840   8.666  18.471  0.00  0.00    +0.000 A 
ATOM      6  N   UNL     1       2.680   7.883  17.768  0.00  0.00    +0.000 NA
ATOM      7  N   UNL     1       3.176   6.736  18.335  0.00  0.00    +0.000 NA
ATOM      8  C   UNL     1       1.403   9.947  17.818  0.00  0.00    +0.000 C 
ATOM      9  C   UNL     1       0.202  10.548  18.541  0.00  0.00    +0.000 C 
ATOM     10  N   UNL     1       0.466  10.569  19.978  0.00  0.00    +0.000 N 
ATOM     11  C   UNL     1       0.609  11.691  20.804  0.00  0.00    +0.000 C 
ATOM     12  O   UNL     1       0.653  11.538  22.027  0.00  0.00    +0.000 OA
ATOM     13  C   UNL     1       0.559   9.241  20.577  0.00  0.00    +0.000 C 
ATOM     14  H   UNL     1       3.445   5.333  21.175  0.00  0.00    +0.000 HD
ENDROOT
BRANCH  11  15
ATOM     15  C   UNL     1       0.714  13.017  20.198  0.00  0.00    +0.000 A 
ATOM     16  C   UNL     1      -0.250  13.974  19.917  0.00  0.00    +0.000 A 
ATOM     17  C   UNL     1       0.292  15.149  19.321  0.00  0.00    +0.000 A 
ATOM     18  C   UNL     1       1.638  15.006  19.076  0.00  0.00    +0.000 A 
ATOM     19  S   UNL     1       2.256  13.526  19.617  0.00  0.00    +0.000 S 
ATOM     20  C   UNL     1       2.448  16.017  18.332  0.00  0.00    +0.000 C 
ATOM     21  C   UNL     1       1.631  17.307  18.122  0.00  0.00    +0.000 C 
ATOM     22  O   UNL     1       0.244  17.057  17.833  0.00  0.00    +0.000 OA
ATOM     23  C   UNL     1      -0.422  16.399  18.927  0.00  0.00    +0.000 C 
ENDBRANCH  11  15
BRANCH   1  25
ATOM     24  C   UNL     1       4.440   3.230  19.259  0.00  0.00    +0.000 C 
ATOM     25  C   UNL     1       4.555   4.716  19.557  0.00  0.00    +0.000 C 
ENDBRANCH   1  25
TORSDOF 2
ENDMDL
MODEL 4
REMARK VINA RESULT:      -7.0      3.713      8.698
REMARK  Name = 
REMARK  3 active torsions:
REMARK  status: ('A' for Active; 'I' for Inactive)
REMARK    1  A    between atoms: C_1  and  C_2
REMARK    2  A    between atoms: C_2  and  N_3
REMARK    3  A    between atoms: C_13  and  C_15
REMARK                            x       y       z     vdW  Elec       q    Type
REMARK                         _______ _______ _______ _____ _____    ______ ____
ROOT
ATOM      1  N   UNL     1       4.258   4.912  19.358  0.00  0.00    +0.000 N 
ATOM      2  C   UNL     1       3.577   6.087  18.967  0.00  0.00    +0.000 A 
ATOM      3  C   UNL     1       2.651   6.634  19.844  0.00  0.00    +0.000 A 
ATOM      4  C   UNL     1       1.985   7.817  19.503  0.00  0.00    +0.000 A 
ATOM      5  C   UNL     1       2.209   8.345  18.235  0.00  0.00    +0.000 A 
ATOM      6  N   UNL     1       3.075   7.775  17.376  0.00  0.00    +0.000 NA
ATOM      7  N   UNL     1       3.760   6.647  17.751  0.00  0.00    +0.000 NA
ATOM      8  C   UNL     1       1.557   9.623  17.790  0.00  0.00    +0.000 C 
ATOM      9  C   UNL     1       0.358   9.962  18.670  0.00  0.00    +0.000 C 
ATOM     10  N   UNL     1       0.743   9.845  20.074  0.00  0.00    +0.000 N 
ATOM     11  C   UNL     1       0.814  10.866  21.029  0.00  0.00    +0.000 C 
ATOM     12  O   UNL     1       0.985  10.573  22.215  0.00  0.00    +0.000 OA
ATOM     13  C   UNL     1       1.056   8.479  20.484  0.00  0.00    +0.000 C 
ATOM     14  H   UNL     1       4.454   4.959  20.354  0.00  0.00    +0.000 HD
ENDROOT
BRANCH  11  15
ATOM     15  C   UNL     1       0.697  12.259  20.598  0.00  0.00    +0.000 A 
ATOM     16  C   UNL     1      -0.395  13.112  20.547  0.00  0.00    +0.000 A 
ATOM     17  C   UNL     1      -0.063  14.409  20.061  0.00  0.00    +0.000 A 
ATOM     18  C   UNL     1       1.252  14.469  19.663  0.00  0.00    +0.000 A 
ATOM     19  S   UNL     1       2.092  13.025  19.936  0.00  0.00    +0.000 S 
ATOM     20  C   UNL     1       1.850  15.656  18.981  0.00  0.00    +0.000 C 
ATOM     21  C   UNL     1       0.873  16.848  19.030  0.00  0.00    +0.000 C 
ATOM     22  O   UNL     1      -0.501  16.460  18.853  0.00  0.00    +0.000 OA
ATOM     23  C   UNL     1      -0.955  15.597  19.912  0.00  0.00    +0.000 C 
ENDBRANCH  11  15
BRANCH   1  25
ATOM     24  C   UNL     1       6.645   5.378  19.306  0.00  0.00    +0.000 C 
ATOM     25  C   UNL     1       5.486   4.701  18.593  0.00  0.00    +0.000 C 
ENDBRANCH   1  25
TORSDOF 2
ENDMDL
MODEL 5
REMARK VINA RESULT:      -7.0      3.641      8.677
REMARK  Name = 
REMARK  3 active torsions:
REMARK  status: ('A' for Active; 'I' for Inactive)
REMARK    1  A    between atoms: C_1  and  C_2
REMARK    2  A    between atoms: C_2  and  N_3
REMARK    3  A    between atoms: C_13  and  C_15
REMARK                            x       y       z     vdW  Elec       q    Type
REMARK                         _______ _______ _______ _____ _____    ______ ____
ROOT
ATOM      1  N   UNL     1       4.611   4.725  19.189  0.00  0.00    +0.000 N 
ATOM      2  C   UNL     1       3.885   5.888  18.849  0.00  0.00    +0.000 A 
ATOM      3  C   UNL     1       2.921   6.346  19.736  0.00  0.00    +0.000 A 
ATOM      4  C   UNL     1       2.209   7.516  19.447  0.00  0.00    +0.000 A 
ATOM      5  C   UNL     1       2.429   8.121  18.213  0.00  0.00    +0.000 A 
ATOM      6  N   UNL     1       3.335   7.637  17.342  0.00  0.00    +0.000 NA
ATOM      7  N   UNL     1       4.063   6.521  17.668  0.00  0.00    +0.000 NA
ATOM      8  C   UNL     1       1.729   9.392  17.825  0.00  0.00    +0.000 C 
ATOM      9  C   UNL     1       0.502   9.631  18.699  0.00  0.00    +0.000 C 
ATOM     10  N   UNL     1       0.869   9.454  20.102  0.00  0.00    +0.000 N 
ATOM     11  C   UNL     1       0.879  10.424  21.112  0.00  0.00    +0.000 C 
ATOM     12  O   UNL     1       1.044  10.075  22.283  0.00  0.00    +0.000 OA
ATOM     13  C   UNL     1       1.235   8.083  20.445  0.00  0.00    +0.000 C 
ATOM     14  H   UNL     1       4.788   4.726  20.190  0.00  0.00    +0.000 HD
ENDROOT
BRANCH  11  15
ATOM     15  C   UNL     1       0.707  11.832  20.754  0.00  0.00    +0.000 A 
ATOM     16  C   UNL     1       1.617  12.783  20.316  0.00  0.00    +0.000 A 
ATOM     17  C   UNL     1       1.017  14.052  20.071  0.00  0.00    +0.000 A 
ATOM     18  C   UNL     1      -0.312  14.051  20.426  0.00  0.00    +0.000 A 
ATOM     19  S   UNL     1      -0.850  12.541  20.971  0.00  0.00    +0.000 S 
ATOM     20  C   UNL     1      -1.165  15.277  20.414  0.00  0.00    +0.000 C 
ATOM     21  C   UNL     1      -0.424  16.437  19.720  0.00  0.00    +0.000 C 
ATOM     22  O   UNL     1       0.982  16.471  20.024  0.00  0.00    +0.000 OA
ATOM     23  C   UNL     1       1.662  15.294  19.551  0.00  0.00    +0.000 C 
ENDBRANCH  11  15
BRANCH   1  25
ATOM     24  C   UNL     1       6.926   5.466  19.099  0.00  0.00    +0.000 C 
ATOM     25  C   UNL     1       5.859   4.609  18.437  0.00  0.00    +0.000 C 
ENDBRANCH   1  25
TORSDOF 2
ENDMDL
MODEL 6
REMARK VINA RESULT:      -6.9      0.907      1.360
REMARK  Name = 
REMARK  3 active torsions:
REMARK  status: ('A' for Active; 'I' for Inactive)
REMARK    1  A    between atoms: C_1  and  C_2
REMARK    2  A    between atoms: C_2  and  N_3
REMARK    3  A    between atoms: C_13  and  C_15
REMARK                            x       y       z     vdW  Elec       q    Type
REMARK                         _______ _______ _______ _____ _____    ______ ____
ROOT
ATOM      1  N   UNL     1      -3.809  13.265  20.365  0.00  0.00    +0.000 N 
ATOM      2  C   UNL     1      -2.944  12.353  19.722  0.00  0.00    +0.000 A 
ATOM      3  C   UNL     1      -1.719  12.076  20.314  0.00  0.00    +0.000 A 
ATOM      4  C   UNL     1      -0.854  11.149  19.722  0.00  0.00    +0.000 A 
ATOM      5  C   UNL     1      -1.221  10.614  18.490  0.00  0.00    +0.000 A 
ATOM      6  N   UNL     1      -2.392  10.929  17.905  0.00  0.00    +0.000 NA
ATOM      7  N   UNL     1      -3.252  11.797  18.529  0.00  0.00    +0.000 NA
ATOM      8  C   UNL     1      -0.367   9.595  17.791  0.00  0.00    +0.000 C 
ATOM      9  C   UNL     1       1.054   9.597  18.345  0.00  0.00    +0.000 C 
ATOM     10  N   UNL     1       1.001   9.558  19.805  0.00  0.00    +0.000 N 
ATOM     11  C   UNL     1       1.448   8.534  20.649  0.00  0.00    +0.000 C 
ATOM     12  O   UNL     1       1.493   8.731  21.865  0.00  0.00    +0.000 OA
ATOM     13  C   UNL     1       0.430  10.761  20.403  0.00  0.00    +0.000 C 
ATOM     14  H   UNL     1      -3.739  13.136  21.371  0.00  0.00    +0.000 HD
ENDROOT
BRANCH  11  15
ATOM     15  C   UNL     1       1.840   7.249  20.071  0.00  0.00    +0.000 A 
ATOM     16  C   UNL     1       1.688   5.952  20.536  0.00  0.00    +0.000 A 
ATOM     17  C   UNL     1       2.216   4.977  19.642  0.00  0.00    +0.000 A 
ATOM     18  C   UNL     1       2.843   5.571  18.572  0.00  0.00    +0.000 A 
ATOM     19  S   UNL     1       2.736   7.260  18.598  0.00  0.00    +0.000 S 
ATOM     20  C   UNL     1       3.612   4.807  17.544  0.00  0.00    +0.000 C 
ATOM     21  C   UNL     1       3.379   3.294  17.718  0.00  0.00    +0.000 C 
ATOM     22  O   UNL     1       3.309   2.888  19.097  0.00  0.00    +0.000 OA
ATOM     23  C   UNL     1       2.193   3.490  19.777  0.00  0.00    +0.000 C 
ENDBRANCH  11  15
BRANCH   1  25
ATOM     24  C   UNL     1      -5.978  12.330  20.944  0.00  0.00    +0.000 C 
ATOM     25  C   UNL     1      -5.194  13.130  19.917  0.00  0.00    +0.000 C 
ENDBRANCH   1  25
TORSDOF 2
ENDMDL
MODEL 7
REMARK VINA RESULT:      -6.9      3.351      8.767
REMARK  Name = 
REMARK  3 active torsions:
REMARK  status: ('A' for Active; 'I' for Inactive)
REMARK    1  A    between atoms: C_1  and  C_2
REMARK    2  A    between atoms: C_2  and  N_3
REMARK    3  A    between atoms: C_13  and  C_15
REMARK                            x       y       z     vdW  Elec       q    Type
REMARK                         _______ _______ _______ _____ _____    ______ ____
ROOT
ATOM      1  N   UNL     1       3.227   6.874  18.132  0.00  0.00    +0.000 N 
ATOM      2  C   UNL     1       2.322   7.687  18.850  0.00  0.00    +0.000 A 
ATOM      3  C   UNL     1       1.829   8.828  18.233  0.00  0.00    +0.000 A 
ATOM      4  C   UNL     1       0.902   9.635  18.901  0.00  0.00    +0.000 A 
ATOM      5  C   UNL     1       0.589   9.309  20.218  0.00  0.00    +0.000 A 
ATOM      6  N   UNL     1       1.112   8.225  20.820  0.00  0.00    +0.000 NA
ATOM      7  N   UNL     1       1.977   7.414  20.128  0.00  0.00    +0.000 NA
ATOM      8  C   UNL     1      -0.413  10.104  21.007  0.00  0.00    +0.000 C 
ATOM      9  C   UNL     1      -0.648  11.472  20.374  0.00  0.00    +0.000 C 
ATOM     10  N   UNL     1      -0.884  11.305  18.942  0.00  0.00    +0.000 N 
ATOM     11  C   UNL     1      -2.060  11.579  18.233  0.00  0.00    +0.000 C 
ATOM     12  O   UNL     1      -2.040  11.553  17.000  0.00  0.00    +0.000 OA
ATOM     13  C   UNL     1       0.280  10.817  18.209  0.00  0.00    +0.000 C 
ATOM     14  H   UNL     1       2.952   6.854  17.154  0.00  0.00    +0.000 HD
ENDROOT
BRANCH  11  15
ATOM     15  C   UNL     1      -3.287  11.879  18.969  0.00  0.00    +0.000 A 
ATOM     16  C   UNL     1      -3.502  12.597  20.136  0.00  0.00    +0.000 A 
ATOM     17  C   UNL     1      -4.876  12.651  20.507  0.00  0.00    +0.000 A 
ATOM     18  C   UNL     1      -5.650  11.887  19.665  0.00  0.00    +0.000 A 
ATOM     19  S   UNL     1      -4.762  11.181  18.410  0.00  0.00    +0.000 S 
ATOM     20  C   UNL     1      -7.106  11.639  19.888  0.00  0.00    +0.000 C 
ATOM     21  C   UNL     1      -7.637  12.548  21.014  0.00  0.00    +0.000 C 
ATOM     22  O   UNL     1      -6.702  12.713  22.095  0.00  0.00    +0.000 OA
ATOM     23  C   UNL     1      -5.493  13.366  21.664  0.00  0.00    +0.000 C 
ENDBRANCH  11  15
BRANCH   1  25
ATOM     24  C   UNL     1       2.392   4.602  17.890  0.00  0.00    +0.000 C 
ATOM     25  C   UNL     1       3.313   5.520  18.678  0.00  0.00    +0.000 C 
ENDBRANCH   1  25
TORSDOF 2
ENDMDL
MODEL 8
REMARK VINA RESULT:      -6.9      1.606      2.250
REMARK  Name = 
REMARK  3 active torsions:
REMARK  status: ('A' for Active; 'I' for Inactive)
REMARK    1  A    between atoms: C_1  and  C_2
REMARK    2  A    between atoms: C_2  and  N_3
REMARK    3  A    between atoms: C_13  and  C_15
REMARK                            x       y       z     vdW  Elec       q    Type
REMARK                         _______ _______ _______ _____ _____    ______ ____
ROOT
ATOM      1  N   UNL     1      -6.136  12.753  19.533  0.00  0.00    +0.000 N 
ATOM      2  C   UNL     1      -5.055  12.025  18.988  0.00  0.00    +0.000 A 
ATOM      3  C   UNL     1      -3.770  12.338  19.409  0.00  0.00    +0.000 A 
ATOM      4  C   UNL     1      -2.680  11.612  18.917  0.00  0.00    +0.000 A 
ATOM      5  C   UNL     1      -2.927  10.660  17.932  0.00  0.00    +0.000 A 
ATOM      6  N   UNL     1      -4.175  10.400  17.499  0.00  0.00    +0.000 NA
ATOM      7  N   UNL     1      -5.237  11.085  18.035  0.00  0.00    +0.000 NA
ATOM      8  C   UNL     1      -1.822   9.816  17.362  0.00  0.00    +0.000 C 
ATOM      9  C   UNL     1      -0.457  10.434  17.646  0.00  0.00    +0.000 C 
ATOM     10  N   UNL     1      -0.379  10.797  19.059  0.00  0.00    +0.000 N 
ATOM     11  C   UNL     1       0.469  10.257  20.034  0.00  0.00    +0.000 C 
ATOM     12  O   UNL     1       0.535  10.797  21.141  0.00  0.00    +0.000 OA
ATOM     13  C   UNL     1      -1.293  11.870  19.440  0.00  0.00    +0.000 C 
ATOM     14  H   UNL     1      -5.946  12.946  20.512  0.00  0.00    +0.000 HD
ENDROOT
BRANCH  11  15
ATOM     15  C   UNL     1       1.247   9.059  19.723  0.00  0.00    +0.000 A 
ATOM     16  C   UNL     1       1.992   8.716  18.604  0.00  0.00    +0.000 A 
ATOM     17  C   UNL     1       2.605   7.436  18.718  0.00  0.00    +0.000 A 
ATOM     18  C   UNL     1       2.225   6.803  19.879  0.00  0.00    +0.000 A 
ATOM     19  S   UNL     1       1.214   7.753  20.849  0.00  0.00    +0.000 S 
ATOM     20  C   UNL     1       2.596   5.393  20.204  0.00  0.00    +0.000 C 
ATOM     21  C   UNL     1       3.644   4.872  19.202  0.00  0.00    +0.000 C 
ATOM     22  O   UNL     1       3.413   5.324  17.856  0.00  0.00    +0.000 OA
ATOM     23  C   UNL     1       3.512   6.756  17.746  0.00  0.00    +0.000 C 
ENDBRANCH  11  15
BRANCH   1  25
ATOM     24  C   UNL     1      -7.597  11.082  20.526  0.00  0.00    +0.000 C 
ATOM     25  C   UNL     1      -7.412  12.057  19.375  0.00  0.00    +0.000 C 
ENDBRANCH   1  25
TORSDOF 2
ENDMDL
MODEL 9
REMARK VINA RESULT:      -6.9      3.514      8.719
REMARK  Name = 
REMARK  3 active torsions:
REMARK  status: ('A' for Active; 'I' for Inactive)
REMARK    1  A    between atoms: C_1  and  C_2
REMARK    2  A    between atoms: C_2  and  N_3
REMARK    3  A    between atoms: C_13  and  C_15
REMARK                            x       y       z     vdW  Elec       q    Type
REMARK                         _______ _______ _______ _____ _____    ______ ____
ROOT
ATOM      1  N   UNL     1       2.948   6.473  17.787  0.00  0.00    +0.000 N 
ATOM      2  C   UNL     1       2.336   7.266  18.783  0.00  0.00    +0.000 A 
ATOM      3  C   UNL     1       1.956   8.559  18.453  0.00  0.00    +0.000 A 
ATOM      4  C   UNL     1       1.314   9.359  19.405  0.00  0.00    +0.000 A 
ATOM      5  C   UNL     1       1.175   8.850  20.694  0.00  0.00    +0.000 A 
ATOM      6  N   UNL     1       1.592   7.609  21.010  0.00  0.00    +0.000 NA
ATOM      7  N   UNL     1       2.169   6.820  20.047  0.00  0.00    +0.000 NA
ATOM      8  C   UNL     1       0.478   9.627  21.774  0.00  0.00    +0.000 C 
ATOM      9  C   UNL     1       0.386  11.106  21.414  0.00  0.00    +0.000 C 
ATOM     10  N   UNL     1      -0.115  11.237  20.048  0.00  0.00    +0.000 N 
ATOM     11  C   UNL     1      -1.326  11.805  19.632  0.00  0.00    +0.000 C 
ATOM     12  O   UNL     1      -1.520  11.999  18.430  0.00  0.00    +0.000 OA
ATOM     13  C   UNL     1       0.804  10.725  19.035  0.00  0.00    +0.000 C 
ATOM     14  H   UNL     1       2.512   6.671  16.891  0.00  0.00    +0.000 HD
ENDROOT
BRANCH  11  15
ATOM     15  C   UNL     1      -2.338  12.143  20.632  0.00  0.00    +0.000 A 
ATOM     16  C   UNL     1      -2.308  12.096  22.018  0.00  0.00    +0.000 A 
ATOM     17  C   UNL     1      -3.528  12.526  22.614  0.00  0.00    +0.000 A 
ATOM     18  C   UNL     1      -4.482  12.792  21.658  0.00  0.00    +0.000 A 
ATOM     19  S   UNL     1      -3.905  12.602  20.078  0.00  0.00    +0.000 S 
ATOM     20  C   UNL     1      -5.900  13.126  21.986  0.00  0.00    +0.000 C 
ATOM     21  C   UNL     1      -6.054  13.375  23.499  0.00  0.00    +0.000 C 
ATOM     22  O   UNL     1      -5.261  12.483  24.303  0.00  0.00    +0.000 OA
ATOM     23  C   UNL     1      -3.852  12.658  24.065  0.00  0.00    +0.000 C 
ENDBRANCH  11  15
BRANCH   1  25
ATOM     24  C   UNL     1       1.543   4.493  17.637  0.00  0.00    +0.000 C 
ATOM     25  C   UNL     1       2.883   5.045  18.095  0.00  0.00    +0.000 C 
ENDBRANCH   1  25
TORSDOF 2
ENDMDL
