MODEL 1
REMARK VINA RESULT:      -7.3      0.000      0.000
REMARK  Name = 
REMARK  7 active torsions:
REMARK  status: ('A' for Active; 'I' for Inactive)
REMARK    1  A    between atoms: C_1  and  C_2
REMARK    2  A    between atoms: C_2  and  S_3
REMARK    3  A    between atoms: S_3  and  C_6
REMARK    4  A    between atoms: N_12  and  C_13
REMARK    5  A    between atoms: C_16  and  C_17
REMARK    6  A    between atoms: C_17  and  C_18
REMARK    7  A    between atoms: C_17  and  C_19
REMARK                            x       y       z     vdW  Elec       q    Type
REMARK                         _______ _______ _______ _____ _____    ______ ____
ROOT
ATOM      1  C   UNL     1       4.232   5.561  17.279  0.00  0.00    +0.000 A 
ATOM      2  C   UNL     1       3.672   4.322  17.632  0.00  0.00    +0.000 A 
ATOM      3  C   UNL     1       2.753   4.221  18.685  0.00  0.00    +0.000 A 
ATOM      4  C   UNL     1       2.432   5.416  19.320  0.00  0.00    +0.000 A 
ATOM      5  O   UNL     1       1.540   5.613  20.332  0.00  0.00    +0.000 OA
ATOM      6  C   UNL     1       1.551   6.974  20.530  0.00  0.00    +0.000 A 
ATOM      7  N   UNL     1       0.640   7.424  21.409  0.00  0.00    +0.000 N 
ATOM      8  N   UNL     1       2.414   7.617  19.771  0.00  0.00    +0.000 NA
ATOM      9  C   UNL     1       2.973   6.648  18.992  0.00  0.00    +0.000 A 
ATOM     10  C   UNL     1       3.917   6.740  17.969  0.00  0.00    +0.000 A 
ATOM     11  H   UNL     1       0.066   6.721  21.855  0.00  0.00    +0.000 HD
ENDROOT
BRANCH   7  12
ATOM     12  C   UNL     1       0.147   8.739  21.503  0.00  0.00    +0.000 A 
ATOM     13  C   UNL     1      -0.176   9.252  22.768  0.00  0.00    +0.000 A 
ATOM     14  C   UNL     1      -0.693  10.545  22.920  0.00  0.00    +0.000 A 
ATOM     15  C   UNL     1      -0.891  11.372  21.808  0.00  0.00    +0.000 A 
ATOM     16  C   UNL     1      -0.587  10.860  20.543  0.00  0.00    +0.000 A 
ATOM     17  C   UNL     1      -0.071   9.567  20.396  0.00  0.00    +0.000 A 
BRANCH  15  18
ATOM     18  C   UNL     1      -1.374  12.800  21.994  0.00  0.00    +0.000 C 
ATOM     19  C   UNL     1      -2.216  12.927  23.268  0.00  0.00    +0.000 C 
ATOM     20  C   UNL     1      -0.222  13.808  22.002  0.00  0.00    +0.000 C 
ENDBRANCH  15  18
ENDBRANCH   7  12
BRANCH   1  21
ATOM     21  S   UNL     1       5.356   5.670  15.901  0.00  0.00    +0.000 S 
ATOM     22  O   UNL     1       5.052   6.903  15.199  0.00  0.00    +0.000 OA
ATOM     23  O   UNL     1       5.307   4.388  15.226  0.00  0.00    +0.000 OA
BRANCH  21  25
ATOM     24  C   UNL     1       7.460   4.546  17.241  0.00  0.00    +0.000 C 
ATOM     25  C   UNL     1       6.955   5.858  16.674  0.00  0.00    +0.000 C 
ENDBRANCH  21  25
ENDBRANCH   1  21
TORSDOF 4
ENDMDL
MODEL 2
REMARK VINA RESULT:      -7.2      3.518      8.920
REMARK  Name = 
REMARK  7 active torsions:
REMARK  status: ('A' for Active; 'I' for Inactive)
REMARK    1  A    between atoms: C_1  and  C_2
REMARK    2  A    between atoms: C_2  and  S_3
REMARK    3  A    between atoms: S_3  and  C_6
REMARK    4  A    between atoms: N_12  and  C_13
REMARK    5  A    between atoms: C_16  and  C_17
REMARK    6  A    between atoms: C_17  and  C_18
REMARK    7  A    between atoms: C_17  and  C_19
REMARK                            x       y       z     vdW  Elec       q    Type
REMARK                         _______ _______ _______ _____ _____    ______ ____
ROOT
ATOM      1  C   UNL     1       0.227  10.930  19.232  0.00  0.00    +0.000 A 
ATOM      2  C   UNL     1       0.368  10.686  20.609  0.00  0.00    +0.000 A 
ATOM      3  C   UNL     1       0.987   9.518  21.074  0.00  0.00    +0.000 A 
ATOM      4  C   UNL     1       1.458   8.655  20.090  0.00  0.00    +0.000 A 
ATOM      5  O   UNL     1       2.136   7.484  20.258  0.00  0.00    +0.000 OA
ATOM      6  C   UNL     1       2.429   7.077  18.977  0.00  0.00    +0.000 A 
ATOM      7  N   UNL     1       3.217   5.991  18.896  0.00  0.00    +0.000 N 
ATOM      8  N   UNL     1       1.938   7.863  18.042  0.00  0.00    +0.000 NA
ATOM      9  C   UNL     1       1.329   8.872  18.728  0.00  0.00    +0.000 A 
ATOM     10  C   UNL     1       0.678  10.017  18.269  0.00  0.00    +0.000 A 
ATOM     11  H   UNL     1       3.486   5.570  19.774  0.00  0.00    +0.000 HD
ENDROOT
BRANCH   7  12
ATOM     12  C   UNL     1       3.995   5.605  17.788  0.00  0.00    +0.000 A 
ATOM     13  C   UNL     1       4.130   4.239  17.501  0.00  0.00    +0.000 A 
ATOM     14  C   UNL     1       4.911   3.794  16.426  0.00  0.00    +0.000 A 
ATOM     15  C   UNL     1       5.574   4.707  15.597  0.00  0.00    +0.000 A 
ATOM     16  C   UNL     1       5.457   6.069  15.890  0.00  0.00    +0.000 A 
ATOM     17  C   UNL     1       4.676   6.508  16.965  0.00  0.00    +0.000 A 
BRANCH  15  18
ATOM     18  C   UNL     1       6.350   4.216  14.387  0.00  0.00    +0.000 C 
ATOM     19  C   UNL     1       5.400   3.877  13.234  0.00  0.00    +0.000 C 
ATOM     20  C   UNL     1       7.416   5.216  13.934  0.00  0.00    +0.000 C 
ENDBRANCH  15  18
ENDBRANCH   7  12
BRANCH   1  21
ATOM     21  S   UNL     1      -0.514  12.448  18.668  0.00  0.00    +0.000 S 
ATOM     22  O   UNL     1      -1.532  12.091  17.697  0.00  0.00    +0.000 OA
ATOM     23  O   UNL     1       0.578  13.337  18.322  0.00  0.00    +0.000 OA
BRANCH  21  25
ATOM     24  C   UNL     1      -2.808  12.710  20.136  0.00  0.00    +0.000 C 
ATOM     25  C   UNL     1      -1.339  13.081  20.120  0.00  0.00    +0.000 C 
ENDBRANCH  21  25
ENDBRANCH   1  21
TORSDOF 4
ENDMDL
MODEL 3
REMARK VINA RESULT:      -7.2      2.453      3.645
REMARK  Name = 
REMARK  7 active torsions:
REMARK  status: ('A' for Active; 'I' for Inactive)
REMARK    1  A    between atoms: C_1  and  C_2
REMARK    2  A    between atoms: C_2  and  S_3
REMARK    3  A    between atoms: S_3  and  C_6
REMARK    4  A    between atoms: N_12  and  C_13
REMARK    5  A    between atoms: C_16  and  C_17
REMARK    6  A    between atoms: C_17  and  C_18
REMARK    7  A    between atoms: C_17  and  C_19
REMARK                            x       y       z     vdW  Elec       q    Type
REMARK                         _______ _______ _______ _____ _____    ______ ____
ROOT
ATOM      1  C   UNL     1       3.665   4.340  18.425  0.00  0.00    +0.000 A 
ATOM      2  C   UNL     1       4.778   4.833  17.724  0.00  0.00    +0.000 A 
ATOM      3  C   UNL     1       4.804   6.152  17.251  0.00  0.00    +0.000 A 
ATOM      4  C   UNL     1       3.680   6.919  17.543  0.00  0.00    +0.000 A 
ATOM      5  O   UNL     1       3.463   8.232  17.249  0.00  0.00    +0.000 OA
ATOM      6  C   UNL     1       2.244   8.508  17.823  0.00  0.00    +0.000 A 
ATOM      7  N   UNL     1       1.875   9.800  17.770  0.00  0.00    +0.000 N 
ATOM      8  N   UNL     1       1.671   7.466  18.388  0.00  0.00    +0.000 NA
ATOM      9  C   UNL     1       2.571   6.454  18.229  0.00  0.00    +0.000 A 
ATOM     10  C   UNL     1       2.531   5.129  18.665  0.00  0.00    +0.000 A 
ATOM     11  H   UNL     1       2.509  10.424  17.291  0.00  0.00    +0.000 HD
ENDROOT
BRANCH   7  12
ATOM     12  C   UNL     1       0.929  10.433  18.598  0.00  0.00    +0.000 A 
ATOM     13  C   UNL     1      -0.434  10.277  18.308  0.00  0.00    +0.000 A 
ATOM     14  C   UNL     1      -1.420  10.903  19.083  0.00  0.00    +0.000 A 
ATOM     15  C   UNL     1      -1.070  11.697  20.182  0.00  0.00    +0.000 A 
ATOM     16  C   UNL     1       0.289  11.871  20.463  0.00  0.00    +0.000 A 
ATOM     17  C   UNL     1       1.269  11.243  19.687  0.00  0.00    +0.000 A 
BRANCH  15  18
ATOM     18  C   UNL     1      -2.150  12.302  21.061  0.00  0.00    +0.000 C 
ATOM     19  C   UNL     1      -1.873  12.009  22.540  0.00  0.00    +0.000 C 
ATOM     20  C   UNL     1      -2.317  13.805  20.829  0.00  0.00    +0.000 C 
ENDBRANCH  15  18
ENDBRANCH   7  12
BRANCH   1  21
ATOM     21  S   UNL     1       3.680   2.677  19.063  0.00  0.00    +0.000 S 
ATOM     22  O   UNL     1       4.809   2.577  19.969  0.00  0.00    +0.000 OA
ATOM     23  O   UNL     1       3.551   1.795  17.920  0.00  0.00    +0.000 OA
BRANCH  21  25
ATOM     24  C   UNL     1       2.464   2.804  21.511  0.00  0.00    +0.000 C 
ATOM     25  C   UNL     1       2.186   2.585  20.037  0.00  0.00    +0.000 C 
ENDBRANCH  21  25
ENDBRANCH   1  21
TORSDOF 4
ENDMDL
MODEL 4
REMARK VINA RESULT:      -7.2      2.471      3.707
REMARK  Name = 
REMARK  7 active torsions:
REMARK  status: ('A' for Active; 'I' for Inactive)
REMARK    1  A    between atoms: C_1  and  C_2
REMARK    2  A    between atoms: C_2  and  S_3
REMARK    3  A    between atoms: S_3  and  C_6
REMARK    4  A    between atoms: N_12  and  C_13
REMARK    5  A    between atoms: C_16  and  C_17
REMARK    6  A    between atoms: C_17  and  C_18
REMARK    7  A    between atoms: C_17  and  C_19
REMARK                            x       y       z     vdW  Elec       q    Type
REMARK                         _______ _______ _______ _____ _____    ______ ____
ROOT
ATOM      1  C   UNL     1       3.631   4.247  18.515  0.00  0.00    +0.000 A 
ATOM      2  C   UNL     1       4.786   4.705  17.862  0.00  0.00    +0.000 A 
ATOM      3  C   UNL     1       4.867   6.018  17.378  0.00  0.00    +0.000 A 
ATOM      4  C   UNL     1       3.751   6.815  17.611  0.00  0.00    +0.000 A 
ATOM      5  O   UNL     1       3.580   8.130  17.295  0.00  0.00    +0.000 OA
ATOM      6  C   UNL     1       2.343   8.442  17.810  0.00  0.00    +0.000 A 
ATOM      7  N   UNL     1       2.009   9.741  17.728  0.00  0.00    +0.000 N 
ATOM      8  N   UNL     1       1.719   7.420  18.358  0.00  0.00    +0.000 NA
ATOM      9  C   UNL     1       2.600   6.384  18.250  0.00  0.00    +0.000 A 
ATOM     10  C   UNL     1       2.507   5.066  18.695  0.00  0.00    +0.000 A 
ATOM     11  H   UNL     1       2.679  10.345  17.274  0.00  0.00    +0.000 HD
ENDROOT
BRANCH   7  12
ATOM     12  C   UNL     1       1.042  10.406  18.506  0.00  0.00    +0.000 A 
ATOM     13  C   UNL     1       1.460  11.410  19.391  0.00  0.00    +0.000 A 
ATOM     14  C   UNL     1       0.546  12.088  20.207  0.00  0.00    +0.000 A 
ATOM     15  C   UNL     1      -0.821  11.789  20.154  0.00  0.00    +0.000 A 
ATOM     16  C   UNL     1      -1.241  10.776  19.287  0.00  0.00    +0.000 A 
ATOM     17  C   UNL     1      -0.323  10.101  18.473  0.00  0.00    +0.000 A 
BRANCH  15  18
ATOM     18  C   UNL     1      -1.811  12.588  20.983  0.00  0.00    +0.000 C 
ATOM     19  C   UNL     1      -3.170  12.669  20.279  0.00  0.00    +0.000 C 
ATOM     20  C   UNL     1      -1.967  12.032  22.400  0.00  0.00    +0.000 C 
ENDBRANCH  15  18
ENDBRANCH   7  12
BRANCH   1  21
ATOM     21  S   UNL     1       3.575   2.590  19.169  0.00  0.00    +0.000 S 
ATOM     22  O   UNL     1       4.706   2.448  20.067  0.00  0.00    +0.000 OA
ATOM     23  O   UNL     1       3.397   1.705  18.035  0.00  0.00    +0.000 OA
BRANCH  21  25
ATOM     24  C   UNL     1       2.384   2.811  21.622  0.00  0.00    +0.000 C 
ATOM     25  C   UNL     1       2.086   2.575  20.154  0.00  0.00    +0.000 C 
ENDBRANCH  21  25
ENDBRANCH   1  21
TORSDOF 4
ENDMDL
MODEL 5
REMARK VINA RESULT:      -7.1      2.383      3.510
REMARK  Name = 
REMARK  7 active torsions:
REMARK  status: ('A' for Active; 'I' for Inactive)
REMARK    1  A    between atoms: C_1  and  C_2
REMARK    2  A    between atoms: C_2  and  S_3
REMARK    3  A    between atoms: S_3  and  C_6
REMARK    4  A    between atoms: N_12  and  C_13
REMARK    5  A    between atoms: C_16  and  C_17
REMARK    6  A    between atoms: C_17  and  C_18
REMARK    7  A    between atoms: C_17  and  C_19
REMARK                            x       y       z     vdW  Elec       q    Type
REMARK                         _______ _______ _______ _____ _____    ______ ____
ROOT
ATOM      1  C   UNL     1       3.609   5.050  18.523  0.00  0.00    +0.000 A 
ATOM      2  C   UNL     1       4.500   5.526  17.547  0.00  0.00    +0.000 A 
ATOM      3  C   UNL     1       4.369   6.818  17.020  0.00  0.00    +0.000 A 
ATOM      4  C   UNL     1       3.328   7.578  17.542  0.00  0.00    +0.000 A 
ATOM      5  O   UNL     1       3.005   8.869  17.249  0.00  0.00    +0.000 OA
ATOM      6  C   UNL     1       1.955   9.153  18.091  0.00  0.00    +0.000 A 
ATOM      7  N   UNL     1       1.545  10.433  18.069  0.00  0.00    +0.000 N 
ATOM      8  N   UNL     1       1.571   8.133  18.829  0.00  0.00    +0.000 NA
ATOM      9  C   UNL     1       2.435   7.130  18.502  0.00  0.00    +0.000 A 
ATOM     10  C   UNL     1       2.544   5.830  18.997  0.00  0.00    +0.000 A 
ATOM     11  H   UNL     1       2.022  11.042  17.420  0.00  0.00    +0.000 HD
ENDROOT
BRANCH   7  12
ATOM     12  C   UNL     1       0.811  11.092  19.073  0.00  0.00    +0.000 A 
ATOM     13  C   UNL     1      -0.569  10.858  19.166  0.00  0.00    +0.000 A 
ATOM     14  C   UNL     1      -1.354  11.504  20.129  0.00  0.00    +0.000 A 
ATOM     15  C   UNL     1      -0.779  12.399  21.040  0.00  0.00    +0.000 A 
ATOM     16  C   UNL     1       0.593  12.650  20.940  0.00  0.00    +0.000 A 
ATOM     17  C   UNL     1       1.373  12.002  19.975  0.00  0.00    +0.000 A 
BRANCH  15  18
ATOM     18  C   UNL     1      -1.626  13.028  22.131  0.00  0.00    +0.000 C 
ATOM     19  C   UNL     1      -2.248  11.951  23.027  0.00  0.00    +0.000 C 
ATOM     20  C   UNL     1      -0.841  14.041  22.968  0.00  0.00    +0.000 C 
ENDBRANCH  15  18
ENDBRANCH   7  12
BRANCH   1  21
ATOM     21  S   UNL     1       3.831   3.424  19.216  0.00  0.00    +0.000 S 
ATOM     22  O   UNL     1       5.212   3.332  19.652  0.00  0.00    +0.000 OA
ATOM     23  O   UNL     1       3.279   2.488  18.257  0.00  0.00    +0.000 OA
BRANCH  21  25
ATOM     24  C   UNL     1       1.563   2.577  20.491  0.00  0.00    +0.000 C 
ATOM     25  C   UNL     1       2.795   3.441  20.671  0.00  0.00    +0.000 C 
ENDBRANCH  21  25
ENDBRANCH   1  21
TORSDOF 4
ENDMDL
MODEL 6
REMARK VINA RESULT:      -7.1      2.197      3.333
REMARK  Name = 
REMARK  7 active torsions:
REMARK  status: ('A' for Active; 'I' for Inactive)
REMARK    1  A    between atoms: C_1  and  C_2
REMARK    2  A    between atoms: C_2  and  S_3
REMARK    3  A    between atoms: S_3  and  C_6
REMARK    4  A    between atoms: N_12  and  C_13
REMARK    5  A    between atoms: C_16  and  C_17
REMARK    6  A    between atoms: C_17  and  C_18
REMARK    7  A    between atoms: C_17  and  C_19
REMARK                            x       y       z     vdW  Elec       q    Type
REMARK                         _______ _______ _______ _____ _____    ______ ____
ROOT
ATOM      1  C   UNL     1       3.769   5.244  18.616  0.00  0.00    +0.000 A 
ATOM      2  C   UNL     1       4.414   5.724  17.464  0.00  0.00    +0.000 A 
ATOM      3  C   UNL     1       4.098   6.982  16.933  0.00  0.00    +0.000 A 
ATOM      4  C   UNL     1       3.136   7.705  17.631  0.00  0.00    +0.000 A 
ATOM      5  O   UNL     1       2.679   8.962  17.367  0.00  0.00    +0.000 OA
ATOM      6  C   UNL     1       1.804   9.224  18.395  0.00  0.00    +0.000 A 
ATOM      7  N   UNL     1       1.316  10.477  18.415  0.00  0.00    +0.000 N 
ATOM      8  N   UNL     1       1.641   8.218  19.228  0.00  0.00    +0.000 NA
ATOM      9  C   UNL     1       2.485   7.252  18.765  0.00  0.00    +0.000 A 
ATOM     10  C   UNL     1       2.774   5.983  19.270  0.00  0.00    +0.000 A 
ATOM     11  H   UNL     1       1.614  11.082  17.664  0.00  0.00    +0.000 HD
ENDROOT
BRANCH   7  12
ATOM     12  C   UNL     1       0.758  11.138  19.526  0.00  0.00    +0.000 A 
ATOM     13  C   UNL     1      -0.417  10.628  20.096  0.00  0.00    +0.000 A 
ATOM     14  C   UNL     1      -1.031  11.257  21.186  0.00  0.00    +0.000 A 
ATOM     15  C   UNL     1      -0.479  12.414  21.749  0.00  0.00    +0.000 A 
ATOM     16  C   UNL     1       0.683  12.937  21.173  0.00  0.00    +0.000 A 
ATOM     17  C   UNL     1       1.292  12.305  20.083  0.00  0.00    +0.000 A 
BRANCH  15  18
ATOM     18  C   UNL     1      -1.108  13.039  22.982  0.00  0.00    +0.000 C 
ATOM     19  C   UNL     1      -0.926  14.561  22.973  0.00  0.00    +0.000 C 
ATOM     20  C   UNL     1      -2.585  12.671  23.134  0.00  0.00    +0.000 C 
ENDBRANCH  15  18
ENDBRANCH   7  12
BRANCH   1  21
ATOM     21  S   UNL     1       4.230   3.666  19.302  0.00  0.00    +0.000 S 
ATOM     22  O   UNL     1       3.342   3.412  20.422  0.00  0.00    +0.000 OA
ATOM     23  O   UNL     1       5.668   3.695  19.473  0.00  0.00    +0.000 OA
BRANCH  21  25
ATOM     24  C   UNL     1       2.324   2.369  17.828  0.00  0.00    +0.000 C 
ATOM     25  C   UNL     1       3.823   2.507  18.006  0.00  0.00    +0.000 C 
ENDBRANCH  21  25
ENDBRANCH   1  21
TORSDOF 4
ENDMDL
MODEL 7
REMARK VINA RESULT:      -7.1      3.461      8.740
REMARK  Name = 
REMARK  7 active torsions:
REMARK  status: ('A' for Active; 'I' for Inactive)
REMARK    1  A    between atoms: C_1  and  C_2
REMARK    2  A    between atoms: C_2  and  S_3
REMARK    3  A    between atoms: S_3  and  C_6
REMARK    4  A    between atoms: N_12  and  C_13
REMARK    5  A    between atoms: C_16  and  C_17
REMARK    6  A    between atoms: C_17  and  C_18
REMARK    7  A    between atoms: C_17  and  C_19
REMARK                            x       y       z     vdW  Elec       q    Type
REMARK                         _______ _______ _______ _____ _____    ______ ____
ROOT
ATOM      1  C   UNL     1       0.880  10.728  19.889  0.00  0.00    +0.000 A 
ATOM      2  C   UNL     1       0.789  10.176  21.177  0.00  0.00    +0.000 A 
ATOM      3  C   UNL     1       1.141   8.841  21.416  0.00  0.00    +0.000 A 
ATOM      4  C   UNL     1       1.598   8.133  20.309  0.00  0.00    +0.000 A 
ATOM      5  O   UNL     1       2.049   6.846  20.266  0.00  0.00    +0.000 OA
ATOM      6  C   UNL     1       2.445   6.672  18.961  0.00  0.00    +0.000 A 
ATOM      7  N   UNL     1       3.051   5.500  18.707  0.00  0.00    +0.000 N 
ATOM      8  N   UNL     1       2.221   7.717  18.191  0.00  0.00    +0.000 NA
ATOM      9  C   UNL     1       1.694   8.653  19.030  0.00  0.00    +0.000 A 
ATOM     10  C   UNL     1       1.306   9.971  18.788  0.00  0.00    +0.000 A 
ATOM     11  H   UNL     1       3.125   4.860  19.484  0.00  0.00    +0.000 HD
ENDROOT
BRANCH   7  12
ATOM     12  C   UNL     1       3.902   5.217  17.621  0.00  0.00    +0.000 A 
ATOM     13  C   UNL     1       4.098   3.880  17.247  0.00  0.00    +0.000 A 
ATOM     14  C   UNL     1       4.952   3.537  16.190  0.00  0.00    +0.000 A 
ATOM     15  C   UNL     1       5.628   4.526  15.466  0.00  0.00    +0.000 A 
ATOM     16  C   UNL     1       5.450   5.860  15.847  0.00  0.00    +0.000 A 
ATOM     17  C   UNL     1       4.596   6.197  16.903  0.00  0.00    +0.000 A 
BRANCH  15  18
ATOM     18  C   UNL     1       6.485   4.147  14.271  0.00  0.00    +0.000 C 
ATOM     19  C   UNL     1       5.611   3.704  13.094  0.00  0.00    +0.000 C 
ATOM     20  C   UNL     1       7.430   5.275  13.850  0.00  0.00    +0.000 C 
ENDBRANCH  15  18
ENDBRANCH   7  12
BRANCH   1  21
ATOM     21  S   UNL     1       0.478  12.443  19.623  0.00  0.00    +0.000 S 
ATOM     22  O   UNL     1      -0.932  12.602  19.925  0.00  0.00    +0.000 OA
ATOM     23  O   UNL     1       1.014  12.795  18.324  0.00  0.00    +0.000 OA
BRANCH  21  25
ATOM     24  C   UNL     1       2.666  13.929  20.321  0.00  0.00    +0.000 C 
ATOM     25  C   UNL     1       1.410  13.296  20.885  0.00  0.00    +0.000 C 
ENDBRANCH  21  25
ENDBRANCH   1  21
TORSDOF 4
ENDMDL
MODEL 8
REMARK VINA RESULT:      -7.1      1.570      1.770
REMARK  Name = 
REMARK  7 active torsions:
REMARK  status: ('A' for Active; 'I' for Inactive)
REMARK    1  A    between atoms: C_1  and  C_2
REMARK    2  A    between atoms: C_2  and  S_3
REMARK    3  A    between atoms: S_3  and  C_6
REMARK    4  A    between atoms: N_12  and  C_13
REMARK    5  A    between atoms: C_16  and  C_17
REMARK    6  A    between atoms: C_17  and  C_18
REMARK    7  A    between atoms: C_17  and  C_19
REMARK                            x       y       z     vdW  Elec       q    Type
REMARK                         _______ _______ _______ _____ _____    ______ ____
ROOT
ATOM      1  C   UNL     1       5.224   4.800  17.143  0.00  0.00    +0.000 A 
ATOM      2  C   UNL     1       4.531   3.608  17.412  0.00  0.00    +0.000 A 
ATOM      3  C   UNL     1       3.495   3.574  18.355  0.00  0.00    +0.000 A 
ATOM      4  C   UNL     1       3.201   4.787  18.969  0.00  0.00    +0.000 A 
ATOM      5  O   UNL     1       2.220   5.048  19.879  0.00  0.00    +0.000 OA
ATOM      6  C   UNL     1       2.317   6.402  20.099  0.00  0.00    +0.000 A 
ATOM      7  N   UNL     1       1.351   6.917  20.880  0.00  0.00    +0.000 N 
ATOM      8  N   UNL     1       3.307   6.979  19.451  0.00  0.00    +0.000 NA
ATOM      9  C   UNL     1       3.871   5.973  18.723  0.00  0.00    +0.000 A 
ATOM     10  C   UNL     1       4.928   5.996  17.813  0.00  0.00    +0.000 A 
ATOM     11  H   UNL     1       0.678   6.260  21.247  0.00  0.00    +0.000 HD
ENDROOT
BRANCH   7  12
ATOM     12  C   UNL     1       0.958   8.268  20.939  0.00  0.00    +0.000 A 
ATOM     13  C   UNL     1       0.420   8.763  22.137  0.00  0.00    +0.000 A 
ATOM     14  C   UNL     1      -0.011  10.091  22.247  0.00  0.00    +0.000 A 
ATOM     15  C   UNL     1       0.094  10.971  21.163  0.00  0.00    +0.000 A 
ATOM     16  C   UNL     1       0.612  10.477  19.962  0.00  0.00    +0.000 A 
ATOM     17  C   UNL     1       1.041   9.149  19.856  0.00  0.00    +0.000 A 
BRANCH  15  18
ATOM     18  C   UNL     1      -0.300  12.429  21.321  0.00  0.00    +0.000 C 
ATOM     19  C   UNL     1      -0.942  12.672  22.692  0.00  0.00    +0.000 C 
ATOM     20  C   UNL     1       0.878  13.379  21.099  0.00  0.00    +0.000 C 
ENDBRANCH  15  18
ENDBRANCH   7  12
BRANCH   1  21
ATOM     21  S   UNL     1       6.500   4.829  15.900  0.00  0.00    +0.000 S 
ATOM     22  O   UNL     1       7.750   4.512  16.565  0.00  0.00    +0.000 OA
ATOM     23  O   UNL     1       6.331   6.066  15.164  0.00  0.00    +0.000 OA
BRANCH  21  25
ATOM     24  C   UNL     1       5.879   3.906  13.401  0.00  0.00    +0.000 C 
ATOM     25  C   UNL     1       6.082   3.458  14.834  0.00  0.00    +0.000 C 
ENDBRANCH  21  25
ENDBRANCH   1  21
TORSDOF 4
ENDMDL
MODEL 9
REMARK VINA RESULT:      -7.1      2.226      3.285
REMARK  Name = 
REMARK  7 active torsions:
REMARK  status: ('A' for Active; 'I' for Inactive)
REMARK    1  A    between atoms: C_1  and  C_2
REMARK    2  A    between atoms: C_2  and  S_3
REMARK    3  A    between atoms: S_3  and  C_6
REMARK    4  A    between atoms: N_12  and  C_13
REMARK    5  A    between atoms: C_16  and  C_17
REMARK    6  A    between atoms: C_17  and  C_18
REMARK    7  A    between atoms: C_17  and  C_19
REMARK                            x       y       z     vdW  Elec       q    Type
REMARK                         _______ _______ _______ _____ _____    ______ ____
ROOT
ATOM      1  C   UNL     1       3.770   5.199  18.627  0.00  0.00    +0.000 A 
ATOM      2  C   UNL     1       4.609   5.732  17.634  0.00  0.00    +0.000 A 
ATOM      3  C   UNL     1       4.359   6.996  17.081  0.00  0.00    +0.000 A 
ATOM      4  C   UNL     1       3.257   7.670  17.598  0.00  0.00    +0.000 A 
ATOM      5  O   UNL     1       2.817   8.921  17.280  0.00  0.00    +0.000 OA
ATOM      6  C   UNL     1       1.752   9.128  18.126  0.00  0.00    +0.000 A 
ATOM      7  N   UNL     1       1.228  10.365  18.081  0.00  0.00    +0.000 N 
ATOM      8  N   UNL     1       1.466   8.092  18.887  0.00  0.00    +0.000 NA
ATOM      9  C   UNL     1       2.415   7.165  18.574  0.00  0.00    +0.000 A 
ATOM     10  C   UNL     1       2.643   5.891  19.094  0.00  0.00    +0.000 A 
ATOM     11  H   UNL     1       1.645  11.001  17.416  0.00  0.00    +0.000 HD
ENDROOT
BRANCH   7  12
ATOM     12  C   UNL     1       0.445  10.976  19.078  0.00  0.00    +0.000 A 
ATOM     13  C   UNL     1       0.850  10.868  20.417  0.00  0.00    +0.000 A 
ATOM     14  C   UNL     1       0.097  11.436  21.453  0.00  0.00    +0.000 A 
ATOM     15  C   UNL     1      -1.081  12.141  21.180  0.00  0.00    +0.000 A 
ATOM     16  C   UNL     1      -1.499  12.236  19.849  0.00  0.00    +0.000 A 
ATOM     17  C   UNL     1      -0.744  11.667  18.817  0.00  0.00    +0.000 A 
BRANCH  15  18
ATOM     18  C   UNL     1      -1.843  12.821  22.304  0.00  0.00    +0.000 C 
ATOM     19  C   UNL     1      -2.391  11.787  23.293  0.00  0.00    +0.000 C 
ATOM     20  C   UNL     1      -0.997  13.869  23.030  0.00  0.00    +0.000 C 
ENDBRANCH  15  18
ENDBRANCH   7  12
BRANCH   1  21
ATOM     21  S   UNL     1       4.142   3.615  19.352  0.00  0.00    +0.000 S 
ATOM     22  O   UNL     1       3.201   3.411  20.437  0.00  0.00    +0.000 OA
ATOM     23  O   UNL     1       5.573   3.592  19.581  0.00  0.00    +0.000 OA
BRANCH  21  25
ATOM     24  C   UNL     1       2.288   2.548  17.646  0.00  0.00    +0.000 C 
ATOM     25  C   UNL     1       3.745   2.454  18.054  0.00  0.00    +0.000 C 
ENDBRANCH  21  25
ENDBRANCH   1  21
TORSDOF 4
ENDMDL
