MODEL 1
REMARK VINA RESULT:      -6.7      0.000      0.000
REMARK  Name = 
REMARK  5 active torsions:
REMARK  status: ('A' for Active; 'I' for Inactive)
REMARK    1  A    between atoms: C_1  and  C_2
REMARK    2  A    between atoms: C_4  and  C_5
REMARK    3  A    between atoms: N_7  and  C_8
REMARK    4  A    between atoms: N_11  and  C_12
REMARK    5  A    between atoms: C_17  and  C_18
REMARK                            x       y       z     vdW  Elec       q    Type
REMARK                         _______ _______ _______ _____ _____    ______ ____
ROOT
ATOM      1  C   UNL     1       7.720   6.625  17.767  0.00  0.00    +0.000 C 
ATOM      2  C   UNL     1       6.449   7.015  17.001  0.00  0.00    +0.000 C 
ATOM      3  C   UNL     1       5.124   6.857  17.754  0.00  0.00    +0.000 C 
ATOM      4  N   UNL     1       5.088   5.703  18.653  0.00  0.00    +0.000 N 
ATOM      5  C   UNL     1       6.280   5.463  19.463  0.00  0.00    +0.000 C 
ATOM      6  C   UNL     1       7.507   5.350  18.576  0.00  0.00    +0.000 C 
ENDROOT
BRANCH   4   7
ATOM      7  C   UNL     1       4.197   4.657  18.427  0.00  0.00    +0.000 A 
ATOM      8  N   UNL     1       4.590   3.643  17.617  0.00  0.00    +0.000 NA
ATOM      9  C   UNL     1       3.758   2.585  17.432  0.00  0.00    +0.000 A 
ATOM     10  C   UNL     1       2.515   2.462  18.023  0.00  0.00    +0.000 A 
ATOM     11  C   UNL     1       2.082   3.508  18.820  0.00  0.00    +0.000 A 
ATOM     12  C   UNL     1       2.913   4.622  19.009  0.00  0.00    +0.000 A 
BRANCH  12  13
ATOM     13  C   UNL     1       2.378   5.722  19.748  0.00  0.00    +0.000 C 
ATOM     14  N   UNL     1       1.934   6.594  20.379  0.00  0.00    +0.000 NA
ENDBRANCH  12  13
ENDBRANCH   4   7
BRANCH   1  17
ATOM     15  C   UNL     1       8.287   9.005  18.131  0.00  0.00    +0.000 C 
ATOM     16  O   UNL     1       7.678   9.341  17.117  0.00  0.00    +0.000 OA
ATOM     17  N   UNL     1       8.304   7.689  18.588  0.00  0.00    +0.000 N 
ATOM     18  H   UNL     1       8.953   7.481  19.343  0.00  0.00    +0.000 HD
BRANCH  15  22
ATOM     19  C   UNL     1      11.506  12.629  19.657  0.00  0.00    +0.000 C 
ATOM     20  C   UNL     1      10.496  11.571  19.468  0.00  0.00    +0.000 A 
ATOM     21  C   UNL     1      10.012  10.900  18.375  0.00  0.00    +0.000 A 
ATOM     22  C   UNL     1       9.065   9.978  18.902  0.00  0.00    +0.000 A 
ATOM     23  N   UNL     1       8.980  10.099  20.239  0.00  0.00    +0.000 NA
ATOM     24  O   UNL     1       9.876  11.102  20.585  0.00  0.00    +0.000 OA
ENDBRANCH  15  22
ENDBRANCH   1  17
TORSDOF 4
ENDMDL
MODEL 2
REMARK VINA RESULT:      -6.7      1.064      1.998
REMARK  Name = 
REMARK  5 active torsions:
REMARK  status: ('A' for Active; 'I' for Inactive)
REMARK    1  A    between atoms: C_1  and  C_2
REMARK    2  A    between atoms: C_4  and  C_5
REMARK    3  A    between atoms: N_7  and  C_8
REMARK    4  A    between atoms: N_11  and  C_12
REMARK    5  A    between atoms: C_17  and  C_18
REMARK                            x       y       z     vdW  Elec       q    Type
REMARK                         _______ _______ _______ _____ _____    ______ ____
ROOT
ATOM      1  C   UNL     1       7.593   6.653  17.608  0.00  0.00    +0.000 C 
ATOM      2  C   UNL     1       6.194   7.008  17.088  0.00  0.00    +0.000 C 
ATOM      3  C   UNL     1       5.021   6.709  18.028  0.00  0.00    +0.000 C 
ATOM      4  N   UNL     1       5.197   5.497  18.828  0.00  0.00    +0.000 N 
ATOM      5  C   UNL     1       6.517   5.284  19.416  0.00  0.00    +0.000 C 
ATOM      6  C   UNL     1       7.586   5.314  18.338  0.00  0.00    +0.000 C 
ENDROOT
BRANCH   4   7
ATOM      7  C   UNL     1       4.340   4.411  18.666  0.00  0.00    +0.000 A 
ATOM      8  N   UNL     1       3.530   4.073  19.701  0.00  0.00    +0.000 NA
ATOM      9  C   UNL     1       2.646   3.055  19.541  0.00  0.00    +0.000 A 
ATOM     10  C   UNL     1       2.506   2.323  18.377  0.00  0.00    +0.000 A 
ATOM     11  C   UNL     1       3.353   2.629  17.326  0.00  0.00    +0.000 A 
ATOM     12  C   UNL     1       4.291   3.662  17.473  0.00  0.00    +0.000 A 
BRANCH  12  13
ATOM     13  C   UNL     1       5.216   3.867  16.403  0.00  0.00    +0.000 C 
ATOM     14  N   UNL     1       5.963   3.997  15.520  0.00  0.00    +0.000 NA
ENDBRANCH  12  13
ENDBRANCH   4   7
BRANCH   1  17
ATOM     15  C   UNL     1       8.170   9.025  18.001  0.00  0.00    +0.000 C 
ATOM     16  O   UNL     1       7.463   9.389  17.063  0.00  0.00    +0.000 OA
ATOM     17  N   UNL     1       8.243   7.695  18.406  0.00  0.00    +0.000 N 
ATOM     18  H   UNL     1       8.965   7.469  19.087  0.00  0.00    +0.000 HD
BRANCH  15  22
ATOM     19  C   UNL     1      11.519  12.606  19.339  0.00  0.00    +0.000 C 
ATOM     20  C   UNL     1      10.490  11.556  19.210  0.00  0.00    +0.000 A 
ATOM     21  C   UNL     1       9.921  10.907  18.146  0.00  0.00    +0.000 A 
ATOM     22  C   UNL     1       9.010   9.981  18.727  0.00  0.00    +0.000 A 
ATOM     23  N   UNL     1       9.027  10.079  20.068  0.00  0.00    +0.000 NA
ATOM     24  O   UNL     1       9.954  11.071  20.362  0.00  0.00    +0.000 OA
ENDBRANCH  15  22
ENDBRANCH   1  17
TORSDOF 4
ENDMDL
MODEL 3
REMARK VINA RESULT:      -6.7      1.581      1.843
REMARK  Name = 
REMARK  5 active torsions:
REMARK  status: ('A' for Active; 'I' for Inactive)
REMARK    1  A    between atoms: C_1  and  C_2
REMARK    2  A    between atoms: C_4  and  C_5
REMARK    3  A    between atoms: N_7  and  C_8
REMARK    4  A    between atoms: N_11  and  C_12
REMARK    5  A    between atoms: C_17  and  C_18
REMARK                            x       y       z     vdW  Elec       q    Type
REMARK                         _______ _______ _______ _____ _____    ______ ____
ROOT
ATOM      1  C   UNL     1       6.269   6.108  17.026  0.00  0.00    +0.000 C 
ATOM      2  C   UNL     1       4.865   6.142  16.407  0.00  0.00    +0.000 C 
ATOM      3  C   UNL     1       3.700   6.371  17.375  0.00  0.00    +0.000 C 
ATOM      4  N   UNL     1       3.885   5.747  18.686  0.00  0.00    +0.000 N 
ATOM      5  C   UNL     1       5.209   5.869  19.289  0.00  0.00    +0.000 C 
ATOM      6  C   UNL     1       6.272   5.339  18.343  0.00  0.00    +0.000 C 
ENDROOT
BRANCH   4   7
ATOM      7  C   UNL     1       3.032   4.734  19.114  0.00  0.00    +0.000 A 
ATOM      8  N   UNL     1       3.194   3.494  18.589  0.00  0.00    +0.000 NA
ATOM      9  C   UNL     1       2.411   2.479  19.038  0.00  0.00    +0.000 A 
ATOM     10  C   UNL     1       1.441   2.619  20.013  0.00  0.00    +0.000 A 
ATOM     11  C   UNL     1       1.235   3.887  20.529  0.00  0.00    +0.000 A 
ATOM     12  C   UNL     1       2.016   4.956  20.066  0.00  0.00    +0.000 A 
BRANCH  12  13
ATOM     13  C   UNL     1       1.692   6.263  20.547  0.00  0.00    +0.000 C 
ATOM     14  N   UNL     1       1.460   7.341  20.921  0.00  0.00    +0.000 NA
ENDBRANCH  12  13
ENDBRANCH   4   7
BRANCH   1  17
ATOM     15  C   UNL     1       7.926   7.587  18.113  0.00  0.00    +0.000 C 
ATOM     16  O   UNL     1       8.393   6.649  18.757  0.00  0.00    +0.000 OA
ATOM     17  N   UNL     1       6.920   7.412  17.166  0.00  0.00    +0.000 N 
ATOM     18  H   UNL     1       6.495   8.260  16.797  0.00  0.00    +0.000 HD
BRANCH  15  22
ATOM     19  C   UNL     1       8.944  12.554  17.767  0.00  0.00    +0.000 C 
ATOM     20  C   UNL     1       8.774  11.126  18.100  0.00  0.00    +0.000 A 
ATOM     21  C   UNL     1       8.119  10.081  17.505  0.00  0.00    +0.000 A 
ATOM     22  C   UNL     1       8.386   8.959  18.339  0.00  0.00    +0.000 A 
ATOM     23  N   UNL     1       9.153   9.318  19.383  0.00  0.00    +0.000 NA
ATOM     24  O   UNL     1       9.388  10.678  19.229  0.00  0.00    +0.000 OA
ENDBRANCH  15  22
ENDBRANCH   1  17
TORSDOF 4
ENDMDL
MODEL 4
REMARK VINA RESULT:      -6.6      0.984      1.019
REMARK  Name = 
REMARK  5 active torsions:
REMARK  status: ('A' for Active; 'I' for Inactive)
REMARK    1  A    between atoms: C_1  and  C_2
REMARK    2  A    between atoms: C_4  and  C_5
REMARK    3  A    between atoms: N_7  and  C_8
REMARK    4  A    between atoms: N_11  and  C_12
REMARK    5  A    between atoms: C_17  and  C_18
REMARK                            x       y       z     vdW  Elec       q    Type
REMARK                         _______ _______ _______ _____ _____    ______ ____
ROOT
ATOM      1  C   UNL     1       7.494   6.185  17.698  0.00  0.00    +0.000 C 
ATOM      2  C   UNL     1       6.265   6.418  16.809  0.00  0.00    +0.000 C 
ATOM      3  C   UNL     1       4.904   6.406  17.512  0.00  0.00    +0.000 C 
ATOM      4  N   UNL     1       4.814   5.447  18.615  0.00  0.00    +0.000 N 
ATOM      5  C   UNL     1       5.963   5.371  19.514  0.00  0.00    +0.000 C 
ATOM      6  C   UNL     1       7.231   5.090  18.726  0.00  0.00    +0.000 C 
ENDROOT
BRANCH   4   7
ATOM      7  C   UNL     1       3.926   4.376  18.551  0.00  0.00    +0.000 A 
ATOM      8  N   UNL     1       4.250   3.320  17.763  0.00  0.00    +0.000 NA
ATOM      9  C   UNL     1       3.427   2.241  17.735  0.00  0.00    +0.000 A 
ATOM     10  C   UNL     1       2.258   2.136  18.466  0.00  0.00    +0.000 A 
ATOM     11  C   UNL     1       1.892   3.222  19.243  0.00  0.00    +0.000 A 
ATOM     12  C   UNL     1       2.715   4.358  19.272  0.00  0.00    +0.000 A 
BRANCH  12  13
ATOM     13  C   UNL     1       2.241   5.493  20.000  0.00  0.00    +0.000 C 
ATOM     14  N   UNL     1       1.871   6.403  20.625  0.00  0.00    +0.000 NA
ENDBRANCH  12  13
ENDBRANCH   4   7
BRANCH   1  17
ATOM     15  C   UNL     1       7.783   8.640  17.775  0.00  0.00    +0.000 C 
ATOM     16  O   UNL     1       6.989   8.797  16.849  0.00  0.00    +0.000 OA
ATOM     17  N   UNL     1       8.045   7.388  18.326  0.00  0.00    +0.000 N 
ATOM     18  H   UNL     1       8.823   7.336  18.980  0.00  0.00    +0.000 HD
BRANCH  15  22
ATOM     19  C   UNL     1      10.606  11.738  20.649  0.00  0.00    +0.000 C 
ATOM     20  C   UNL     1       9.775  11.043  19.647  0.00  0.00    +0.000 A 
ATOM     21  C   UNL     1       9.295   9.765  19.528  0.00  0.00    +0.000 A 
ATOM     22  C   UNL     1       8.529   9.772  18.329  0.00  0.00    +0.000 A 
ATOM     23  N   UNL     1       8.558  10.988  17.756  0.00  0.00    +0.000 NA
ATOM     24  O   UNL     1       9.343  11.778  18.586  0.00  0.00    +0.000 OA
ENDBRANCH  15  22
ENDBRANCH   1  17
TORSDOF 4
ENDMDL
MODEL 5
REMARK VINA RESULT:      -6.6      4.592      6.382
REMARK  Name = 
REMARK  5 active torsions:
REMARK  status: ('A' for Active; 'I' for Inactive)
REMARK    1  A    between atoms: C_1  and  C_2
REMARK    2  A    between atoms: C_4  and  C_5
REMARK    3  A    between atoms: N_7  and  C_8
REMARK    4  A    between atoms: N_11  and  C_12
REMARK    5  A    between atoms: C_17  and  C_18
REMARK                            x       y       z     vdW  Elec       q    Type
REMARK                         _______ _______ _______ _____ _____    ______ ____
ROOT
ATOM      1  C   UNL     1       4.235   4.586  17.905  0.00  0.00    +0.000 C 
ATOM      2  C   UNL     1       2.714   4.408  17.998  0.00  0.00    +0.000 C 
ATOM      3  C   UNL     1       1.867   5.664  17.769  0.00  0.00    +0.000 C 
ATOM      4  N   UNL     1       2.473   6.892  18.286  0.00  0.00    +0.000 N 
ATOM      5  C   UNL     1       3.902   7.070  18.043  0.00  0.00    +0.000 C 
ATOM      6  C   UNL     1       4.681   5.880  18.576  0.00  0.00    +0.000 C 
ENDROOT
BRANCH   4   7
ATOM      7  C   UNL     1       1.863   7.604  19.315  0.00  0.00    +0.000 A 
ATOM      8  N   UNL     1       1.574   8.913  19.106  0.00  0.00    +0.000 NA
ATOM      9  C   UNL     1       0.925   9.608  20.075  0.00  0.00    +0.000 A 
ATOM     10  C   UNL     1       0.528   9.070  21.284  0.00  0.00    +0.000 A 
ATOM     11  C   UNL     1       0.852   7.746  21.530  0.00  0.00    +0.000 A 
ATOM     12  C   UNL     1       1.541   7.012  20.554  0.00  0.00    +0.000 A 
BRANCH  12  13
ATOM     13  C   UNL     1       1.950   5.686  20.896  0.00  0.00    +0.000 C 
ATOM     14  N   UNL     1       2.309   4.621  21.199  0.00  0.00    +0.000 NA
ENDBRANCH  12  13
ENDBRANCH   4   7
BRANCH   1  17
ATOM     15  C   UNL     1       6.176   4.510  16.374  0.00  0.00    +0.000 C 
ATOM     16  O   UNL     1       6.965   4.521  17.317  0.00  0.00    +0.000 OA
ATOM     17  N   UNL     1       4.796   4.460  16.558  0.00  0.00    +0.000 N 
ATOM     18  H   UNL     1       4.224   4.607  15.729  0.00  0.00    +0.000 HD
BRANCH  15  22
ATOM     19  C   UNL     1       7.034   3.773  11.419  0.00  0.00    +0.000 C 
ATOM     20  C   UNL     1       6.955   4.189  12.833  0.00  0.00    +0.000 A 
ATOM     21  C   UNL     1       6.208   3.779  13.906  0.00  0.00    +0.000 A 
ATOM     22  C   UNL     1       6.652   4.585  14.990  0.00  0.00    +0.000 A 
ATOM     23  N   UNL     1       7.608   5.440  14.585  0.00  0.00    +0.000 NA
ATOM     24  O   UNL     1       7.789   5.188  13.231  0.00  0.00    +0.000 OA
ENDBRANCH  15  22
ENDBRANCH   1  17
TORSDOF 4
ENDMDL
MODEL 6
REMARK VINA RESULT:      -6.6      1.423      1.653
REMARK  Name = 
REMARK  5 active torsions:
REMARK  status: ('A' for Active; 'I' for Inactive)
REMARK    1  A    between atoms: C_1  and  C_2
REMARK    2  A    between atoms: C_4  and  C_5
REMARK    3  A    between atoms: N_7  and  C_8
REMARK    4  A    between atoms: N_11  and  C_12
REMARK    5  A    between atoms: C_17  and  C_18
REMARK                            x       y       z     vdW  Elec       q    Type
REMARK                         _______ _______ _______ _____ _____    ______ ____
ROOT
ATOM      1  C   UNL     1       7.068   5.812  17.066  0.00  0.00    +0.000 C 
ATOM      2  C   UNL     1       6.019   5.478  15.997  0.00  0.00    +0.000 C 
ATOM      3  C   UNL     1       4.554   5.704  16.386  0.00  0.00    +0.000 C 
ATOM      4  N   UNL     1       4.260   5.409  17.789  0.00  0.00    +0.000 N 
ATOM      5  C   UNL     1       5.231   5.878  18.776  0.00  0.00    +0.000 C 
ATOM      6  C   UNL     1       6.616   5.349  18.446  0.00  0.00    +0.000 C 
ENDROOT
BRANCH   4   7
ATOM      7  C   UNL     1       3.388   4.378  18.129  0.00  0.00    +0.000 A 
ATOM      8  N   UNL     1       3.499   3.199  17.466  0.00  0.00    +0.000 NA
ATOM      9  C   UNL     1       2.697   2.164  17.824  0.00  0.00    +0.000 A 
ATOM     10  C   UNL     1       1.758   2.221  18.836  0.00  0.00    +0.000 A 
ATOM     11  C   UNL     1       1.604   3.430  19.494  0.00  0.00    +0.000 A 
ATOM     12  C   UNL     1       2.405   4.521  19.129  0.00  0.00    +0.000 A 
BRANCH  12  13
ATOM     13  C   UNL     1       2.134   5.775  19.760  0.00  0.00    +0.000 C 
ATOM     14  N   UNL     1       1.893   6.777  20.301  0.00  0.00    +0.000 NA
ENDBRANCH  12  13
ENDBRANCH   4   7
BRANCH   1  17
ATOM     15  C   UNL     1       8.203   7.698  18.193  0.00  0.00    +0.000 C 
ATOM     16  O   UNL     1       8.584   6.969  19.107  0.00  0.00    +0.000 OA
ATOM     17  N   UNL     1       7.510   7.208  17.088  0.00  0.00    +0.000 N 
ATOM     18  H   UNL     1       7.108   7.903  16.463  0.00  0.00    +0.000 HD
BRANCH  15  22
ATOM     19  C   UNL     1       9.774  12.398  19.322  0.00  0.00    +0.000 C 
ATOM     20  C   UNL     1       9.180  11.152  18.801  0.00  0.00    +0.000 A 
ATOM     21  C   UNL     1       9.333   9.824  19.104  0.00  0.00    +0.000 A 
ATOM     22  C   UNL     1       8.433   9.144  18.237  0.00  0.00    +0.000 A 
ATOM     23  N   UNL     1       7.783  10.019  17.449  0.00  0.00    +0.000 NA
ATOM     24  O   UNL     1       8.260  11.274  17.806  0.00  0.00    +0.000 OA
ENDBRANCH  15  22
ENDBRANCH   1  17
TORSDOF 4
ENDMDL
MODEL 7
REMARK VINA RESULT:      -6.5      1.487      1.712
REMARK  Name = 
REMARK  5 active torsions:
REMARK  status: ('A' for Active; 'I' for Inactive)
REMARK    1  A    between atoms: C_1  and  C_2
REMARK    2  A    between atoms: C_4  and  C_5
REMARK    3  A    between atoms: N_7  and  C_8
REMARK    4  A    between atoms: N_11  and  C_12
REMARK    5  A    between atoms: C_17  and  C_18
REMARK                            x       y       z     vdW  Elec       q    Type
REMARK                         _______ _______ _______ _____ _____    ______ ____
ROOT
ATOM      1  C   UNL     1       5.918   6.629  17.168  0.00  0.00    +0.000 C 
ATOM      2  C   UNL     1       4.459   6.700  16.699  0.00  0.00    +0.000 C 
ATOM      3  C   UNL     1       3.386   6.504  17.775  0.00  0.00    +0.000 C 
ATOM      4  N   UNL     1       3.754   5.538  18.811  0.00  0.00    +0.000 N 
ATOM      5  C   UNL     1       5.121   5.612  19.321  0.00  0.00    +0.000 C 
ATOM      6  C   UNL     1       6.118   5.505  18.179  0.00  0.00    +0.000 C 
ENDROOT
BRANCH   4   7
ATOM      7  C   UNL     1       3.031   4.359  18.969  0.00  0.00    +0.000 A 
ATOM      8  N   UNL     1       3.376   3.288  18.211  0.00  0.00    +0.000 NA
ATOM      9  C   UNL     1       2.722   2.113  18.394  0.00  0.00    +0.000 A 
ATOM     10  C   UNL     1       1.710   1.922  19.315  0.00  0.00    +0.000 A 
ATOM     11  C   UNL     1       1.318   3.016  20.067  0.00  0.00    +0.000 A 
ATOM     12  C   UNL     1       1.963   4.247  19.882  0.00  0.00    +0.000 A 
BRANCH  12  13
ATOM     13  C   UNL     1       1.450   5.372  20.601  0.00  0.00    +0.000 C 
ATOM     14  N   UNL     1       1.067   6.307  21.179  0.00  0.00    +0.000 NA
ENDBRANCH  12  13
ENDBRANCH   4   7
BRANCH   1  17
ATOM     15  C   UNL     1       7.798   8.224  17.359  0.00  0.00    +0.000 C 
ATOM     16  O   UNL     1       8.486   7.560  16.586  0.00  0.00    +0.000 OA
ATOM     17  N   UNL     1       6.477   7.892  17.654  0.00  0.00    +0.000 N 
ATOM     18  H   UNL     1       6.041   8.409  18.414  0.00  0.00    +0.000 HD
BRANCH  15  22
ATOM     19  C   UNL     1      10.053  11.410  20.613  0.00  0.00    +0.000 C 
ATOM     20  C   UNL     1       9.359  10.702  19.521  0.00  0.00    +0.000 A 
ATOM     21  C   UNL     1       9.083   9.385  19.264  0.00  0.00    +0.000 A 
ATOM     22  C   UNL     1       8.350   9.395  18.044  0.00  0.00    +0.000 A 
ATOM     23  N   UNL     1       8.205  10.653  17.591  0.00  0.00    +0.000 NA
ATOM     24  O   UNL     1       8.843  11.465  18.519  0.00  0.00    +0.000 OA
ENDBRANCH  15  22
ENDBRANCH   1  17
TORSDOF 4
ENDMDL
MODEL 8
REMARK VINA RESULT:      -6.5      4.567      5.698
REMARK  Name = 
REMARK  5 active torsions:
REMARK  status: ('A' for Active; 'I' for Inactive)
REMARK    1  A    between atoms: C_1  and  C_2
REMARK    2  A    between atoms: C_4  and  C_5
REMARK    3  A    between atoms: N_7  and  C_8
REMARK    4  A    between atoms: N_11  and  C_12
REMARK    5  A    between atoms: C_17  and  C_18
REMARK                            x       y       z     vdW  Elec       q    Type
REMARK                         _______ _______ _______ _____ _____    ______ ____
ROOT
ATOM      1  C   UNL     1       1.215   9.102  19.009  0.00  0.00    +0.000 C 
ATOM      2  C   UNL     1       1.263   8.095  20.165  0.00  0.00    +0.000 C 
ATOM      3  C   UNL     1       2.477   7.161  20.206  0.00  0.00    +0.000 C 
ATOM      4  N   UNL     1       2.955   6.752  18.885  0.00  0.00    +0.000 N 
ATOM      5  C   UNL     1       3.021   7.790  17.860  0.00  0.00    +0.000 C 
ATOM      6  C   UNL     1       1.668   8.462  17.701  0.00  0.00    +0.000 C 
ENDROOT
BRANCH   4   7
ATOM      7  C   UNL     1       2.909   5.415  18.498  0.00  0.00    +0.000 A 
ATOM      8  N   UNL     1       1.725   4.912  18.068  0.00  0.00    +0.000 NA
ATOM      9  C   UNL     1       1.674   3.628  17.630  0.00  0.00    +0.000 A 
ATOM     10  C   UNL     1       2.762   2.777  17.589  0.00  0.00    +0.000 A 
ATOM     11  C   UNL     1       3.969   3.262  18.063  0.00  0.00    +0.000 A 
ATOM     12  C   UNL     1       4.043   4.579  18.541  0.00  0.00    +0.000 A 
BRANCH  12  13
ATOM     13  C   UNL     1       5.280   4.998  19.122  0.00  0.00    +0.000 C 
ATOM     14  N   UNL     1       6.292   5.304  19.612  0.00  0.00    +0.000 NA
ENDBRANCH  12  13
ENDBRANCH   4   7
BRANCH   1  17
ATOM     15  C   UNL     1       1.260  11.575  19.021  0.00  0.00    +0.000 C 
ATOM     16  O   UNL     1       0.065  11.633  18.739  0.00  0.00    +0.000 OA
ATOM     17  N   UNL     1       1.912  10.367  19.256  0.00  0.00    +0.000 N 
ATOM     18  H   UNL     1       2.926  10.408  19.332  0.00  0.00    +0.000 HD
BRANCH  15  22
ATOM     19  C   UNL     1       4.343  15.494  18.038  0.00  0.00    +0.000 C 
ATOM     20  C   UNL     1       3.427  14.464  18.565  0.00  0.00    +0.000 A 
ATOM     21  C   UNL     1       2.798  13.378  18.015  0.00  0.00    +0.000 A 
ATOM     22  C   UNL     1       2.078  12.789  19.091  0.00  0.00    +0.000 A 
ATOM     23  N   UNL     1       2.260  13.492  20.223  0.00  0.00    +0.000 NA
ATOM     24  O   UNL     1       3.102  14.542  19.884  0.00  0.00    +0.000 OA
ENDBRANCH  15  22
ENDBRANCH   1  17
TORSDOF 4
ENDMDL
MODEL 9
REMARK VINA RESULT:      -6.4      4.492      6.389
REMARK  Name = 
REMARK  5 active torsions:
REMARK  status: ('A' for Active; 'I' for Inactive)
REMARK    1  A    between atoms: C_1  and  C_2
REMARK    2  A    between atoms: C_4  and  C_5
REMARK    3  A    between atoms: N_7  and  C_8
REMARK    4  A    between atoms: N_11  and  C_12
REMARK    5  A    between atoms: C_17  and  C_18
REMARK                            x       y       z     vdW  Elec       q    Type
REMARK                         _______ _______ _______ _____ _____    ______ ____
ROOT
ATOM      1  C   UNL     1       4.241   4.518  18.238  0.00  0.00    +0.000 C 
ATOM      2  C   UNL     1       2.720   4.319  18.303  0.00  0.00    +0.000 C 
ATOM      3  C   UNL     1       1.860   5.562  18.056  0.00  0.00    +0.000 C 
ATOM      4  N   UNL     1       2.440   6.799  18.581  0.00  0.00    +0.000 N 
ATOM      5  C   UNL     1       3.871   6.997  18.364  0.00  0.00    +0.000 C 
ATOM      6  C   UNL     1       4.656   5.819  18.914  0.00  0.00    +0.000 C 
ENDROOT
BRANCH   4   7
ATOM      7  C   UNL     1       1.801   7.505  19.597  0.00  0.00    +0.000 A 
ATOM      8  N   UNL     1       1.407   6.824  20.702  0.00  0.00    +0.000 NA
ATOM      9  C   UNL     1       0.837   7.506  21.729  0.00  0.00    +0.000 A 
ATOM     10  C   UNL     1       0.624   8.871  21.732  0.00  0.00    +0.000 A 
ATOM     11  C   UNL     1       0.982   9.574  20.595  0.00  0.00    +0.000 A 
ATOM     12  C   UNL     1       1.553   8.891  19.512  0.00  0.00    +0.000 A 
BRANCH  12  13
ATOM     13  C   UNL     1       1.804   9.640  18.320  0.00  0.00    +0.000 C 
ATOM     14  N   UNL     1       1.988  10.223  17.329  0.00  0.00    +0.000 NA
ENDBRANCH  12  13
ENDBRANCH   4   7
BRANCH   1  17
ATOM     15  C   UNL     1       6.197   4.584  16.726  0.00  0.00    +0.000 C 
ATOM     16  O   UNL     1       6.969   4.715  17.674  0.00  0.00    +0.000 OA
ATOM     17  N   UNL     1       4.827   4.397  16.901  0.00  0.00    +0.000 N 
ATOM     18  H   UNL     1       4.254   4.450  16.063  0.00  0.00    +0.000 HD
BRANCH  15  22
ATOM     19  C   UNL     1       7.027   3.870  11.763  0.00  0.00    +0.000 C 
ATOM     20  C   UNL     1       6.966   4.270  13.182  0.00  0.00    +0.000 A 
ATOM     21  C   UNL     1       6.197   3.885  14.249  0.00  0.00    +0.000 A 
ATOM     22  C   UNL     1       6.680   4.652  15.345  0.00  0.00    +0.000 A 
ATOM     23  N   UNL     1       7.679   5.462  14.952  0.00  0.00    +0.000 NA
ATOM     24  O   UNL     1       7.850   5.219  13.595  0.00  0.00    +0.000 OA
ENDBRANCH  15  22
ENDBRANCH   1  17
TORSDOF 4
ENDMDL
