MODEL 1
REMARK VINA RESULT:      -8.1      0.000      0.000
REMARK  Name = 
REMARK  8 active torsions:
REMARK  status: ('A' for Active; 'I' for Inactive)
REMARK    1  A    between atoms: C_1  and  O_2
REMARK    2  A    between atoms: O_2  and  C_3
REMARK    3  A    between atoms: C_6  and  C_7
REMARK    4  A    between atoms: C_7  and  C_8
REMARK    5  A    between atoms: C_10  and  C_11
REMARK    6  A    between atoms: N_17  and  C_18
REMARK    7  A    between atoms: C_18  and  C_19
REMARK    8  A    between atoms: C_18  and  C_20
REMARK                            x       y       z     vdW  Elec       q    Type
REMARK                         _______ _______ _______ _____ _____    ______ ____
ROOT
ATOM      1  C   UNL     1       1.088   9.670  19.391  0.00  0.00    +0.000 A 
ATOM      2  N   UNL     1       1.810   8.661  18.956  0.00  0.00    +0.000 NA
ATOM      3  C   UNL     1       1.752   7.785  20.017  0.00  0.00    +0.000 A 
ATOM      4  N   UNL     1       1.057   8.251  21.070  0.00  0.00    +0.000 NA
ATOM      5  O   UNL     1       0.617   9.499  20.656  0.00  0.00    +0.000 OA
ENDROOT
BRANCH   3   6
ATOM      6  C   UNL     1       2.241   6.414  19.933  0.00  0.00    +0.000 A 
ATOM      7  C   UNL     1       1.634   5.363  20.637  0.00  0.00    +0.000 A 
ATOM      8  C   UNL     1       2.199   4.069  20.657  0.00  0.00    +0.000 A 
ATOM      9  C   UNL     1       3.420   3.861  19.994  0.00  0.00    +0.000 A 
ATOM     10  N   UNL     1       4.247   2.768  19.909  0.00  0.00    +0.000 NA
ATOM     11  N   UNL     1       5.342   3.121  19.239  0.00  0.00    +0.000 NA
ATOM     12  N   UNL     1       5.192   4.412  18.875  0.00  0.00    +0.000 N 
ATOM     13  C   UNL     1       3.991   4.912  19.301  0.00  0.00    +0.000 A 
ATOM     14  C   UNL     1       3.416   6.179  19.206  0.00  0.00    +0.000 A 
BRANCH  12  15
ATOM     15  C   UNL     1       6.275   5.214  18.323  0.00  0.00    +0.000 C 
ATOM     16  C   UNL     1       7.250   5.631  19.429  0.00  0.00    +0.000 C 
ATOM     17  C   UNL     1       7.006   4.569  17.152  0.00  0.00    +0.000 C 
ENDBRANCH  12  15
ENDBRANCH   3   6
BRANCH   1  18
ATOM     18  C   UNL     1       0.633  10.890  18.685  0.00  0.00    +0.000 C 
BRANCH  18  22
ATOM     19  C   UNL     1      -3.641  10.970  18.077  0.00  0.00    +0.000 A 
ATOM     20  C   UNL     1      -2.843  10.069  17.371  0.00  0.00    +0.000 A 
ATOM     21  C   UNL     1      -1.461  10.043  17.563  0.00  0.00    +0.000 A 
ATOM     22  C   UNL     1      -0.857  10.931  18.463  0.00  0.00    +0.000 A 
ATOM     23  C   UNL     1      -1.657  11.863  19.138  0.00  0.00    +0.000 A 
ATOM     24  C   UNL     1      -3.043  11.880  18.947  0.00  0.00    +0.000 A 
BRANCH  19  26
ATOM     25  C   UNL     1      -5.538  12.013  17.131  0.00  0.00    +0.000 C 
ATOM     26  O   UNL     1      -4.979  10.894  17.809  0.00  0.00    +0.000 OA
ENDBRANCH  19  26
ENDBRANCH  18  22
ENDBRANCH   1  18
TORSDOF 5
ENDMDL
MODEL 2
REMARK VINA RESULT:      -8.0      0.734      1.191
REMARK  Name = 
REMARK  8 active torsions:
REMARK  status: ('A' for Active; 'I' for Inactive)
REMARK    1  A    between atoms: C_1  and  O_2
REMARK    2  A    between atoms: O_2  and  C_3
REMARK    3  A    between atoms: C_6  and  C_7
REMARK    4  A    between atoms: C_7  and  C_8
REMARK    5  A    between atoms: C_10  and  C_11
REMARK    6  A    between atoms: N_17  and  C_18
REMARK    7  A    between atoms: C_18  and  C_19
REMARK    8  A    between atoms: C_18  and  C_20
REMARK                            x       y       z     vdW  Elec       q    Type
REMARK                         _______ _______ _______ _____ _____    ______ ____
ROOT
ATOM      1  C   UNL     1       0.745   9.933  19.665  0.00  0.00    +0.000 A 
ATOM      2  N   UNL     1       1.550   9.015  19.177  0.00  0.00    +0.000 NA
ATOM      3  C   UNL     1       1.526   8.054  20.162  0.00  0.00    +0.000 A 
ATOM      4  N   UNL     1       0.768   8.383  21.224  0.00  0.00    +0.000 NA
ATOM      5  O   UNL     1       0.251   9.627  20.895  0.00  0.00    +0.000 OA
ENDROOT
BRANCH   3   6
ATOM      6  C   UNL     1       2.114   6.732  19.988  0.00  0.00    +0.000 A 
ATOM      7  C   UNL     1       1.659   5.613  20.702  0.00  0.00    +0.000 A 
ATOM      8  C   UNL     1       2.327   4.371  20.627  0.00  0.00    +0.000 A 
ATOM      9  C   UNL     1       3.498   4.287  19.856  0.00  0.00    +0.000 A 
ATOM     10  N   UNL     1       4.401   3.270  19.662  0.00  0.00    +0.000 NA
ATOM     11  N   UNL     1       5.400   3.734  18.915  0.00  0.00    +0.000 NA
ATOM     12  N   UNL     1       5.115   5.017  18.612  0.00  0.00    +0.000 N 
ATOM     13  C   UNL     1       3.919   5.401  19.156  0.00  0.00    +0.000 A 
ATOM     14  C   UNL     1       3.237   6.619  19.156  0.00  0.00    +0.000 A 
BRANCH  12  15
ATOM     15  C   UNL     1       6.077   5.923  18.000  0.00  0.00    +0.000 C 
ATOM     16  C   UNL     1       7.508   5.467  18.300  0.00  0.00    +0.000 C 
ATOM     17  C   UNL     1       5.869   6.153  16.508  0.00  0.00    +0.000 C 
ENDBRANCH  12  15
ENDBRANCH   3   6
BRANCH   1  18
ATOM     18  C   UNL     1       0.223  11.171  19.042  0.00  0.00    +0.000 C 
BRANCH  18  22
ATOM     19  C   UNL     1      -3.865  10.864  17.687  0.00  0.00    +0.000 A 
ATOM     20  C   UNL     1      -3.516  11.780  18.680  0.00  0.00    +0.000 A 
ATOM     21  C   UNL     1      -2.197  11.879  19.122  0.00  0.00    +0.000 A 
ATOM     22  C   UNL     1      -1.206  11.050  18.578  0.00  0.00    +0.000 A 
ATOM     23  C   UNL     1      -1.569  10.102  17.612  0.00  0.00    +0.000 A 
ATOM     24  C   UNL     1      -2.892  10.012  17.167  0.00  0.00    +0.000 A 
BRANCH  19  26
ATOM     25  C   UNL     1      -6.111  11.040  18.399  0.00  0.00    +0.000 C 
ATOM     26  O   UNL     1      -5.186  10.866  17.333  0.00  0.00    +0.000 OA
ENDBRANCH  19  26
ENDBRANCH  18  22
ENDBRANCH   1  18
TORSDOF 5
ENDMDL
MODEL 3
REMARK VINA RESULT:      -7.9      1.408      3.103
REMARK  Name = 
REMARK  8 active torsions:
REMARK  status: ('A' for Active; 'I' for Inactive)
REMARK    1  A    between atoms: C_1  and  O_2
REMARK    2  A    between atoms: O_2  and  C_3
REMARK    3  A    between atoms: C_6  and  C_7
REMARK    4  A    between atoms: C_7  and  C_8
REMARK    5  A    between atoms: C_10  and  C_11
REMARK    6  A    between atoms: N_17  and  C_18
REMARK    7  A    between atoms: C_18  and  C_19
REMARK    8  A    between atoms: C_18  and  C_20
REMARK                            x       y       z     vdW  Elec       q    Type
REMARK                         _______ _______ _______ _____ _____    ______ ____
ROOT
ATOM      1  C   UNL     1       0.890   9.903  18.823  0.00  0.00    +0.000 A 
ATOM      2  N   UNL     1       1.187   8.674  19.187  0.00  0.00    +0.000 NA
ATOM      3  C   UNL     1       2.181   8.339  18.295  0.00  0.00    +0.000 A 
ATOM      4  N   UNL     1       2.457   9.305  17.400  0.00  0.00    +0.000 NA
ATOM      5  O   UNL     1       1.603  10.341  17.750  0.00  0.00    +0.000 OA
ENDROOT
BRANCH   3   6
ATOM      6  C   UNL     1       2.981   7.128  18.427  0.00  0.00    +0.000 A 
ATOM      7  C   UNL     1       4.163   6.933  17.695  0.00  0.00    +0.000 A 
ATOM      8  C   UNL     1       4.852   5.701  17.727  0.00  0.00    +0.000 A 
ATOM      9  C   UNL     1       4.301   4.645  18.473  0.00  0.00    +0.000 A 
ATOM     10  N   UNL     1       4.676   3.333  18.625  0.00  0.00    +0.000 NA
ATOM     11  N   UNL     1       3.755   2.716  19.363  0.00  0.00    +0.000 NA
ATOM     12  N   UNL     1       2.828   3.637  19.701  0.00  0.00    +0.000 N 
ATOM     13  C   UNL     1       3.142   4.868  19.191  0.00  0.00    +0.000 A 
ATOM     14  C   UNL     1       2.482   6.096  19.233  0.00  0.00    +0.000 A 
BRANCH  12  15
ATOM     15  C   UNL     1       1.554   3.294  20.315  0.00  0.00    +0.000 C 
ATOM     16  C   UNL     1       0.681   2.505  19.334  0.00  0.00    +0.000 C 
ATOM     17  C   UNL     1       1.669   2.578  21.655  0.00  0.00    +0.000 C 
ENDBRANCH  12  15
ENDBRANCH   3   6
BRANCH   1  18
ATOM     18  C   UNL     1      -0.005  10.895  19.460  0.00  0.00    +0.000 C 
BRANCH  18  22
ATOM     19  C   UNL     1      -3.945  11.038  17.698  0.00  0.00    +0.000 A 
ATOM     20  C   UNL     1      -3.602  11.907  18.736  0.00  0.00    +0.000 A 
ATOM     21  C   UNL     1      -2.331  11.860  19.309  0.00  0.00    +0.000 A 
ATOM     22  C   UNL     1      -1.384  10.932  18.854  0.00  0.00    +0.000 A 
ATOM     23  C   UNL     1      -1.747  10.033  17.842  0.00  0.00    +0.000 A 
ATOM     24  C   UNL     1      -3.020  10.088  17.266  0.00  0.00    +0.000 A 
BRANCH  19  26
ATOM     25  C   UNL     1      -6.145  11.802  18.095  0.00  0.00    +0.000 C 
ATOM     26  O   UNL     1      -5.214  11.185  17.214  0.00  0.00    +0.000 OA
ENDBRANCH  19  26
ENDBRANCH  18  22
ENDBRANCH   1  18
TORSDOF 5
ENDMDL
MODEL 4
REMARK VINA RESULT:      -7.9      1.656      2.767
REMARK  Name = 
REMARK  8 active torsions:
REMARK  status: ('A' for Active; 'I' for Inactive)
REMARK    1  A    between atoms: C_1  and  O_2
REMARK    2  A    between atoms: O_2  and  C_3
REMARK    3  A    between atoms: C_6  and  C_7
REMARK    4  A    between atoms: C_7  and  C_8
REMARK    5  A    between atoms: C_10  and  C_11
REMARK    6  A    between atoms: N_17  and  C_18
REMARK    7  A    between atoms: C_18  and  C_19
REMARK    8  A    between atoms: C_18  and  C_20
REMARK                            x       y       z     vdW  Elec       q    Type
REMARK                         _______ _______ _______ _____ _____    ______ ____
ROOT
ATOM      1  C   UNL     1       0.514   9.690  20.163  0.00  0.00    +0.000 A 
ATOM      2  N   UNL     1       1.417   9.233  19.323  0.00  0.00    +0.000 NA
ATOM      3  C   UNL     1       1.730   8.009  19.871  0.00  0.00    +0.000 A 
ATOM      4  N   UNL     1       1.075   7.743  21.016  0.00  0.00    +0.000 NA
ATOM      5  O   UNL     1       0.270   8.855  21.209  0.00  0.00    +0.000 OA
ENDROOT
BRANCH   3   6
ATOM      6  C   UNL     1       2.550   7.023  19.178  0.00  0.00    +0.000 A 
ATOM      7  C   UNL     1       3.302   7.348  18.039  0.00  0.00    +0.000 A 
ATOM      8  C   UNL     1       3.980   6.356  17.298  0.00  0.00    +0.000 A 
ATOM      9  C   UNL     1       3.846   5.015  17.696  0.00  0.00    +0.000 A 
ATOM     10  N   UNL     1       4.296   3.841  17.143  0.00  0.00    +0.000 NA
ATOM     11  N   UNL     1       3.810   2.828  17.857  0.00  0.00    +0.000 NA
ATOM     12  N   UNL     1       3.091   3.356  18.869  0.00  0.00    +0.000 N 
ATOM     13  C   UNL     1       3.107   4.725  18.828  0.00  0.00    +0.000 A 
ATOM     14  C   UNL     1       2.488   5.694  19.617  0.00  0.00    +0.000 A 
BRANCH  12  15
ATOM     15  C   UNL     1       2.224   2.563  19.728  0.00  0.00    +0.000 C 
ATOM     16  C   UNL     1       2.577   2.788  21.201  0.00  0.00    +0.000 C 
ATOM     17  C   UNL     1       0.733   2.758  19.477  0.00  0.00    +0.000 C 
ENDBRANCH  12  15
ENDBRANCH   3   6
BRANCH   1  18
ATOM     18  C   UNL     1      -0.335  10.901  20.084  0.00  0.00    +0.000 C 
BRANCH  18  22
ATOM     19  C   UNL     1      -3.199  10.744  16.857  0.00  0.00    +0.000 A 
ATOM     20  C   UNL     1      -2.019  10.002  16.792  0.00  0.00    +0.000 A 
ATOM     21  C   UNL     1      -1.090  10.054  17.831  0.00  0.00    +0.000 A 
ATOM     22  C   UNL     1      -1.329  10.861  18.952  0.00  0.00    +0.000 A 
ATOM     23  C   UNL     1      -2.495  11.637  18.993  0.00  0.00    +0.000 A 
ATOM     24  C   UNL     1      -3.426  11.576  17.952  0.00  0.00    +0.000 A 
BRANCH  19  26
ATOM     25  C   UNL     1      -3.420  10.159  14.579  0.00  0.00    +0.000 C 
ATOM     26  O   UNL     1      -4.033  10.605  15.783  0.00  0.00    +0.000 OA
ENDBRANCH  19  26
ENDBRANCH  18  22
ENDBRANCH   1  18
TORSDOF 5
ENDMDL
MODEL 5
REMARK VINA RESULT:      -7.8      1.332      1.760
REMARK  Name = 
REMARK  8 active torsions:
REMARK  status: ('A' for Active; 'I' for Inactive)
REMARK    1  A    between atoms: C_1  and  O_2
REMARK    2  A    between atoms: O_2  and  C_3
REMARK    3  A    between atoms: C_6  and  C_7
REMARK    4  A    between atoms: C_7  and  C_8
REMARK    5  A    between atoms: C_10  and  C_11
REMARK    6  A    between atoms: N_17  and  C_18
REMARK    7  A    between atoms: C_18  and  C_19
REMARK    8  A    between atoms: C_18  and  C_20
REMARK                            x       y       z     vdW  Elec       q    Type
REMARK                         _______ _______ _______ _____ _____    ______ ____
ROOT
ATOM      1  C   UNL     1       1.022   9.998  18.597  0.00  0.00    +0.000 A 
ATOM      2  N   UNL     1       1.162   8.802  19.127  0.00  0.00    +0.000 NA
ATOM      3  C   UNL     1       2.115   8.233  18.312  0.00  0.00    +0.000 A 
ATOM      4  N   UNL     1       2.515   9.030  17.304  0.00  0.00    +0.000 NA
ATOM      5  O   UNL     1       1.792  10.198  17.493  0.00  0.00    +0.000 OA
ENDROOT
BRANCH   3   6
ATOM      6  C   UNL     1       2.759   6.963  18.622  0.00  0.00    +0.000 A 
ATOM      7  C   UNL     1       2.373   6.181  19.722  0.00  0.00    +0.000 A 
ATOM      8  C   UNL     1       3.095   5.025  20.092  0.00  0.00    +0.000 A 
ATOM      9  C   UNL     1       4.250   4.695  19.361  0.00  0.00    +0.000 A 
ATOM     10  N   UNL     1       5.192   3.710  19.526  0.00  0.00    +0.000 NA
ATOM     11  N   UNL     1       6.151   3.891  18.620  0.00  0.00    +0.000 NA
ATOM     12  N   UNL     1       5.799   4.956  17.869  0.00  0.00    +0.000 N 
ATOM     13  C   UNL     1       4.601   5.477  18.277  0.00  0.00    +0.000 A 
ATOM     14  C   UNL     1       3.864   6.582  17.849  0.00  0.00    +0.000 A 
BRANCH  12  15
ATOM     15  C   UNL     1       6.703   5.596  16.923  0.00  0.00    +0.000 C 
ATOM     16  C   UNL     1       6.067   5.653  15.531  0.00  0.00    +0.000 C 
ATOM     17  C   UNL     1       7.211   6.964  17.359  0.00  0.00    +0.000 C 
ENDBRANCH  12  15
ENDBRANCH   3   6
BRANCH   1  18
ATOM     18  C   UNL     1       0.250  11.167  19.075  0.00  0.00    +0.000 C 
BRANCH  18  22
ATOM     19  C   UNL     1      -3.916  11.022  17.951  0.00  0.00    +0.000 A 
ATOM     20  C   UNL     1      -2.990  10.173  17.345  0.00  0.00    +0.000 A 
ATOM     21  C   UNL     1      -1.643  10.220  17.704  0.00  0.00    +0.000 A 
ATOM     22  C   UNL     1      -1.202  11.130  18.673  0.00  0.00    +0.000 A 
ATOM     23  C   UNL     1      -2.127  12.011  19.248  0.00  0.00    +0.000 A 
ATOM     24  C   UNL     1      -3.478  11.955  18.890  0.00  0.00    +0.000 A 
BRANCH  19  26
ATOM     25  C   UNL     1      -6.192  10.793  18.544  0.00  0.00    +0.000 C 
ATOM     26  O   UNL     1      -5.206  10.877  17.522  0.00  0.00    +0.000 OA
ENDBRANCH  19  26
ENDBRANCH  18  22
ENDBRANCH   1  18
TORSDOF 5
ENDMDL
MODEL 6
REMARK VINA RESULT:      -7.8      1.647      3.010
REMARK  Name = 
REMARK  8 active torsions:
REMARK  status: ('A' for Active; 'I' for Inactive)
REMARK    1  A    between atoms: C_1  and  O_2
REMARK    2  A    between atoms: O_2  and  C_3
REMARK    3  A    between atoms: C_6  and  C_7
REMARK    4  A    between atoms: C_7  and  C_8
REMARK    5  A    between atoms: C_10  and  C_11
REMARK    6  A    between atoms: N_17  and  C_18
REMARK    7  A    between atoms: C_18  and  C_19
REMARK    8  A    between atoms: C_18  and  C_20
REMARK                            x       y       z     vdW  Elec       q    Type
REMARK                         _______ _______ _______ _____ _____    ______ ____
ROOT
ATOM      1  C   UNL     1       0.719  10.386  18.989  0.00  0.00    +0.000 A 
ATOM      2  N   UNL     1       1.570   9.679  18.277  0.00  0.00    +0.000 NA
ATOM      3  C   UNL     1       1.841   8.621  19.116  0.00  0.00    +0.000 A 
ATOM      4  N   UNL     1       1.213   8.693  20.304  0.00  0.00    +0.000 NA
ATOM      5  O   UNL     1       0.470   9.862  20.220  0.00  0.00    +0.000 OA
ENDROOT
BRANCH   3   6
ATOM      6  C   UNL     1       2.589   7.446  18.685  0.00  0.00    +0.000 A 
ATOM      7  C   UNL     1       3.535   7.504  17.649  0.00  0.00    +0.000 A 
ATOM      8  C   UNL     1       4.149   6.335  17.149  0.00  0.00    +0.000 A 
ATOM      9  C   UNL     1       3.755   5.094  17.677  0.00  0.00    +0.000 A 
ATOM     10  N   UNL     1       4.092   3.804  17.345  0.00  0.00    +0.000 NA
ATOM     11  N   UNL     1       3.360   2.976  18.087  0.00  0.00    +0.000 NA
ATOM     12  N   UNL     1       2.596   3.733  18.902  0.00  0.00    +0.000 N 
ATOM     13  C   UNL     1       2.829   5.067  18.702  0.00  0.00    +0.000 A 
ATOM     14  C   UNL     1       2.261   6.212  19.262  0.00  0.00    +0.000 A 
BRANCH  12  15
ATOM     15  C   UNL     1       1.505   3.191  19.699  0.00  0.00    +0.000 C 
ATOM     16  C   UNL     1       0.735   2.132  18.903  0.00  0.00    +0.000 C 
ATOM     17  C   UNL     1       1.920   2.666  21.067  0.00  0.00    +0.000 C 
ENDBRANCH  12  15
ENDBRANCH   3   6
BRANCH   1  18
ATOM     18  C   UNL     1      -0.072  11.581  18.617  0.00  0.00    +0.000 C 
BRANCH  18  22
ATOM     19  C   UNL     1      -4.263  10.772  17.966  0.00  0.00    +0.000 A 
ATOM     20  C   UNL     1      -3.866  11.830  18.784  0.00  0.00    +0.000 A 
ATOM     21  C   UNL     1      -2.512  12.091  18.999  0.00  0.00    +0.000 A 
ATOM     22  C   UNL     1      -1.534  11.286  18.401  0.00  0.00    +0.000 A 
ATOM     23  C   UNL     1      -1.938  10.198  17.615  0.00  0.00    +0.000 A 
ATOM     24  C   UNL     1      -3.296   9.944  17.397  0.00  0.00    +0.000 A 
BRANCH  19  26
ATOM     25  C   UNL     1      -6.418  11.487  18.618  0.00  0.00    +0.000 C 
ATOM     26  O   UNL     1      -5.615  10.621  17.826  0.00  0.00    +0.000 OA
ENDBRANCH  19  26
ENDBRANCH  18  22
ENDBRANCH   1  18
TORSDOF 5
ENDMDL
MODEL 7
REMARK VINA RESULT:      -7.8      1.298      1.980
REMARK  Name = 
REMARK  8 active torsions:
REMARK  status: ('A' for Active; 'I' for Inactive)
REMARK    1  A    between atoms: C_1  and  O_2
REMARK    2  A    between atoms: O_2  and  C_3
REMARK    3  A    between atoms: C_6  and  C_7
REMARK    4  A    between atoms: C_7  and  C_8
REMARK    5  A    between atoms: C_10  and  C_11
REMARK    6  A    between atoms: N_17  and  C_18
REMARK    7  A    between atoms: C_18  and  C_19
REMARK    8  A    between atoms: C_18  and  C_20
REMARK                            x       y       z     vdW  Elec       q    Type
REMARK                         _______ _______ _______ _____ _____    ______ ____
ROOT
ATOM      1  C   UNL     1       0.964   9.903  18.602  0.00  0.00    +0.000 A 
ATOM      2  N   UNL     1       1.131   8.704  19.117  0.00  0.00    +0.000 NA
ATOM      3  C   UNL     1       2.116   8.178  18.312  0.00  0.00    +0.000 A 
ATOM      4  N   UNL     1       2.511   9.003  17.325  0.00  0.00    +0.000 NA
ATOM      5  O   UNL     1       1.749  10.145  17.518  0.00  0.00    +0.000 OA
ENDROOT
BRANCH   3   6
ATOM      6  C   UNL     1       2.793   6.923  18.615  0.00  0.00    +0.000 A 
ATOM      7  C   UNL     1       2.422   6.121  19.706  0.00  0.00    +0.000 A 
ATOM      8  C   UNL     1       3.174   4.982  20.069  0.00  0.00    +0.000 A 
ATOM      9  C   UNL     1       4.341   4.691  19.343  0.00  0.00    +0.000 A 
ATOM     10  N   UNL     1       5.310   3.730  19.505  0.00  0.00    +0.000 NA
ATOM     11  N   UNL     1       6.268   3.946  18.607  0.00  0.00    +0.000 NA
ATOM     12  N   UNL     1       5.892   5.007  17.864  0.00  0.00    +0.000 N 
ATOM     13  C   UNL     1       4.677   5.492  18.269  0.00  0.00    +0.000 A 
ATOM     14  C   UNL     1       3.913   6.579  17.845  0.00  0.00    +0.000 A 
BRANCH  12  15
ATOM     15  C   UNL     1       6.783   5.680  16.929  0.00  0.00    +0.000 C 
ATOM     16  C   UNL     1       6.153   5.737  15.534  0.00  0.00    +0.000 C 
ATOM     17  C   UNL     1       7.254   7.056  17.383  0.00  0.00    +0.000 C 
ENDBRANCH  12  15
ENDBRANCH   3   6
BRANCH   1  18
ATOM     18  C   UNL     1       0.147  11.041  19.083  0.00  0.00    +0.000 C 
BRANCH  18  22
ATOM     19  C   UNL     1      -3.913  10.997  17.617  0.00  0.00    +0.000 A 
ATOM     20  C   UNL     1      -3.536  11.883  18.627  0.00  0.00    +0.000 A 
ATOM     21  C   UNL     1      -2.225  11.897  19.104  0.00  0.00    +0.000 A 
ATOM     22  C   UNL     1      -1.273  11.012  18.581  0.00  0.00    +0.000 A 
ATOM     23  C   UNL     1      -1.667  10.095  17.597  0.00  0.00    +0.000 A 
ATOM     24  C   UNL     1      -2.980  10.090  17.116  0.00  0.00    +0.000 A 
BRANCH  19  26
ATOM     25  C   UNL     1      -5.901  12.274  17.605  0.00  0.00    +0.000 C 
ATOM     26  O   UNL     1      -5.221  11.083  17.227  0.00  0.00    +0.000 OA
ENDBRANCH  19  26
ENDBRANCH  18  22
ENDBRANCH   1  18
TORSDOF 5
ENDMDL
MODEL 8
REMARK VINA RESULT:      -7.8      1.143      1.243
REMARK  Name = 
REMARK  8 active torsions:
REMARK  status: ('A' for Active; 'I' for Inactive)
REMARK    1  A    between atoms: C_1  and  O_2
REMARK    2  A    between atoms: O_2  and  C_3
REMARK    3  A    between atoms: C_6  and  C_7
REMARK    4  A    between atoms: C_7  and  C_8
REMARK    5  A    between atoms: C_10  and  C_11
REMARK    6  A    between atoms: N_17  and  C_18
REMARK    7  A    between atoms: C_18  and  C_19
REMARK    8  A    between atoms: C_18  and  C_20
REMARK                            x       y       z     vdW  Elec       q    Type
REMARK                         _______ _______ _______ _____ _____    ______ ____
ROOT
ATOM      1  C   UNL     1       0.758  10.047  19.794  0.00  0.00    +0.000 A 
ATOM      2  N   UNL     1       1.487   9.166  19.144  0.00  0.00    +0.000 NA
ATOM      3  C   UNL     1       1.563   8.129  20.047  0.00  0.00    +0.000 A 
ATOM      4  N   UNL     1       0.939   8.377  21.213  0.00  0.00    +0.000 NA
ATOM      5  O   UNL     1       0.406   9.646  21.045  0.00  0.00    +0.000 OA
ENDROOT
BRANCH   3   6
ATOM      6  C   UNL     1       2.108   6.822  19.701  0.00  0.00    +0.000 A 
ATOM      7  C   UNL     1       1.974   5.712  20.549  0.00  0.00    +0.000 A 
ATOM      8  C   UNL     1       2.624   4.490  20.268  0.00  0.00    +0.000 A 
ATOM      9  C   UNL     1       3.457   4.420  19.139  0.00  0.00    +0.000 A 
ATOM     10  N   UNL     1       4.276   3.427  18.660  0.00  0.00    +0.000 NA
ATOM     11  N   UNL     1       4.935   3.899  17.604  0.00  0.00    +0.000 NA
ATOM     12  N   UNL     1       4.510   5.163  17.397  0.00  0.00    +0.000 N 
ATOM     13  C   UNL     1       3.563   5.525  18.316  0.00  0.00    +0.000 A 
ATOM     14  C   UNL     1       2.875   6.719  18.533  0.00  0.00    +0.000 A 
BRANCH  12  15
ATOM     15  C   UNL     1       5.162   6.080  16.472  0.00  0.00    +0.000 C 
ATOM     16  C   UNL     1       6.321   6.804  17.164  0.00  0.00    +0.000 C 
ATOM     17  C   UNL     1       5.606   5.446  15.160  0.00  0.00    +0.000 C 
ENDBRANCH  12  15
ENDBRANCH   3   6
BRANCH   1  18
ATOM     18  C   UNL     1       0.186  11.333  19.336  0.00  0.00    +0.000 C 
BRANCH  18  22
ATOM     19  C   UNL     1      -3.913  10.971  18.026  0.00  0.00    +0.000 A 
ATOM     20  C   UNL     1      -2.934  10.104  17.536  0.00  0.00    +0.000 A 
ATOM     21  C   UNL     1      -1.609  10.222  17.955  0.00  0.00    +0.000 A 
ATOM     22  C   UNL     1      -1.243  11.220  18.868  0.00  0.00    +0.000 A 
ATOM     23  C   UNL     1      -2.220  12.115  19.324  0.00  0.00    +0.000 A 
ATOM     24  C   UNL     1      -3.548  11.989  18.906  0.00  0.00    +0.000 A 
BRANCH  19  26
ATOM     25  C   UNL     1      -6.217  10.793  18.514  0.00  0.00    +0.000 C 
ATOM     26  O   UNL     1      -5.175  10.752  17.548  0.00  0.00    +0.000 OA
ENDBRANCH  19  26
ENDBRANCH  18  22
ENDBRANCH   1  18
TORSDOF 5
ENDMDL
MODEL 9
REMARK VINA RESULT:      -7.8      1.306      2.846
REMARK  Name = 
REMARK  8 active torsions:
REMARK  status: ('A' for Active; 'I' for Inactive)
REMARK    1  A    between atoms: C_1  and  O_2
REMARK    2  A    between atoms: O_2  and  C_3
REMARK    3  A    between atoms: C_6  and  C_7
REMARK    4  A    between atoms: C_7  and  C_8
REMARK    5  A    between atoms: C_10  and  C_11
REMARK    6  A    between atoms: N_17  and  C_18
REMARK    7  A    between atoms: C_18  and  C_19
REMARK    8  A    between atoms: C_18  and  C_20
REMARK                            x       y       z     vdW  Elec       q    Type
REMARK                         _______ _______ _______ _____ _____    ______ ____
ROOT
ATOM      1  C   UNL     1       1.350   9.387  18.790  0.00  0.00    +0.000 A 
ATOM      2  N   UNL     1       1.729   8.279  19.388  0.00  0.00    +0.000 NA
ATOM      3  C   UNL     1       2.506   7.680  18.422  0.00  0.00    +0.000 A 
ATOM      4  N   UNL     1       2.572   8.372  17.270  0.00  0.00    +0.000 NA
ATOM      5  O   UNL     1       1.807   9.503  17.514  0.00  0.00    +0.000 OA
ENDROOT
BRANCH   3   6
ATOM      6  C   UNL     1       3.326   6.504  18.689  0.00  0.00    +0.000 A 
ATOM      7  C   UNL     1       4.634   6.381  18.195  0.00  0.00    +0.000 A 
ATOM      8  C   UNL     1       5.365   5.181  18.343  0.00  0.00    +0.000 A 
ATOM      9  C   UNL     1       4.734   4.085  18.954  0.00  0.00    +0.000 A 
ATOM     10  N   UNL     1       5.138   2.788  19.158  0.00  0.00    +0.000 NA
ATOM     11  N   UNL     1       4.125   2.113  19.696  0.00  0.00    +0.000 NA
ATOM     12  N   UNL     1       3.106   2.981  19.863  0.00  0.00    +0.000 N 
ATOM     13  C   UNL     1       3.449   4.237  19.439  0.00  0.00    +0.000 A 
ATOM     14  C   UNL     1       2.733   5.432  19.370  0.00  0.00    +0.000 A 
BRANCH  12  15
ATOM     15  C   UNL     1       1.756   2.566  20.216  0.00  0.00    +0.000 C 
ATOM     16  C   UNL     1       1.365   3.125  21.587  0.00  0.00    +0.000 C 
ATOM     17  C   UNL     1       0.700   2.884  19.164  0.00  0.00    +0.000 C 
ENDBRANCH  12  15
ENDBRANCH   3   6
BRANCH   1  18
ATOM     18  C   UNL     1       0.608  10.552  19.325  0.00  0.00    +0.000 C 
BRANCH  18  22
ATOM     19  C   UNL     1      -3.381  10.912  17.710  0.00  0.00    +0.000 A 
ATOM     20  C   UNL     1      -2.500   9.952  17.211  0.00  0.00    +0.000 A 
ATOM     21  C   UNL     1      -1.210   9.835  17.729  0.00  0.00    +0.000 A 
ATOM     22  C   UNL     1      -0.780  10.691  18.753  0.00  0.00    +0.000 A 
ATOM     23  C   UNL     1      -1.653  11.682  19.220  0.00  0.00    +0.000 A 
ATOM     24  C   UNL     1      -2.948  11.790  18.703  0.00  0.00    +0.000 A 
BRANCH  19  26
ATOM     25  C   UNL     1      -5.722  10.961  18.026  0.00  0.00    +0.000 C 
ATOM     26  O   UNL     1      -4.618  10.924  17.129  0.00  0.00    +0.000 OA
ENDBRANCH  19  26
ENDBRANCH  18  22
ENDBRANCH   1  18
TORSDOF 5
ENDMDL
