MODEL 1
REMARK VINA RESULT:      -6.9      0.000      0.000
REMARK  Name = 
REMARK  6 active torsions:
REMARK  status: ('A' for Active; 'I' for Inactive)
REMARK    1  A    between atoms: C_2  and  C_3
REMARK    2  A    between atoms: N_10  and  C_11
REMARK    3  A    between atoms: N_10  and  C_21
REMARK    4  A    between atoms: C_11  and  C_12
REMARK    5  A    between atoms: C_12  and  O_13
REMARK    6  A    between atoms: C_12  and  C_14
REMARK                            x       y       z     vdW  Elec       q    Type
REMARK                         _______ _______ _______ _____ _____    ______ ____
ROOT
ATOM      1  O   UNL     1       3.673   4.689  20.835  0.00  0.00    +0.000 OA
ATOM      2  C   UNL     1       3.210   5.094  19.764  0.00  0.00    +0.000 C 
ATOM      3  N   UNL     1       4.021   5.759  18.844  0.00  0.00    +0.000 N 
ENDROOT
BRANCH   2   4
ATOM      4  C   UNL     1       1.723   4.897  19.421  0.00  0.00    +0.000 C 
ATOM      5  C   UNL     1       0.952   4.171  20.543  0.00  0.00    +0.000 C 
ATOM      6  C   UNL     1       1.346   2.698  20.478  0.00  0.00    +0.000 C 
ATOM      7  S   UNL     1       1.445   2.340  18.739  0.00  0.00    +0.000 S 
ATOM      8  O   UNL     1       0.186   1.766  18.306  0.00  0.00    +0.000 OA
ATOM      9  O   UNL     1       2.718   1.715  18.450  0.00  0.00    +0.000 OA
ATOM     10  C   UNL     1       1.507   4.031  18.176  0.00  0.00    +0.000 C 
ENDBRANCH   2   4
BRANCH   3  11
ATOM     11  C   UNL     1       3.521   6.471  17.692  0.00  0.00    +0.000 C 
ATOM     12  C   UNL     1       3.116   7.917  17.832  0.00  0.00    +0.000 C 
ATOM     13  C   UNL     1       4.267   7.553  16.953  0.00  0.00    +0.000 C 
ENDBRANCH   3  11
BRANCH   3  14
ATOM     14  C   UNL     1       5.483   5.672  19.021  0.00  0.00    +0.000 C 
BRANCH  14  15
ATOM     15  C   UNL     1       6.121   4.368  18.484  0.00  0.00    +0.000 C 
BRANCH  15  16
ATOM     16  C   UNL     1       6.235   4.377  16.972  0.00  0.00    +0.000 A 
ATOM     17  C   UNL     1       7.302   5.037  16.336  0.00  0.00    +0.000 A 
ATOM     18  C   UNL     1       7.402   5.040  14.941  0.00  0.00    +0.000 A 
ATOM     19  C   UNL     1       6.439   4.387  14.181  0.00  0.00    +0.000 A 
ATOM     20  F   UNL     1       6.537   4.388  12.846  0.00  0.00    +0.000 F 
ATOM     21  C   UNL     1       5.378   3.728  14.787  0.00  0.00    +0.000 A 
ATOM     22  C   UNL     1       5.278   3.719  16.179  0.00  0.00    +0.000 A 
ENDBRANCH  15  16
BRANCH  15  23
ATOM     23  O   UNL     1       5.385   3.198  18.842  0.00  0.00    +0.000 OA
ATOM     24  H   UNL     1       5.281   2.651  18.041  0.00  0.00    +0.000 HD
ENDBRANCH  15  23
ENDBRANCH  14  15
ENDBRANCH   3  14
TORSDOF 6
ENDMDL
MODEL 2
REMARK VINA RESULT:      -6.9      0.053      1.010
REMARK  Name = 
REMARK  6 active torsions:
REMARK  status: ('A' for Active; 'I' for Inactive)
REMARK    1  A    between atoms: C_2  and  C_3
REMARK    2  A    between atoms: N_10  and  C_11
REMARK    3  A    between atoms: N_10  and  C_21
REMARK    4  A    between atoms: C_11  and  C_12
REMARK    5  A    between atoms: C_12  and  O_13
REMARK    6  A    between atoms: C_12  and  C_14
REMARK                            x       y       z     vdW  Elec       q    Type
REMARK                         _______ _______ _______ _____ _____    ______ ____
ROOT
ATOM      1  O   UNL     1       3.670   4.710  20.863  0.00  0.00    +0.000 OA
ATOM      2  C   UNL     1       3.208   5.112  19.792  0.00  0.00    +0.000 C 
ATOM      3  N   UNL     1       4.019   5.779  18.872  0.00  0.00    +0.000 N 
ENDROOT
BRANCH   2   4
ATOM      4  C   UNL     1       1.721   4.912  19.447  0.00  0.00    +0.000 C 
ATOM      5  C   UNL     1       0.956   4.168  20.560  0.00  0.00    +0.000 C 
ATOM      6  C   UNL     1       1.357   2.698  20.477  0.00  0.00    +0.000 C 
ATOM      7  S   UNL     1       1.456   2.362  18.733  0.00  0.00    +0.000 S 
ATOM      8  O   UNL     1       0.200   1.788  18.293  0.00  0.00    +0.000 OA
ATOM      9  O   UNL     1       2.733   1.748  18.435  0.00  0.00    +0.000 OA
ATOM     10  C   UNL     1       1.510   4.061  18.192  0.00  0.00    +0.000 C 
ENDBRANCH   2   4
BRANCH   3  11
ATOM     11  C   UNL     1       3.518   6.489  17.719  0.00  0.00    +0.000 C 
ATOM     12  C   UNL     1       3.104   7.932  17.858  0.00  0.00    +0.000 C 
ATOM     13  C   UNL     1       4.260   7.575  16.983  0.00  0.00    +0.000 C 
ENDBRANCH   3  11
BRANCH   3  14
ATOM     14  C   UNL     1       5.481   5.695  19.050  0.00  0.00    +0.000 C 
BRANCH  14  15
ATOM     15  C   UNL     1       6.120   4.385  18.530  0.00  0.00    +0.000 C 
BRANCH  15  16
ATOM     16  C   UNL     1       6.212   4.364  17.017  0.00  0.00    +0.000 A 
ATOM     17  C   UNL     1       5.233   3.713  16.246  0.00  0.00    +0.000 A 
ATOM     18  C   UNL     1       5.324   3.700  14.850  0.00  0.00    +0.000 A 
ATOM     19  C   UNL     1       6.391   4.334  14.224  0.00  0.00    +0.000 A 
ATOM     20  F   UNL     1       6.476   4.322  12.888  0.00  0.00    +0.000 F 
ATOM     21  C   UNL     1       7.369   4.984  14.965  0.00  0.00    +0.000 A 
ATOM     22  C   UNL     1       7.279   5.002  16.357  0.00  0.00    +0.000 A 
ENDBRANCH  15  16
BRANCH  15  23
ATOM     23  O   UNL     1       5.397   3.217  18.921  0.00  0.00    +0.000 OA
ATOM     24  H   UNL     1       5.962   2.701  19.527  0.00  0.00    +0.000 HD
ENDBRANCH  15  23
ENDBRANCH  14  15
ENDBRANCH   3  14
TORSDOF 6
ENDMDL
MODEL 3
REMARK VINA RESULT:      -6.8      2.593      3.313
REMARK  Name = 
REMARK  6 active torsions:
REMARK  status: ('A' for Active; 'I' for Inactive)
REMARK    1  A    between atoms: C_2  and  C_3
REMARK    2  A    between atoms: N_10  and  C_11
REMARK    3  A    between atoms: N_10  and  C_21
REMARK    4  A    between atoms: C_11  and  C_12
REMARK    5  A    between atoms: C_12  and  O_13
REMARK    6  A    between atoms: C_12  and  C_14
REMARK                            x       y       z     vdW  Elec       q    Type
REMARK                         _______ _______ _______ _____ _____    ______ ____
ROOT
ATOM      1  O   UNL     1       3.632   2.740  18.217  0.00  0.00    +0.000 OA
ATOM      2  C   UNL     1       2.883   3.717  18.308  0.00  0.00    +0.000 C 
ATOM      3  N   UNL     1       3.226   4.935  17.720  0.00  0.00    +0.000 N 
ENDROOT
BRANCH   2   4
ATOM      4  C   UNL     1       1.560   3.628  19.090  0.00  0.00    +0.000 C 
ATOM      5  C   UNL     1       1.407   4.767  20.118  0.00  0.00    +0.000 C 
ATOM      6  C   UNL     1       2.328   4.440  21.291  0.00  0.00    +0.000 C 
ATOM      7  S   UNL     1       2.176   2.680  21.499  0.00  0.00    +0.000 S 
ATOM      8  O   UNL     1       1.186   2.412  22.523  0.00  0.00    +0.000 OA
ATOM      9  O   UNL     1       3.495   2.084  21.525  0.00  0.00    +0.000 OA
ATOM     10  C   UNL     1       1.437   2.341  19.910  0.00  0.00    +0.000 C 
ENDBRANCH   2   4
BRANCH   3  11
ATOM     11  C   UNL     1       2.539   6.178  17.977  0.00  0.00    +0.000 C 
ATOM     12  C   UNL     1       3.142   7.176  18.933  0.00  0.00    +0.000 C 
ATOM     13  C   UNL     1       2.990   7.532  17.491  0.00  0.00    +0.000 C 
ENDBRANCH   3  11
BRANCH   3  14
ATOM     14  C   UNL     1       4.313   4.939  16.723  0.00  0.00    +0.000 C 
BRANCH  14  15
ATOM     15  C   UNL     1       5.679   4.446  17.256  0.00  0.00    +0.000 C 
BRANCH  15  16
ATOM     16  C   UNL     1       6.566   5.597  17.688  0.00  0.00    +0.000 A 
ATOM     17  C   UNL     1       7.419   5.468  18.799  0.00  0.00    +0.000 A 
ATOM     18  C   UNL     1       8.235   6.534  19.191  0.00  0.00    +0.000 A 
ATOM     19  C   UNL     1       8.200   7.727  18.479  0.00  0.00    +0.000 A 
ATOM     20  F   UNL     1       8.983   8.746  18.855  0.00  0.00    +0.000 F 
ATOM     21  C   UNL     1       7.366   7.876  17.379  0.00  0.00    +0.000 A 
ATOM     22  C   UNL     1       6.554   6.814  16.982  0.00  0.00    +0.000 A 
ENDBRANCH  15  16
BRANCH  15  23
ATOM     23  O   UNL     1       6.414   3.690  16.292  0.00  0.00    +0.000 OA
ATOM     24  H   UNL     1       6.125   3.971  15.404  0.00  0.00    +0.000 HD
ENDBRANCH  15  23
ENDBRANCH  14  15
ENDBRANCH   3  14
TORSDOF 6
ENDMDL
MODEL 4
REMARK VINA RESULT:      -6.8      4.394      7.114
REMARK  Name = 
REMARK  6 active torsions:
REMARK  status: ('A' for Active; 'I' for Inactive)
REMARK    1  A    between atoms: C_2  and  C_3
REMARK    2  A    between atoms: N_10  and  C_11
REMARK    3  A    between atoms: N_10  and  C_21
REMARK    4  A    between atoms: C_11  and  C_12
REMARK    5  A    between atoms: C_12  and  O_13
REMARK    6  A    between atoms: C_12  and  C_14
REMARK                            x       y       z     vdW  Elec       q    Type
REMARK                         _______ _______ _______ _____ _____    ______ ____
ROOT
ATOM      1  O   UNL     1       4.196   6.722  17.135  0.00  0.00    +0.000 OA
ATOM      2  C   UNL     1       3.802   5.713  17.726  0.00  0.00    +0.000 C 
ATOM      3  N   UNL     1       2.592   5.722  18.422  0.00  0.00    +0.000 N 
ENDROOT
BRANCH   2   4
ATOM      4  C   UNL     1       4.640   4.422  17.732  0.00  0.00    +0.000 C 
ATOM      5  C   UNL     1       5.487   4.277  19.014  0.00  0.00    +0.000 C 
ATOM      6  C   UNL     1       6.657   5.249  18.891  0.00  0.00    +0.000 C 
ATOM      7  S   UNL     1       7.140   5.150  17.182  0.00  0.00    +0.000 S 
ATOM      8  O   UNL     1       8.232   4.206  17.056  0.00  0.00    +0.000 OA
ATOM      9  O   UNL     1       7.205   6.485  16.624  0.00  0.00    +0.000 OA
ATOM     10  C   UNL     1       5.654   4.363  16.586  0.00  0.00    +0.000 C 
ENDBRANCH   2   4
BRANCH   3  11
ATOM     11  C   UNL     1       2.175   4.681  19.331  0.00  0.00    +0.000 C 
ATOM     12  C   UNL     1       2.400   4.854  20.812  0.00  0.00    +0.000 C 
ATOM     13  C   UNL     1       1.008   4.778  20.279  0.00  0.00    +0.000 C 
ENDBRANCH   3  11
BRANCH   3  14
ATOM     14  C   UNL     1       1.652   6.829  18.160  0.00  0.00    +0.000 C 
BRANCH  14  15
ATOM     15  C   UNL     1       2.171   8.227  18.575  0.00  0.00    +0.000 C 
BRANCH  15  16
ATOM     16  C   UNL     1       1.312   8.847  19.660  0.00  0.00    +0.000 A 
ATOM     17  C   UNL     1       0.431   9.902  19.363  0.00  0.00    +0.000 A 
ATOM     18  C   UNL     1      -0.360  10.469  20.368  0.00  0.00    +0.000 A 
ATOM     19  C   UNL     1      -0.270   9.986  21.668  0.00  0.00    +0.000 A 
ATOM     20  F   UNL     1      -1.029  10.528  22.629  0.00  0.00    +0.000 F 
ATOM     21  C   UNL     1       0.592   8.945  21.984  0.00  0.00    +0.000 A 
ATOM     22  C   UNL     1       1.379   8.374  20.983  0.00  0.00    +0.000 A 
ENDBRANCH  15  16
BRANCH  15  23
ATOM     23  O   UNL     1       2.209   9.153  17.490  0.00  0.00    +0.000 OA
ATOM     24  H   UNL     1       2.178  10.055  17.861  0.00  0.00    +0.000 HD
ENDBRANCH  15  23
ENDBRANCH  14  15
ENDBRANCH   3  14
TORSDOF 6
ENDMDL
MODEL 5
REMARK VINA RESULT:      -6.8      4.390      7.112
REMARK  Name = 
REMARK  6 active torsions:
REMARK  status: ('A' for Active; 'I' for Inactive)
REMARK    1  A    between atoms: C_2  and  C_3
REMARK    2  A    between atoms: N_10  and  C_11
REMARK    3  A    between atoms: N_10  and  C_21
REMARK    4  A    between atoms: C_11  and  C_12
REMARK    5  A    between atoms: C_12  and  O_13
REMARK    6  A    between atoms: C_12  and  C_14
REMARK                            x       y       z     vdW  Elec       q    Type
REMARK                         _______ _______ _______ _____ _____    ______ ____
ROOT
ATOM      1  O   UNL     1       4.170   6.685  17.087  0.00  0.00    +0.000 OA
ATOM      2  C   UNL     1       3.799   5.676  17.694  0.00  0.00    +0.000 C 
ATOM      3  N   UNL     1       2.612   5.684  18.429  0.00  0.00    +0.000 N 
ENDROOT
BRANCH   2   4
ATOM      4  C   UNL     1       4.641   4.388  17.677  0.00  0.00    +0.000 C 
ATOM      5  C   UNL     1       5.493   4.226  18.952  0.00  0.00    +0.000 C 
ATOM      6  C   UNL     1       6.660   5.203  18.839  0.00  0.00    +0.000 C 
ATOM      7  S   UNL     1       7.135   5.132  17.127  0.00  0.00    +0.000 S 
ATOM      8  O   UNL     1       8.230   4.193  16.982  0.00  0.00    +0.000 OA
ATOM      9  O   UNL     1       7.194   6.475  16.590  0.00  0.00    +0.000 OA
ATOM     10  C   UNL     1       5.649   4.350  16.526  0.00  0.00    +0.000 C 
ENDBRANCH   2   4
BRANCH   3  11
ATOM     11  C   UNL     1       2.228   4.645  19.354  0.00  0.00    +0.000 C 
ATOM     12  C   UNL     1       2.392   4.872  20.836  0.00  0.00    +0.000 C 
ATOM     13  C   UNL     1       1.025   4.697  20.262  0.00  0.00    +0.000 C 
ENDBRANCH   3  11
BRANCH   3  14
ATOM     14  C   UNL     1       1.661   6.787  18.195  0.00  0.00    +0.000 C 
BRANCH  14  15
ATOM     15  C   UNL     1       2.183   8.187  18.601  0.00  0.00    +0.000 C 
BRANCH  15  16
ATOM     16  C   UNL     1       1.309   8.829  19.660  0.00  0.00    +0.000 A 
ATOM     17  C   UNL     1       1.309   8.345  20.981  0.00  0.00    +0.000 A 
ATOM     18  C   UNL     1       0.501   8.943  21.954  0.00  0.00    +0.000 A 
ATOM     19  C   UNL     1      -0.305  10.022  21.610  0.00  0.00    +0.000 A 
ATOM     20  F   UNL     1      -1.075  10.595  22.543  0.00  0.00    +0.000 F 
ATOM     21  C   UNL     1      -0.319  10.517  20.314  0.00  0.00    +0.000 A 
ATOM     22  C   UNL     1       0.488   9.925  19.342  0.00  0.00    +0.000 A 
ENDBRANCH  15  16
BRANCH  15  23
ATOM     23  O   UNL     1       2.249   9.098  17.503  0.00  0.00    +0.000 OA
ATOM     24  H   UNL     1       2.356   8.577  16.685  0.00  0.00    +0.000 HD
ENDBRANCH  15  23
ENDBRANCH  14  15
ENDBRANCH   3  14
TORSDOF 6
ENDMDL
MODEL 6
REMARK VINA RESULT:      -6.7      2.638      3.342
REMARK  Name = 
REMARK  6 active torsions:
REMARK  status: ('A' for Active; 'I' for Inactive)
REMARK    1  A    between atoms: C_2  and  C_3
REMARK    2  A    between atoms: N_10  and  C_11
REMARK    3  A    between atoms: N_10  and  C_21
REMARK    4  A    between atoms: C_11  and  C_12
REMARK    5  A    between atoms: C_12  and  O_13
REMARK    6  A    between atoms: C_12  and  C_14
REMARK                            x       y       z     vdW  Elec       q    Type
REMARK                         _______ _______ _______ _____ _____    ______ ____
ROOT
ATOM      1  O   UNL     1       3.710   2.813  18.318  0.00  0.00    +0.000 OA
ATOM      2  C   UNL     1       2.908   3.750  18.368  0.00  0.00    +0.000 C 
ATOM      3  N   UNL     1       3.212   4.979  17.780  0.00  0.00    +0.000 N 
ENDROOT
BRANCH   2   4
ATOM      4  C   UNL     1       1.560   3.599  19.095  0.00  0.00    +0.000 C 
ATOM      5  C   UNL     1       1.319   4.724  20.122  0.00  0.00    +0.000 C 
ATOM      6  C   UNL     1       2.205   4.428  21.329  0.00  0.00    +0.000 C 
ATOM      7  S   UNL     1       2.120   2.662  21.521  0.00  0.00    +0.000 S 
ATOM      8  O   UNL     1       1.102   2.345  22.504  0.00  0.00    +0.000 OA
ATOM      9  O   UNL     1       3.461   2.122  21.597  0.00  0.00    +0.000 OA
ATOM     10  C   UNL     1       1.460   2.303  19.903  0.00  0.00    +0.000 C 
ENDBRANCH   2   4
BRANCH   3  11
ATOM     11  C   UNL     1       2.451   6.187  17.994  0.00  0.00    +0.000 C 
ATOM     12  C   UNL     1       2.944   7.208  18.989  0.00  0.00    +0.000 C 
ATOM     13  C   UNL     1       2.868   7.563  17.540  0.00  0.00    +0.000 C 
ENDBRANCH   3  11
BRANCH   3  14
ATOM     14  C   UNL     1       4.338   5.031  16.828  0.00  0.00    +0.000 C 
BRANCH  14  15
ATOM     15  C   UNL     1       5.695   4.565  17.408  0.00  0.00    +0.000 C 
BRANCH  15  16
ATOM     16  C   UNL     1       6.588   5.738  17.764  0.00  0.00    +0.000 A 
ATOM     17  C   UNL     1       6.493   6.952  17.061  0.00  0.00    +0.000 A 
ATOM     18  C   UNL     1       7.319   8.030  17.396  0.00  0.00    +0.000 A 
ATOM     19  C   UNL     1       8.240   7.897  18.429  0.00  0.00    +0.000 A 
ATOM     20  F   UNL     1       9.029   8.930  18.749  0.00  0.00    +0.000 F 
ATOM     21  C   UNL     1       8.351   6.708  19.136  0.00  0.00    +0.000 A 
ATOM     22  C   UNL     1       7.525   5.632  18.808  0.00  0.00    +0.000 A 
ENDBRANCH  15  16
BRANCH  15  23
ATOM     23  O   UNL     1       6.431   3.735  16.510  0.00  0.00    +0.000 OA
ATOM     24  H   UNL     1       6.542   4.222  15.671  0.00  0.00    +0.000 HD
ENDBRANCH  15  23
ENDBRANCH  14  15
ENDBRANCH   3  14
TORSDOF 6
ENDMDL
MODEL 7
REMARK VINA RESULT:      -6.6      2.124      3.125
REMARK  Name = 
REMARK  6 active torsions:
REMARK  status: ('A' for Active; 'I' for Inactive)
REMARK    1  A    between atoms: C_2  and  C_3
REMARK    2  A    between atoms: N_10  and  C_11
REMARK    3  A    between atoms: N_10  and  C_21
REMARK    4  A    between atoms: C_11  and  C_12
REMARK    5  A    between atoms: C_12  and  O_13
REMARK    6  A    between atoms: C_12  and  C_14
REMARK                            x       y       z     vdW  Elec       q    Type
REMARK                         _______ _______ _______ _____ _____    ______ ____
ROOT
ATOM      1  O   UNL     1       4.484   3.670  17.006  0.00  0.00    +0.000 OA
ATOM      2  C   UNL     1       4.919   4.408  17.895  0.00  0.00    +0.000 C 
ATOM      3  N   UNL     1       5.769   5.471  17.586  0.00  0.00    +0.000 N 
ENDROOT
BRANCH   2   4
ATOM      4  C   UNL     1       4.557   4.165  19.371  0.00  0.00    +0.000 C 
ATOM      5  C   UNL     1       4.348   2.670  19.687  0.00  0.00    +0.000 C 
ATOM      6  C   UNL     1       2.995   2.273  19.104  0.00  0.00    +0.000 C 
ATOM      7  S   UNL     1       1.943   3.670  19.428  0.00  0.00    +0.000 S 
ATOM      8  O   UNL     1       1.207   3.429  20.653  0.00  0.00    +0.000 OA
ATOM      9  O   UNL     1       1.289   4.072  18.201  0.00  0.00    +0.000 OA
ATOM     10  C   UNL     1       3.244   4.838  19.781  0.00  0.00    +0.000 C 
ENDBRANCH   2   4
BRANCH   3  11
ATOM     11  C   UNL     1       6.510   6.225  18.568  0.00  0.00    +0.000 C 
ATOM     12  C   UNL     1       7.827   5.694  19.074  0.00  0.00    +0.000 C 
ATOM     13  C   UNL     1       7.793   6.970  18.300  0.00  0.00    +0.000 C 
ENDBRANCH   3  11
BRANCH   3  14
ATOM     14  C   UNL     1       5.862   5.894  16.175  0.00  0.00    +0.000 C 
BRANCH  14  15
ATOM     15  C   UNL     1       7.020   5.243  15.382  0.00  0.00    +0.000 C 
BRANCH  15  16
ATOM     16  C   UNL     1       6.521   4.516  14.149  0.00  0.00    +0.000 A 
ATOM     17  C   UNL     1       7.372   4.296  13.051  0.00  0.00    +0.000 A 
ATOM     18  C   UNL     1       6.905   3.623  11.917  0.00  0.00    +0.000 A 
ATOM     19  C   UNL     1       5.590   3.173  11.877  0.00  0.00    +0.000 A 
ATOM     20  F   UNL     1       5.145   2.528  10.791  0.00  0.00    +0.000 F 
ATOM     21  C   UNL     1       4.733   3.379  12.949  0.00  0.00    +0.000 A 
ATOM     22  C   UNL     1       5.197   4.045  14.083  0.00  0.00    +0.000 A 
ENDBRANCH  15  16
BRANCH  15  23
ATOM     23  O   UNL     1       7.763   4.298  16.153  0.00  0.00    +0.000 OA
ATOM     24  H   UNL     1       7.259   3.462  16.172  0.00  0.00    +0.000 HD
ENDBRANCH  15  23
ENDBRANCH  14  15
ENDBRANCH   3  14
TORSDOF 6
ENDMDL
MODEL 8
REMARK VINA RESULT:      -6.6      4.030      6.730
REMARK  Name = 
REMARK  6 active torsions:
REMARK  status: ('A' for Active; 'I' for Inactive)
REMARK    1  A    between atoms: C_2  and  C_3
REMARK    2  A    between atoms: N_10  and  C_11
REMARK    3  A    between atoms: N_10  and  C_21
REMARK    4  A    between atoms: C_11  and  C_12
REMARK    5  A    between atoms: C_12  and  O_13
REMARK    6  A    between atoms: C_12  and  C_14
REMARK                            x       y       z     vdW  Elec       q    Type
REMARK                         _______ _______ _______ _____ _____    ______ ____
ROOT
ATOM      1  O   UNL     1       5.497   5.528  19.649  0.00  0.00    +0.000 OA
ATOM      2  C   UNL     1       4.953   4.919  18.723  0.00  0.00    +0.000 C 
ATOM      3  N   UNL     1       3.564   4.918  18.589  0.00  0.00    +0.000 N 
ENDROOT
BRANCH   2   4
ATOM      4  C   UNL     1       5.788   4.126  17.702  0.00  0.00    +0.000 C 
ATOM      5  C   UNL     1       7.252   4.605  17.640  0.00  0.00    +0.000 C 
ATOM      6  C   UNL     1       7.260   5.931  16.884  0.00  0.00    +0.000 C 
ATOM      7  S   UNL     1       6.072   5.706  15.580  0.00  0.00    +0.000 S 
ATOM      8  O   UNL     1       6.769   5.300  14.376  0.00  0.00    +0.000 OA
ATOM      9  O   UNL     1       5.131   6.805  15.593  0.00  0.00    +0.000 OA
ATOM     10  C   UNL     1       5.269   4.269  16.268  0.00  0.00    +0.000 C 
ENDBRANCH   2   4
BRANCH   3  11
ATOM     11  C   UNL     1       2.839   4.048  17.695  0.00  0.00    +0.000 C 
ATOM     12  C   UNL     1       2.377   2.698  18.184  0.00  0.00    +0.000 C 
ATOM     13  C   UNL     1       1.369   3.730  17.801  0.00  0.00    +0.000 C 
ENDBRANCH   3  11
BRANCH   3  14
ATOM     14  C   UNL     1       2.795   5.915  19.359  0.00  0.00    +0.000 C 
BRANCH  14  15
ATOM     15  C   UNL     1       2.930   7.369  18.847  0.00  0.00    +0.000 C 
BRANCH  15  16
ATOM     16  C   UNL     1       1.857   8.272  19.422  0.00  0.00    +0.000 A 
ATOM     17  C   UNL     1       1.284   9.293  18.643  0.00  0.00    +0.000 A 
ATOM     18  C   UNL     1       0.293  10.122  19.180  0.00  0.00    +0.000 A 
ATOM     19  C   UNL     1      -0.125   9.933  20.491  0.00  0.00    +0.000 A 
ATOM     20  F   UNL     1      -1.076  10.725  21.003  0.00  0.00    +0.000 F 
ATOM     21  C   UNL     1       0.425   8.931  21.279  0.00  0.00    +0.000 A 
ATOM     22  C   UNL     1       1.411   8.100  20.745  0.00  0.00    +0.000 A 
ENDBRANCH  15  16
BRANCH  15  23
ATOM     23  O   UNL     1       2.846   7.471  17.425  0.00  0.00    +0.000 OA
ATOM     24  H   UNL     1       2.326   6.711  17.099  0.00  0.00    +0.000 HD
ENDBRANCH  15  23
ENDBRANCH  14  15
ENDBRANCH   3  14
TORSDOF 6
ENDMDL
MODEL 9
REMARK VINA RESULT:      -6.6      2.147      3.282
REMARK  Name = 
REMARK  6 active torsions:
REMARK  status: ('A' for Active; 'I' for Inactive)
REMARK    1  A    between atoms: C_2  and  C_3
REMARK    2  A    between atoms: N_10  and  C_11
REMARK    3  A    between atoms: N_10  and  C_21
REMARK    4  A    between atoms: C_11  and  C_12
REMARK    5  A    between atoms: C_12  and  O_13
REMARK    6  A    between atoms: C_12  and  C_14
REMARK                            x       y       z     vdW  Elec       q    Type
REMARK                         _______ _______ _______ _____ _____    ______ ____
ROOT
ATOM      1  O   UNL     1       4.577   3.601  16.999  0.00  0.00    +0.000 OA
ATOM      2  C   UNL     1       4.982   4.368  17.877  0.00  0.00    +0.000 C 
ATOM      3  N   UNL     1       5.785   5.462  17.552  0.00  0.00    +0.000 N 
ENDROOT
BRANCH   2   4
ATOM      4  C   UNL     1       4.634   4.129  19.357  0.00  0.00    +0.000 C 
ATOM      5  C   UNL     1       4.362   2.643  19.664  0.00  0.00    +0.000 C 
ATOM      6  C   UNL     1       2.981   2.314  19.102  0.00  0.00    +0.000 C 
ATOM      7  S   UNL     1       2.002   3.756  19.457  0.00  0.00    +0.000 S 
ATOM      8  O   UNL     1       1.277   3.539  20.693  0.00  0.00    +0.000 OA
ATOM      9  O   UNL     1       1.346   4.199  18.245  0.00  0.00    +0.000 OA
ATOM     10  C   UNL     1       3.362   4.859  19.796  0.00  0.00    +0.000 C 
ENDBRANCH   2   4
BRANCH   3  11
ATOM     11  C   UNL     1       6.496   6.260  18.523  0.00  0.00    +0.000 C 
ATOM     12  C   UNL     1       7.812   5.766  19.069  0.00  0.00    +0.000 C 
ATOM     13  C   UNL     1       7.772   7.016  18.253  0.00  0.00    +0.000 C 
ENDBRANCH   3  11
BRANCH   3  14
ATOM     14  C   UNL     1       5.857   5.871  16.136  0.00  0.00    +0.000 C 
BRANCH  14  15
ATOM     15  C   UNL     1       7.002   5.211  15.331  0.00  0.00    +0.000 C 
BRANCH  15  16
ATOM     16  C   UNL     1       6.485   4.480  14.108  0.00  0.00    +0.000 A 
ATOM     17  C   UNL     1       5.145   4.057  14.038  0.00  0.00    +0.000 A 
ATOM     18  C   UNL     1       4.674   3.385  12.905  0.00  0.00    +0.000 A 
ATOM     19  C   UNL     1       5.537   3.134  11.846  0.00  0.00    +0.000 A 
ATOM     20  F   UNL     1       5.084   2.492  10.761  0.00  0.00    +0.000 F 
ATOM     21  C   UNL     1       6.863   3.543  11.893  0.00  0.00    +0.000 A 
ATOM     22  C   UNL     1       7.335   4.218  13.019  0.00  0.00    +0.000 A 
ENDBRANCH  15  16
BRANCH  15  23
ATOM     23  O   UNL     1       7.751   4.267  16.098  0.00  0.00    +0.000 OA
ATOM     24  H   UNL     1       8.312   4.764  16.723  0.00  0.00    +0.000 HD
ENDBRANCH  15  23
ENDBRANCH  14  15
ENDBRANCH   3  14
TORSDOF 6
ENDMDL
