MODEL 1
REMARK VINA RESULT:      -7.7      0.000      0.000
REMARK  Name = 
REMARK  6 active torsions:
REMARK  status: ('A' for Active; 'I' for Inactive)
REMARK    1  A    between atoms: C_6  and  O_7
REMARK    2  A    between atoms: O_7  and  C_8
REMARK    3  A    between atoms: C_8  and  C_9
REMARK    4  A    between atoms: C_15  and  O_16
REMARK    5  A    between atoms: O_16  and  C_17
REMARK    6  A    between atoms: C_17  and  C_18
REMARK                            x       y       z     vdW  Elec       q    Type
REMARK                         _______ _______ _______ _____ _____    ______ ____
ROOT
ATOM      1  O   UNL     1       7.299   6.802  17.069  0.00  0.00    +0.000 OA
ATOM      2  C   UNL     1       6.788   5.739  16.713  0.00  0.00    +0.000 C 
ATOM      3  C   UNL     1       7.513   4.835  15.745  0.00  0.00    +0.000 C 
ATOM      4  C   UNL     1       6.573   4.448  14.620  0.00  0.00    +0.000 C 
ATOM      5  C   UNL     1       5.391   3.677  15.181  0.00  0.00    +0.000 C 
ATOM      6  C   UNL     1       4.604   4.490  16.218  0.00  0.00    +0.000 C 
ATOM      7  C   UNL     1       5.467   5.198  17.298  0.00  0.00    +0.000 C 
ENDROOT
BRANCH   6   8
ATOM      8  O   UNL     1       3.533   3.706  16.770  0.00  0.00    +0.000 OA
BRANCH   8   9
ATOM      9  C   UNL     1       3.876   2.738  17.762  0.00  0.00    +0.000 C 
BRANCH   9  10
ATOM     10  C   UNL     1       3.005   2.965  18.967  0.00  0.00    +0.000 A 
ATOM     11  C   UNL     1       3.459   2.646  20.254  0.00  0.00    +0.000 A 
ATOM     12  C   UNL     1       2.634   2.840  21.361  0.00  0.00    +0.000 A 
ATOM     13  C   UNL     1       1.352   3.358  21.193  0.00  0.00    +0.000 A 
ATOM     14  C   UNL     1       0.895   3.688  19.918  0.00  0.00    +0.000 A 
ATOM     15  C   UNL     1       1.718   3.496  18.810  0.00  0.00    +0.000 A 
ENDBRANCH   9  10
ENDBRANCH   8   9
ENDBRANCH   6   8
BRANCH   7  16
ATOM     16  O   UNL     1       4.714   6.140  18.069  0.00  0.00    +0.000 OA
BRANCH  16  17
ATOM     17  C   UNL     1       3.801   6.949  17.327  0.00  0.00    +0.000 C 
BRANCH  17  18
ATOM     18  C   UNL     1       2.833   7.609  18.273  0.00  0.00    +0.000 A 
ATOM     19  C   UNL     1       2.517   7.014  19.502  0.00  0.00    +0.000 A 
ATOM     20  C   UNL     1       1.638   7.644  20.386  0.00  0.00    +0.000 A 
ATOM     21  C   UNL     1       1.063   8.867  20.045  0.00  0.00    +0.000 A 
ATOM     22  C   UNL     1       1.358   9.458  18.818  0.00  0.00    +0.000 A 
ATOM     23  C   UNL     1       2.235   8.831  17.934  0.00  0.00    +0.000 A 
ENDBRANCH  17  18
ENDBRANCH  16  17
ENDBRANCH   7  16
TORSDOF 6
ENDMDL
MODEL 2
REMARK VINA RESULT:      -7.6      0.803      1.343
REMARK  Name = 
REMARK  6 active torsions:
REMARK  status: ('A' for Active; 'I' for Inactive)
REMARK    1  A    between atoms: C_6  and  O_7
REMARK    2  A    between atoms: O_7  and  C_8
REMARK    3  A    between atoms: C_8  and  C_9
REMARK    4  A    between atoms: C_15  and  O_16
REMARK    5  A    between atoms: O_16  and  C_17
REMARK    6  A    between atoms: C_17  and  C_18
REMARK                            x       y       z     vdW  Elec       q    Type
REMARK                         _______ _______ _______ _____ _____    ______ ____
ROOT
ATOM      1  O   UNL     1       5.886   7.478  17.373  0.00  0.00    +0.000 OA
ATOM      2  C   UNL     1       5.860   6.261  17.185  0.00  0.00    +0.000 C 
ATOM      3  C   UNL     1       7.116   5.530  16.778  0.00  0.00    +0.000 C 
ATOM      4  C   UNL     1       6.822   4.661  15.569  0.00  0.00    +0.000 C 
ATOM      5  C   UNL     1       5.773   3.622  15.927  0.00  0.00    +0.000 C 
ATOM      6  C   UNL     1       4.461   4.259  16.404  0.00  0.00    +0.000 C 
ATOM      7  C   UNL     1       4.617   5.389  17.458  0.00  0.00    +0.000 C 
ENDROOT
BRANCH   6   8
ATOM      8  O   UNL     1       3.518   3.247  16.791  0.00  0.00    +0.000 OA
BRANCH   8   9
ATOM      9  C   UNL     1       3.892   2.380  17.862  0.00  0.00    +0.000 C 
BRANCH   9  10
ATOM     10  C   UNL     1       2.979   2.645  19.028  0.00  0.00    +0.000 A 
ATOM     11  C   UNL     1       3.460   2.604  20.344  0.00  0.00    +0.000 A 
ATOM     12  C   UNL     1       2.599   2.829  21.417  0.00  0.00    +0.000 A 
ATOM     13  C   UNL     1       1.253   3.103  21.185  0.00  0.00    +0.000 A 
ATOM     14  C   UNL     1       0.767   3.157  19.880  0.00  0.00    +0.000 A 
ATOM     15  C   UNL     1       1.625   2.932  18.806  0.00  0.00    +0.000 A 
ENDBRANCH   9  10
ENDBRANCH   8   9
ENDBRANCH   6   8
BRANCH   7  16
ATOM     16  O   UNL     1       3.401   6.114  17.667  0.00  0.00    +0.000 OA
BRANCH  16  17
ATOM     17  C   UNL     1       3.062   6.364  19.031  0.00  0.00    +0.000 C 
BRANCH  17  18
ATOM     18  C   UNL     1       2.247   7.627  19.121  0.00  0.00    +0.000 A 
ATOM     19  C   UNL     1       2.060   8.439  17.994  0.00  0.00    +0.000 A 
ATOM     20  C   UNL     1       1.281   9.596  18.079  0.00  0.00    +0.000 A 
ATOM     21  C   UNL     1       0.694   9.954  19.292  0.00  0.00    +0.000 A 
ATOM     22  C   UNL     1       0.888   9.162  20.421  0.00  0.00    +0.000 A 
ATOM     23  C   UNL     1       1.665   8.007  20.339  0.00  0.00    +0.000 A 
ENDBRANCH  17  18
ENDBRANCH  16  17
ENDBRANCH   7  16
TORSDOF 6
ENDMDL
MODEL 3
REMARK VINA RESULT:      -7.5      2.452      5.613
REMARK  Name = 
REMARK  6 active torsions:
REMARK  status: ('A' for Active; 'I' for Inactive)
REMARK    1  A    between atoms: C_6  and  O_7
REMARK    2  A    between atoms: O_7  and  C_8
REMARK    3  A    between atoms: C_8  and  C_9
REMARK    4  A    between atoms: C_15  and  O_16
REMARK    5  A    between atoms: O_16  and  C_17
REMARK    6  A    between atoms: C_17  and  C_18
REMARK                            x       y       z     vdW  Elec       q    Type
REMARK                         _______ _______ _______ _____ _____    ______ ____
ROOT
ATOM      1  O   UNL     1       7.395   5.343  20.379  0.00  0.00    +0.000 OA
ATOM      2  C   UNL     1       7.344   5.720  19.208  0.00  0.00    +0.000 C 
ATOM      3  C   UNL     1       8.375   6.688  18.677  0.00  0.00    +0.000 C 
ATOM      4  C   UNL     1       7.672   7.832  17.972  0.00  0.00    +0.000 C 
ATOM      5  C   UNL     1       6.881   7.300  16.791  0.00  0.00    +0.000 C 
ATOM      6  C   UNL     1       5.829   6.265  17.213  0.00  0.00    +0.000 C 
ATOM      7  C   UNL     1       6.335   5.163  18.183  0.00  0.00    +0.000 C 
ENDROOT
BRANCH   6   8
ATOM      8  O   UNL     1       5.145   5.740  16.063  0.00  0.00    +0.000 OA
BRANCH   8   9
ATOM      9  C   UNL     1       5.385   4.374  15.727  0.00  0.00    +0.000 C 
BRANCH   9  10
ATOM     10  C   UNL     1       6.033   4.325  14.371  0.00  0.00    +0.000 A 
ATOM     11  C   UNL     1       5.541   3.480  13.367  0.00  0.00    +0.000 A 
ATOM     12  C   UNL     1       6.164   3.427  12.121  0.00  0.00    +0.000 A 
ATOM     13  C   UNL     1       7.281   4.220  11.866  0.00  0.00    +0.000 A 
ATOM     14  C   UNL     1       7.773   5.071  12.854  0.00  0.00    +0.000 A 
ATOM     15  C   UNL     1       7.151   5.126  14.100  0.00  0.00    +0.000 A 
ENDBRANCH   9  10
ENDBRANCH   8   9
ENDBRANCH   6   8
BRANCH   7  16
ATOM     16  O   UNL     1       5.266   4.392  18.741  0.00  0.00    +0.000 OA
BRANCH  16  17
ATOM     17  C   UNL     1       4.243   5.145  19.394  0.00  0.00    +0.000 C 
BRANCH  17  18
ATOM     18  C   UNL     1       2.980   4.327  19.454  0.00  0.00    +0.000 A 
ATOM     19  C   UNL     1       2.584   3.543  18.362  0.00  0.00    +0.000 A 
ATOM     20  C   UNL     1       1.425   2.767  18.434  0.00  0.00    +0.000 A 
ATOM     21  C   UNL     1       0.650   2.776  19.593  0.00  0.00    +0.000 A 
ATOM     22  C   UNL     1       1.027   3.565  20.678  0.00  0.00    +0.000 A 
ATOM     23  C   UNL     1       2.184   4.342  20.608  0.00  0.00    +0.000 A 
ENDBRANCH  17  18
ENDBRANCH  16  17
ENDBRANCH   7  16
TORSDOF 6
ENDMDL
MODEL 4
REMARK VINA RESULT:      -7.3      2.355      5.629
REMARK  Name = 
REMARK  6 active torsions:
REMARK  status: ('A' for Active; 'I' for Inactive)
REMARK    1  A    between atoms: C_6  and  O_7
REMARK    2  A    between atoms: O_7  and  C_8
REMARK    3  A    between atoms: C_8  and  C_9
REMARK    4  A    between atoms: C_15  and  O_16
REMARK    5  A    between atoms: O_16  and  C_17
REMARK    6  A    between atoms: C_17  and  C_18
REMARK                            x       y       z     vdW  Elec       q    Type
REMARK                         _______ _______ _______ _____ _____    ______ ____
ROOT
ATOM      1  O   UNL     1       5.670   4.084  19.507  0.00  0.00    +0.000 OA
ATOM      2  C   UNL     1       6.287   4.632  18.593  0.00  0.00    +0.000 C 
ATOM      3  C   UNL     1       7.592   5.336  18.874  0.00  0.00    +0.000 C 
ATOM      4  C   UNL     1       7.553   6.726  18.268  0.00  0.00    +0.000 C 
ATOM      5  C   UNL     1       7.394   6.624  16.761  0.00  0.00    +0.000 C 
ATOM      6  C   UNL     1       6.114   5.879  16.359  0.00  0.00    +0.000 C 
ATOM      7  C   UNL     1       5.860   4.545  17.114  0.00  0.00    +0.000 C 
ENDROOT
BRANCH   6   8
ATOM      8  O   UNL     1       6.031   5.749  14.930  0.00  0.00    +0.000 OA
BRANCH   8   9
ATOM      9  C   UNL     1       7.080   5.035  14.277  0.00  0.00    +0.000 C 
BRANCH   9  10
ATOM     10  C   UNL     1       6.467   4.123  13.250  0.00  0.00    +0.000 A 
ATOM     11  C   UNL     1       7.270   3.359  12.393  0.00  0.00    +0.000 A 
ATOM     12  C   UNL     1       6.689   2.534  11.430  0.00  0.00    +0.000 A 
ATOM     13  C   UNL     1       5.302   2.462  11.320  0.00  0.00    +0.000 A 
ATOM     14  C   UNL     1       4.494   3.209  12.175  0.00  0.00    +0.000 A 
ATOM     15  C   UNL     1       5.073   4.034  13.137  0.00  0.00    +0.000 A 
ENDBRANCH   9  10
ENDBRANCH   8   9
ENDBRANCH   6   8
BRANCH   7  16
ATOM     16  O   UNL     1       4.541   4.034  16.891  0.00  0.00    +0.000 OA
BRANCH  16  17
ATOM     17  C   UNL     1       3.475   4.937  17.186  0.00  0.00    +0.000 C 
BRANCH  17  18
ATOM     18  C   UNL     1       2.534   4.296  18.171  0.00  0.00    +0.000 A 
ATOM     19  C   UNL     1       1.988   3.030  17.918  0.00  0.00    +0.000 A 
ATOM     20  C   UNL     1       1.136   2.430  18.848  0.00  0.00    +0.000 A 
ATOM     21  C   UNL     1       0.817   3.094  20.032  0.00  0.00    +0.000 A 
ATOM     22  C   UNL     1       1.341   4.360  20.284  0.00  0.00    +0.000 A 
ATOM     23  C   UNL     1       2.192   4.961  19.357  0.00  0.00    +0.000 A 
ENDBRANCH  17  18
ENDBRANCH  16  17
ENDBRANCH   7  16
TORSDOF 6
ENDMDL
MODEL 5
REMARK VINA RESULT:      -7.3      2.356      5.683
REMARK  Name = 
REMARK  6 active torsions:
REMARK  status: ('A' for Active; 'I' for Inactive)
REMARK    1  A    between atoms: C_6  and  O_7
REMARK    2  A    between atoms: O_7  and  C_8
REMARK    3  A    between atoms: C_8  and  C_9
REMARK    4  A    between atoms: C_15  and  O_16
REMARK    5  A    between atoms: O_16  and  C_17
REMARK    6  A    between atoms: C_17  and  C_18
REMARK                            x       y       z     vdW  Elec       q    Type
REMARK                         _______ _______ _______ _____ _____    ______ ____
ROOT
ATOM      1  O   UNL     1       5.797   4.120  19.540  0.00  0.00    +0.000 OA
ATOM      2  C   UNL     1       6.392   4.697  18.630  0.00  0.00    +0.000 C 
ATOM      3  C   UNL     1       7.669   5.450  18.915  0.00  0.00    +0.000 C 
ATOM      4  C   UNL     1       7.577   6.841  18.317  0.00  0.00    +0.000 C 
ATOM      5  C   UNL     1       7.421   6.742  16.809  0.00  0.00    +0.000 C 
ATOM      6  C   UNL     1       6.171   5.950  16.403  0.00  0.00    +0.000 C 
ATOM      7  C   UNL     1       5.968   4.603  17.149  0.00  0.00    +0.000 C 
ENDROOT
BRANCH   6   8
ATOM      8  O   UNL     1       6.093   5.826  14.973  0.00  0.00    +0.000 OA
BRANCH   8   9
ATOM      9  C   UNL     1       7.110   5.060  14.327  0.00  0.00    +0.000 C 
BRANCH   9  10
ATOM     10  C   UNL     1       6.460   4.189  13.288  0.00  0.00    +0.000 A 
ATOM     11  C   UNL     1       5.067   4.042  13.240  0.00  0.00    +0.000 A 
ATOM     12  C   UNL     1       4.477   3.214  12.285  0.00  0.00    +0.000 A 
ATOM     13  C   UNL     1       5.274   2.530  11.369  0.00  0.00    +0.000 A 
ATOM     14  C   UNL     1       6.659   2.677  11.402  0.00  0.00    +0.000 A 
ATOM     15  C   UNL     1       7.250   3.504  12.355  0.00  0.00    +0.000 A 
ENDBRANCH   9  10
ENDBRANCH   8   9
ENDBRANCH   6   8
BRANCH   7  16
ATOM     16  O   UNL     1       4.670   4.043  16.923  0.00  0.00    +0.000 OA
BRANCH  16  17
ATOM     17  C   UNL     1       3.573   4.924  17.160  0.00  0.00    +0.000 C 
BRANCH  17  18
ATOM     18  C   UNL     1       2.630   4.294  18.151  0.00  0.00    +0.000 A 
ATOM     19  C   UNL     1       2.333   4.934  19.362  0.00  0.00    +0.000 A 
ATOM     20  C   UNL     1       1.438   4.355  20.265  0.00  0.00    +0.000 A 
ATOM     21  C   UNL     1       0.841   3.131  19.968  0.00  0.00    +0.000 A 
ATOM     22  C   UNL     1       1.143   2.479  18.775  0.00  0.00    +0.000 A 
ATOM     23  C   UNL     1       2.037   3.054  17.872  0.00  0.00    +0.000 A 
ENDBRANCH  17  18
ENDBRANCH  16  17
ENDBRANCH   7  16
TORSDOF 6
ENDMDL
MODEL 6
REMARK VINA RESULT:      -7.3      1.643      5.558
REMARK  Name = 
REMARK  6 active torsions:
REMARK  status: ('A' for Active; 'I' for Inactive)
REMARK    1  A    between atoms: C_6  and  O_7
REMARK    2  A    between atoms: O_7  and  C_8
REMARK    3  A    between atoms: C_8  and  C_9
REMARK    4  A    between atoms: C_15  and  O_16
REMARK    5  A    between atoms: O_16  and  C_17
REMARK    6  A    between atoms: C_17  and  C_18
REMARK                            x       y       z     vdW  Elec       q    Type
REMARK                         _______ _______ _______ _____ _____    ______ ____
ROOT
ATOM      1  O   UNL     1       2.262   9.813  17.583  0.00  0.00    +0.000 OA
ATOM      2  C   UNL     1       1.712   9.121  18.440  0.00  0.00    +0.000 C 
ATOM      3  C   UNL     1       0.393   9.555  19.034  0.00  0.00    +0.000 C 
ATOM      4  C   UNL     1       0.479   9.493  20.547  0.00  0.00    +0.000 C 
ATOM      5  C   UNL     1       0.741   8.064  20.989  0.00  0.00    +0.000 C 
ATOM      6  C   UNL     1       2.043   7.502  20.402  0.00  0.00    +0.000 C 
ATOM      7  C   UNL     1       2.239   7.739  18.879  0.00  0.00    +0.000 C 
ENDROOT
BRANCH   6   8
ATOM      8  O   UNL     1       2.224   6.131  20.791  0.00  0.00    +0.000 OA
BRANCH   8   9
ATOM      9  C   UNL     1       1.334   5.168  20.226  0.00  0.00    +0.000 C 
BRANCH   9  10
ATOM     10  C   UNL     1       2.140   4.202  19.402  0.00  0.00    +0.000 A 
ATOM     11  C   UNL     1       1.711   3.810  18.127  0.00  0.00    +0.000 A 
ATOM     12  C   UNL     1       2.456   2.897  17.382  0.00  0.00    +0.000 A 
ATOM     13  C   UNL     1       3.638   2.373  17.901  0.00  0.00    +0.000 A 
ATOM     14  C   UNL     1       4.078   2.764  19.164  0.00  0.00    +0.000 A 
ATOM     15  C   UNL     1       3.336   3.677  19.911  0.00  0.00    +0.000 A 
ENDBRANCH   9  10
ENDBRANCH   8   9
ENDBRANCH   6   8
BRANCH   7  16
ATOM     16  O   UNL     1       3.568   7.431  18.445  0.00  0.00    +0.000 OA
BRANCH  16  17
ATOM     17  C   UNL     1       3.664   6.779  17.178  0.00  0.00    +0.000 C 
BRANCH  17  18
ATOM     18  C   UNL     1       4.921   5.950  17.136  0.00  0.00    +0.000 A 
ATOM     19  C   UNL     1       5.202   5.133  16.032  0.00  0.00    +0.000 A 
ATOM     20  C   UNL     1       6.382   4.387  15.988  0.00  0.00    +0.000 A 
ATOM     21  C   UNL     1       7.284   4.446  17.049  0.00  0.00    +0.000 A 
ATOM     22  C   UNL     1       7.005   5.242  18.158  0.00  0.00    +0.000 A 
ATOM     23  C   UNL     1       5.827   5.987  18.205  0.00  0.00    +0.000 A 
ENDBRANCH  17  18
ENDBRANCH  16  17
ENDBRANCH   7  16
TORSDOF 6
ENDMDL
MODEL 7
REMARK VINA RESULT:      -7.3      1.527      5.852
REMARK  Name = 
REMARK  6 active torsions:
REMARK  status: ('A' for Active; 'I' for Inactive)
REMARK    1  A    between atoms: C_6  and  O_7
REMARK    2  A    between atoms: O_7  and  C_8
REMARK    3  A    between atoms: C_8  and  C_9
REMARK    4  A    between atoms: C_15  and  O_16
REMARK    5  A    between atoms: O_16  and  C_17
REMARK    6  A    between atoms: C_17  and  C_18
REMARK                            x       y       z     vdW  Elec       q    Type
REMARK                         _______ _______ _______ _____ _____    ______ ____
ROOT
ATOM      1  O   UNL     1       3.129   1.780  17.879  0.00  0.00    +0.000 OA
ATOM      2  C   UNL     1       2.975   2.695  18.689  0.00  0.00    +0.000 C 
ATOM      3  C   UNL     1       2.375   2.415  20.046  0.00  0.00    +0.000 C 
ATOM      4  C   UNL     1       1.255   3.403  20.313  0.00  0.00    +0.000 C 
ATOM      5  C   UNL     1       1.811   4.816  20.333  0.00  0.00    +0.000 C 
ATOM      6  C   UNL     1       2.491   5.193  19.010  0.00  0.00    +0.000 C 
ATOM      7  C   UNL     1       3.478   4.133  18.446  0.00  0.00    +0.000 C 
ENDROOT
BRANCH   6   8
ATOM      8  O   UNL     1       3.058   6.512  19.090  0.00  0.00    +0.000 OA
BRANCH   8   9
ATOM      9  C   UNL     1       2.679   7.448  18.081  0.00  0.00    +0.000 C 
BRANCH   9  10
ATOM     10  C   UNL     1       1.925   8.572  18.736  0.00  0.00    +0.000 A 
ATOM     11  C   UNL     1       1.434   8.446  20.043  0.00  0.00    +0.000 A 
ATOM     12  C   UNL     1       0.718   9.487  20.632  0.00  0.00    +0.000 A 
ATOM     13  C   UNL     1       0.490  10.664  19.923  0.00  0.00    +0.000 A 
ATOM     14  C   UNL     1       0.983  10.804  18.627  0.00  0.00    +0.000 A 
ATOM     15  C   UNL     1       1.700   9.765  18.037  0.00  0.00    +0.000 A 
ENDBRANCH   9  10
ENDBRANCH   8   9
ENDBRANCH   6   8
BRANCH   7  16
ATOM     16  O   UNL     1       3.876   4.418  17.101  0.00  0.00    +0.000 OA
BRANCH  16  17
ATOM     17  C   UNL     1       5.221   4.072  16.773  0.00  0.00    +0.000 C 
BRANCH  17  18
ATOM     18  C   UNL     1       6.153   5.132  17.297  0.00  0.00    +0.000 A 
ATOM     19  C   UNL     1       6.118   6.434  16.781  0.00  0.00    +0.000 A 
ATOM     20  C   UNL     1       6.967   7.419  17.289  0.00  0.00    +0.000 A 
ATOM     21  C   UNL     1       7.864   7.107  18.310  0.00  0.00    +0.000 A 
ATOM     22  C   UNL     1       7.919   5.811  18.818  0.00  0.00    +0.000 A 
ATOM     23  C   UNL     1       7.071   4.826  18.312  0.00  0.00    +0.000 A 
ENDBRANCH  17  18
ENDBRANCH  16  17
ENDBRANCH   7  16
TORSDOF 6
ENDMDL
MODEL 8
REMARK VINA RESULT:      -7.3      0.957      1.682
REMARK  Name = 
REMARK  6 active torsions:
REMARK  status: ('A' for Active; 'I' for Inactive)
REMARK    1  A    between atoms: C_6  and  O_7
REMARK    2  A    between atoms: O_7  and  C_8
REMARK    3  A    between atoms: C_8  and  C_9
REMARK    4  A    between atoms: C_15  and  O_16
REMARK    5  A    between atoms: O_16  and  C_17
REMARK    6  A    between atoms: C_17  and  C_18
REMARK                            x       y       z     vdW  Elec       q    Type
REMARK                         _______ _______ _______ _____ _____    ______ ____
ROOT
ATOM      1  O   UNL     1       5.470   7.283  16.092  0.00  0.00    +0.000 OA
ATOM      2  C   UNL     1       5.658   6.066  16.083  0.00  0.00    +0.000 C 
ATOM      3  C   UNL     1       6.405   5.422  14.939  0.00  0.00    +0.000 C 
ATOM      4  C   UNL     1       5.607   4.241  14.420  0.00  0.00    +0.000 C 
ATOM      5  C   UNL     1       5.453   3.203  15.518  0.00  0.00    +0.000 C 
ATOM      6  C   UNL     1       4.743   3.767  16.757  0.00  0.00    +0.000 C 
ATOM      7  C   UNL     1       5.271   5.141  17.255  0.00  0.00    +0.000 C 
ENDROOT
BRANCH   6   8
ATOM      8  O   UNL     1       4.672   2.775  17.795  0.00  0.00    +0.000 OA
BRANCH   8   9
ATOM      9  C   UNL     1       3.495   1.969  17.849  0.00  0.00    +0.000 C 
BRANCH   9  10
ATOM     10  C   UNL     1       2.669   2.414  19.024  0.00  0.00    +0.000 A 
ATOM     11  C   UNL     1       1.289   2.619  18.899  0.00  0.00    +0.000 A 
ATOM     12  C   UNL     1       0.537   3.053  19.990  0.00  0.00    +0.000 A 
ATOM     13  C   UNL     1       1.158   3.281  21.217  0.00  0.00    +0.000 A 
ATOM     14  C   UNL     1       2.528   3.070  21.355  0.00  0.00    +0.000 A 
ATOM     15  C   UNL     1       3.281   2.636  20.266  0.00  0.00    +0.000 A 
ENDBRANCH   9  10
ENDBRANCH   8   9
ENDBRANCH   6   8
BRANCH   7  16
ATOM     16  O   UNL     1       4.413   5.732  18.237  0.00  0.00    +0.000 OA
BRANCH  16  17
ATOM     17  C   UNL     1       3.038   5.836  17.867  0.00  0.00    +0.000 C 
BRANCH  17  18
ATOM     18  C   UNL     1       2.405   6.981  18.613  0.00  0.00    +0.000 A 
ATOM     19  C   UNL     1       2.074   8.171  17.950  0.00  0.00    +0.000 A 
ATOM     20  C   UNL     1       1.464   9.219  18.643  0.00  0.00    +0.000 A 
ATOM     21  C   UNL     1       1.189   9.089  20.003  0.00  0.00    +0.000 A 
ATOM     22  C   UNL     1       1.529   7.917  20.675  0.00  0.00    +0.000 A 
ATOM     23  C   UNL     1       2.139   6.869  19.985  0.00  0.00    +0.000 A 
ENDBRANCH  17  18
ENDBRANCH  16  17
ENDBRANCH   7  16
TORSDOF 6
ENDMDL
MODEL 9
REMARK VINA RESULT:      -7.2      1.836      6.151
REMARK  Name = 
REMARK  6 active torsions:
REMARK  status: ('A' for Active; 'I' for Inactive)
REMARK    1  A    between atoms: C_6  and  O_7
REMARK    2  A    between atoms: O_7  and  C_8
REMARK    3  A    between atoms: C_8  and  C_9
REMARK    4  A    between atoms: C_15  and  O_16
REMARK    5  A    between atoms: O_16  and  C_17
REMARK    6  A    between atoms: C_17  and  C_18
REMARK                            x       y       z     vdW  Elec       q    Type
REMARK                         _______ _______ _______ _____ _____    ______ ____
ROOT
ATOM      1  O   UNL     1      -0.068   8.205  21.456  0.00  0.00    +0.000 OA
ATOM      2  C   UNL     1       0.759   8.503  20.593  0.00  0.00    +0.000 C 
ATOM      3  C   UNL     1       0.670   9.832  19.884  0.00  0.00    +0.000 C 
ATOM      4  C   UNL     1       0.752   9.608  18.386  0.00  0.00    +0.000 C 
ATOM      5  C   UNL     1       2.088   8.980  18.032  0.00  0.00    +0.000 C 
ATOM      6  C   UNL     1       2.306   7.637  18.740  0.00  0.00    +0.000 C 
ATOM      7  C   UNL     1       1.986   7.629  20.261  0.00  0.00    +0.000 C 
ENDROOT
BRANCH   6   8
ATOM      8  O   UNL     1       3.605   7.105  18.430  0.00  0.00    +0.000 OA
BRANCH   8   9
ATOM      9  C   UNL     1       4.016   7.140  17.063  0.00  0.00    +0.000 C 
BRANCH   9  10
ATOM     10  C   UNL     1       5.168   6.189  16.889  0.00  0.00    +0.000 A 
ATOM     11  C   UNL     1       5.316   5.444  15.711  0.00  0.00    +0.000 A 
ATOM     12  C   UNL     1       6.375   4.549  15.571  0.00  0.00    +0.000 A 
ATOM     13  C   UNL     1       7.297   4.393  16.603  0.00  0.00    +0.000 A 
ATOM     14  C   UNL     1       7.165   5.136  17.774  0.00  0.00    +0.000 A 
ATOM     15  C   UNL     1       6.108   6.032  17.917  0.00  0.00    +0.000 A 
ENDBRANCH   9  10
ENDBRANCH   8   9
ENDBRANCH   6   8
BRANCH   7  16
ATOM     16  O   UNL     1       1.956   6.306  20.807  0.00  0.00    +0.000 OA
BRANCH  16  17
ATOM     17  C   UNL     1       1.167   5.362  20.083  0.00  0.00    +0.000 C 
BRANCH  17  18
ATOM     18  C   UNL     1       2.072   4.453  19.294  0.00  0.00    +0.000 A 
ATOM     19  C   UNL     1       1.750   4.087  17.980  0.00  0.00    +0.000 A 
ATOM     20  C   UNL     1       2.607   3.264  17.246  0.00  0.00    +0.000 A 
ATOM     21  C   UNL     1       3.786   2.794  17.823  0.00  0.00    +0.000 A 
ATOM     22  C   UNL     1       4.107   3.139  19.134  0.00  0.00    +0.000 A 
ATOM     23  C   UNL     1       3.252   3.960  19.869  0.00  0.00    +0.000 A 
ENDBRANCH  17  18
ENDBRANCH  16  17
ENDBRANCH   7  16
TORSDOF 6
ENDMDL
