MODEL 1
REMARK VINA RESULT:      -7.8      0.000      0.000
REMARK  Name = 
REMARK  6 active torsions:
REMARK  status: ('A' for Active; 'I' for Inactive)
REMARK    1  A    between atoms: C_1  and  C_2
REMARK    2  A    between atoms: C_5  and  C_6
REMARK    3  A    between atoms: C_10  and  C_11
REMARK    4  A    between atoms: N_12  and  C_13
REMARK    5  A    between atoms: C_14  and  C_15
REMARK    6  A    between atoms: C_17  and  C_18
REMARK                            x       y       z     vdW  Elec       q    Type
REMARK                         _______ _______ _______ _____ _____    ______ ____
ROOT
ATOM      1  C   UNL     1       1.075   8.749  20.592  0.00  0.00    +0.000 A 
ATOM      2  C   UNL     1       1.448   7.414  20.882  0.00  0.00    +0.000 A 
ATOM      3  C   UNL     1       2.224   6.996  19.834  0.00  0.00    +0.000 A 
ATOM      4  C   UNL     1       2.865   5.722  19.526  0.00  0.00    +0.000 A 
ATOM      5  C   UNL     1       2.860   4.498  20.140  0.00  0.00    +0.000 A 
ATOM      6  C   UNL     1       2.173   4.011  21.367  0.00  0.00    +0.000 C 
ATOM      7  N   UNL     1       3.658   3.686  19.351  0.00  0.00    +0.000 N 
ATOM      8  C   UNL     1       3.938   2.288  19.618  0.00  0.00    +0.000 C 
ATOM      9  C   UNL     1       4.142   4.392  18.253  0.00  0.00    +0.000 A 
ATOM     10  C   UNL     1       5.025   3.757  17.231  0.00  0.00    +0.000 C 
ATOM     11  C   UNL     1       3.640   5.686  18.342  0.00  0.00    +0.000 A 
ATOM     12  C   UNL     1       3.760   6.889  17.499  0.00  0.00    +0.000 A 
ATOM     13  C   UNL     1       4.596   6.919  16.244  0.00  0.00    +0.000 C 
ATOM     14  N   UNL     1       3.143   8.008  17.799  0.00  0.00    +0.000 NA
ATOM     15  N   UNL     1       2.391   8.029  18.944  0.00  0.00    +0.000 N 
ATOM     16  C   UNL     1       1.664   9.106  19.396  0.00  0.00    +0.000 A 
ENDROOT
BRANCH   1  21
ATOM     17  C   UNL     1      -1.935  12.432  21.737  0.00  0.00    +0.000 C 
ATOM     18  C   UNL     1      -1.162  11.209  22.033  0.00  0.00    +0.000 A 
ATOM     19  C   UNL     1      -0.987  10.435  23.158  0.00  0.00    +0.000 A 
ATOM     20  C   UNL     1      -0.122   9.375  22.779  0.00  0.00    +0.000 A 
ATOM     21  C   UNL     1       0.189   9.572  21.451  0.00  0.00    +0.000 A 
ATOM     22  O   UNL     1      -0.450  10.694  20.998  0.00  0.00    +0.000 OA
ENDBRANCH   1  21
TORSDOF 1
ENDMDL
MODEL 2
REMARK VINA RESULT:      -7.3      2.193      3.631
REMARK  Name = 
REMARK  6 active torsions:
REMARK  status: ('A' for Active; 'I' for Inactive)
REMARK    1  A    between atoms: C_1  and  C_2
REMARK    2  A    between atoms: C_5  and  C_6
REMARK    3  A    between atoms: C_10  and  C_11
REMARK    4  A    between atoms: N_12  and  C_13
REMARK    5  A    between atoms: C_14  and  C_15
REMARK    6  A    between atoms: C_17  and  C_18
REMARK                            x       y       z     vdW  Elec       q    Type
REMARK                         _______ _______ _______ _____ _____    ______ ____
ROOT
ATOM      1  C   UNL     1       1.540   9.435  19.033  0.00  0.00    +0.000 A 
ATOM      2  C   UNL     1       2.378   8.695  18.163  0.00  0.00    +0.000 A 
ATOM      3  C   UNL     1       2.528   7.460  18.733  0.00  0.00    +0.000 A 
ATOM      4  C   UNL     1       3.299   6.282  18.348  0.00  0.00    +0.000 A 
ATOM      5  C   UNL     1       4.179   6.029  17.329  0.00  0.00    +0.000 A 
ATOM      6  C   UNL     1       4.687   6.890  16.227  0.00  0.00    +0.000 C 
ATOM      7  N   UNL     1       4.587   4.719  17.511  0.00  0.00    +0.000 N 
ATOM      8  C   UNL     1       5.532   4.019  16.660  0.00  0.00    +0.000 C 
ATOM      9  C   UNL     1       3.980   4.167  18.637  0.00  0.00    +0.000 A 
ATOM     10  C   UNL     1       4.247   2.765  19.071  0.00  0.00    +0.000 C 
ATOM     11  C   UNL     1       3.165   5.150  19.187  0.00  0.00    +0.000 A 
ATOM     12  C   UNL     1       2.290   5.206  20.371  0.00  0.00    +0.000 A 
ATOM     13  C   UNL     1       2.083   4.023  21.284  0.00  0.00    +0.000 C 
ATOM     14  N   UNL     1       1.635   6.296  20.697  0.00  0.00    +0.000 NA
ATOM     15  N   UNL     1       1.777   7.387  19.880  0.00  0.00    +0.000 N 
ATOM     16  C   UNL     1       1.184   8.612  20.083  0.00  0.00    +0.000 A 
ENDROOT
BRANCH   1  21
ATOM     17  C   UNL     1       2.211  14.229  18.327  0.00  0.00    +0.000 C 
ATOM     18  C   UNL     1       1.387  13.017  18.505  0.00  0.00    +0.000 A 
ATOM     19  C   UNL     1       0.032  12.775  18.540  0.00  0.00    +0.000 A 
ATOM     20  C   UNL     1      -0.117  11.377  18.731  0.00  0.00    +0.000 A 
ATOM     21  C   UNL     1       1.154  10.850  18.816  0.00  0.00    +0.000 A 
ATOM     22  O   UNL     1       2.071  11.856  18.676  0.00  0.00    +0.000 OA
ENDBRANCH   1  21
TORSDOF 1
ENDMDL
MODEL 3
REMARK VINA RESULT:      -7.3      0.969      1.325
REMARK  Name = 
REMARK  6 active torsions:
REMARK  status: ('A' for Active; 'I' for Inactive)
REMARK    1  A    between atoms: C_1  and  C_2
REMARK    2  A    between atoms: C_5  and  C_6
REMARK    3  A    between atoms: C_10  and  C_11
REMARK    4  A    between atoms: N_12  and  C_13
REMARK    5  A    between atoms: C_14  and  C_15
REMARK    6  A    between atoms: C_17  and  C_18
REMARK                            x       y       z     vdW  Elec       q    Type
REMARK                         _______ _______ _______ _____ _____    ______ ____
ROOT
ATOM      1  C   UNL     1       1.215   9.180  19.455  0.00  0.00    +0.000 A 
ATOM      2  C   UNL     1       1.539   7.917  20.009  0.00  0.00    +0.000 A 
ATOM      3  C   UNL     1       2.408   7.325  19.133  0.00  0.00    +0.000 A 
ATOM      4  C   UNL     1       3.057   6.018  19.117  0.00  0.00    +0.000 A 
ATOM      5  C   UNL     1       2.974   4.920  19.933  0.00  0.00    +0.000 A 
ATOM      6  C   UNL     1       2.163   4.654  21.151  0.00  0.00    +0.000 C 
ATOM      7  N   UNL     1       3.833   3.985  19.381  0.00  0.00    +0.000 N 
ATOM      8  C   UNL     1       4.065   2.656  19.915  0.00  0.00    +0.000 C 
ATOM      9  C   UNL     1       4.434   4.489  18.230  0.00  0.00    +0.000 A 
ATOM     10  C   UNL     1       5.403   3.687  17.428  0.00  0.00    +0.000 C 
ATOM     11  C   UNL     1       3.944   5.777  18.041  0.00  0.00    +0.000 A 
ATOM     12  C   UNL     1       4.164   6.814  17.017  0.00  0.00    +0.000 A 
ATOM     13  C   UNL     1       5.119   6.626  15.865  0.00  0.00    +0.000 C 
ATOM     14  N   UNL     1       3.537   7.966  17.054  0.00  0.00    +0.000 NA
ATOM     15  N   UNL     1       2.677   8.186  18.097  0.00  0.00    +0.000 N 
ATOM     16  C   UNL     1       1.925   9.324  18.279  0.00  0.00    +0.000 A 
ENDROOT
BRANCH   1  21
ATOM     17  C   UNL     1      -1.280  11.388  23.036  0.00  0.00    +0.000 C 
ATOM     18  C   UNL     1      -0.898  11.166  21.628  0.00  0.00    +0.000 A 
ATOM     19  C   UNL     1      -1.274  11.735  20.432  0.00  0.00    +0.000 A 
ATOM     20  C   UNL     1      -0.519  11.077  19.426  0.00  0.00    +0.000 A 
ATOM     21  C   UNL     1       0.262  10.139  20.065  0.00  0.00    +0.000 A 
ATOM     22  O   UNL     1       0.028  10.197  21.412  0.00  0.00    +0.000 OA
ENDBRANCH   1  21
TORSDOF 1
ENDMDL
MODEL 4
REMARK VINA RESULT:      -7.2      1.796      3.400
REMARK  Name = 
REMARK  6 active torsions:
REMARK  status: ('A' for Active; 'I' for Inactive)
REMARK    1  A    between atoms: C_1  and  C_2
REMARK    2  A    between atoms: C_5  and  C_6
REMARK    3  A    between atoms: C_10  and  C_11
REMARK    4  A    between atoms: N_12  and  C_13
REMARK    5  A    between atoms: C_14  and  C_15
REMARK    6  A    between atoms: C_17  and  C_18
REMARK                            x       y       z     vdW  Elec       q    Type
REMARK                         _______ _______ _______ _____ _____    ______ ____
ROOT
ATOM      1  C   UNL     1       1.570   9.292  19.210  0.00  0.00    +0.000 A 
ATOM      2  C   UNL     1       2.387   8.565  18.310  0.00  0.00    +0.000 A 
ATOM      3  C   UNL     1       2.531   7.314  18.847  0.00  0.00    +0.000 A 
ATOM      4  C   UNL     1       3.283   6.137  18.423  0.00  0.00    +0.000 A 
ATOM      5  C   UNL     1       4.146   5.899  17.386  0.00  0.00    +0.000 A 
ATOM      6  C   UNL     1       4.648   6.781  16.298  0.00  0.00    +0.000 C 
ATOM      7  N   UNL     1       4.541   4.581  17.530  0.00  0.00    +0.000 N 
ATOM      8  C   UNL     1       5.465   3.891  16.649  0.00  0.00    +0.000 C 
ATOM      9  C   UNL     1       3.943   4.008  18.650  0.00  0.00    +0.000 A 
ATOM     10  C   UNL     1       4.200   2.592  19.047  0.00  0.00    +0.000 C 
ATOM     11  C   UNL     1       3.148   4.987  19.236  0.00  0.00    +0.000 A 
ATOM     12  C   UNL     1       2.289   5.023  20.433  0.00  0.00    +0.000 A 
ATOM     13  C   UNL     1       2.082   3.821  21.320  0.00  0.00    +0.000 C 
ATOM     14  N   UNL     1       1.652   6.112  20.795  0.00  0.00    +0.000 NA
ATOM     15  N   UNL     1       1.796   7.221  20.003  0.00  0.00    +0.000 N 
ATOM     16  C   UNL     1       1.219   8.448  20.244  0.00  0.00    +0.000 A 
ENDROOT
BRANCH   1  21
ATOM     17  C   UNL     1      -1.212  13.299  19.575  0.00  0.00    +0.000 C 
ATOM     18  C   UNL     1      -0.009  12.553  19.155  0.00  0.00    +0.000 A 
ATOM     19  C   UNL     1       1.139  12.891  18.475  0.00  0.00    +0.000 A 
ATOM     20  C   UNL     1       1.921  11.708  18.405  0.00  0.00    +0.000 A 
ATOM     21  C   UNL     1       1.198  10.716  19.032  0.00  0.00    +0.000 A 
ATOM     22  O   UNL     1       0.019  11.237  19.491  0.00  0.00    +0.000 OA
ENDBRANCH   1  21
TORSDOF 1
ENDMDL
MODEL 5
REMARK VINA RESULT:      -7.2      3.915      8.121
REMARK  Name = 
REMARK  6 active torsions:
REMARK  status: ('A' for Active; 'I' for Inactive)
REMARK    1  A    between atoms: C_1  and  C_2
REMARK    2  A    between atoms: C_5  and  C_6
REMARK    3  A    between atoms: C_10  and  C_11
REMARK    4  A    between atoms: N_12  and  C_13
REMARK    5  A    between atoms: C_14  and  C_15
REMARK    6  A    between atoms: C_17  and  C_18
REMARK                            x       y       z     vdW  Elec       q    Type
REMARK                         _______ _______ _______ _____ _____    ______ ____
ROOT
ATOM      1  C   UNL     1       5.446   4.895  15.092  0.00  0.00    +0.000 A 
ATOM      2  C   UNL     1       4.830   3.949  15.948  0.00  0.00    +0.000 A 
ATOM      3  C   UNL     1       4.190   4.671  16.919  0.00  0.00    +0.000 A 
ATOM      4  C   UNL     1       3.424   4.279  18.098  0.00  0.00    +0.000 A 
ATOM      5  C   UNL     1       3.137   3.067  18.669  0.00  0.00    +0.000 A 
ATOM      6  C   UNL     1       3.522   1.681  18.290  0.00  0.00    +0.000 C 
ATOM      7  N   UNL     1       2.372   3.358  19.785  0.00  0.00    +0.000 N 
ATOM      8  C   UNL     1       1.840   2.370  20.705  0.00  0.00    +0.000 C 
ATOM      9  C   UNL     1       2.195   4.733  19.915  0.00  0.00    +0.000 A 
ATOM     10  C   UNL     1       1.413   5.327  21.039  0.00  0.00    +0.000 C 
ATOM     11  C   UNL     1       2.866   5.335  18.856  0.00  0.00    +0.000 A 
ATOM     12  C   UNL     1       3.076   6.734  18.444  0.00  0.00    +0.000 A 
ATOM     13  C   UNL     1       2.481   7.899  19.194  0.00  0.00    +0.000 C 
ATOM     14  N   UNL     1       3.796   7.044  17.391  0.00  0.00    +0.000 NA
ATOM     15  N   UNL     1       4.336   6.013  16.668  0.00  0.00    +0.000 N 
ATOM     16  C   UNL     1       5.131   6.157  15.554  0.00  0.00    +0.000 A 
ENDROOT
BRANCH   1  21
ATOM     17  C   UNL     1       6.920   2.267  11.238  0.00  0.00    +0.000 C 
ATOM     18  C   UNL     1       7.007   3.396  12.185  0.00  0.00    +0.000 A 
ATOM     19  C   UNL     1       7.861   4.467  12.324  0.00  0.00    +0.000 A 
ATOM     20  C   UNL     1       7.390   5.207  13.439  0.00  0.00    +0.000 A 
ATOM     21  C   UNL     1       6.287   4.538  13.923  0.00  0.00    +0.000 A 
ATOM     22  O   UNL     1       6.055   3.432  13.153  0.00  0.00    +0.000 OA
ENDBRANCH   1  21
TORSDOF 1
ENDMDL
MODEL 6
REMARK VINA RESULT:      -7.2      1.804      3.226
REMARK  Name = 
REMARK  6 active torsions:
REMARK  status: ('A' for Active; 'I' for Inactive)
REMARK    1  A    between atoms: C_1  and  C_2
REMARK    2  A    between atoms: C_5  and  C_6
REMARK    3  A    between atoms: C_10  and  C_11
REMARK    4  A    between atoms: N_12  and  C_13
REMARK    5  A    between atoms: C_14  and  C_15
REMARK    6  A    between atoms: C_17  and  C_18
REMARK                            x       y       z     vdW  Elec       q    Type
REMARK                         _______ _______ _______ _____ _____    ______ ____
ROOT
ATOM      1  C   UNL     1       1.485   8.566  20.042  0.00  0.00    +0.000 A 
ATOM      2  C   UNL     1       2.278   8.026  19.000  0.00  0.00    +0.000 A 
ATOM      3  C   UNL     1       2.410   6.691  19.272  0.00  0.00    +0.000 A 
ATOM      4  C   UNL     1       3.138   5.614  18.606  0.00  0.00    +0.000 A 
ATOM      5  C   UNL     1       3.982   5.581  17.527  0.00  0.00    +0.000 A 
ATOM      6  C   UNL     1       4.482   6.658  16.631  0.00  0.00    +0.000 C 
ATOM      7  N   UNL     1       4.359   4.256  17.396  0.00  0.00    +0.000 N 
ATOM      8  C   UNL     1       5.260   3.747  16.378  0.00  0.00    +0.000 C 
ATOM      9  C   UNL     1       3.768   3.476  18.387  0.00  0.00    +0.000 A 
ATOM     10  C   UNL     1       4.009   2.006  18.486  0.00  0.00    +0.000 C 
ATOM     11  C   UNL     1       2.997   4.325  19.172  0.00  0.00    +0.000 A 
ATOM     12  C   UNL     1       2.157   4.130  20.367  0.00  0.00    +0.000 A 
ATOM     13  C   UNL     1       1.944   2.775  20.996  0.00  0.00    +0.000 C 
ATOM     14  N   UNL     1       1.541   5.131  20.952  0.00  0.00    +0.000 NA
ATOM     15  N   UNL     1       1.690   6.375  20.398  0.00  0.00    +0.000 N 
ATOM     16  C   UNL     1       1.136   7.534  20.891  0.00  0.00    +0.000 A 
ENDROOT
BRANCH   1  21
ATOM     17  C   UNL     1       0.973  13.214  18.605  0.00  0.00    +0.000 C 
ATOM     18  C   UNL     1       0.885  12.110  19.581  0.00  0.00    +0.000 A 
ATOM     19  C   UNL     1       0.472  12.020  20.892  0.00  0.00    +0.000 A 
ATOM     20  C   UNL     1       0.623  10.658  21.262  0.00  0.00    +0.000 A 
ATOM     21  C   UNL     1       1.132  10.001  20.162  0.00  0.00    +0.000 A 
ATOM     22  O   UNL     1       1.289  10.892  19.136  0.00  0.00    +0.000 OA
ENDBRANCH   1  21
TORSDOF 1
ENDMDL
MODEL 7
REMARK VINA RESULT:      -7.1      3.645      8.334
REMARK  Name = 
REMARK  6 active torsions:
REMARK  status: ('A' for Active; 'I' for Inactive)
REMARK    1  A    between atoms: C_1  and  C_2
REMARK    2  A    between atoms: C_5  and  C_6
REMARK    3  A    between atoms: C_10  and  C_11
REMARK    4  A    between atoms: N_12  and  C_13
REMARK    5  A    between atoms: C_14  and  C_15
REMARK    6  A    between atoms: C_17  and  C_18
REMARK                            x       y       z     vdW  Elec       q    Type
REMARK                         _______ _______ _______ _____ _____    ______ ____
ROOT
ATOM      1  C   UNL     1       5.572   4.443  15.369  0.00  0.00    +0.000 A 
ATOM      2  C   UNL     1       4.990   5.564  16.012  0.00  0.00    +0.000 A 
ATOM      3  C   UNL     1       4.324   5.077  17.104  0.00  0.00    +0.000 A 
ATOM      4  C   UNL     1       3.501   5.716  18.126  0.00  0.00    +0.000 A 
ATOM      5  C   UNL     1       3.063   7.002  18.307  0.00  0.00    +0.000 A 
ATOM      6  C   UNL     1       3.264   8.236  17.501  0.00  0.00    +0.000 C 
ATOM      7  N   UNL     1       2.303   6.973  19.463  0.00  0.00    +0.000 N 
ATOM      8  C   UNL     1       1.630   8.121  20.042  0.00  0.00    +0.000 C 
ATOM      9  C   UNL     1       2.258   5.684  19.989  0.00  0.00    +0.000 A 
ATOM     10  C   UNL     1       1.500   5.364  21.234  0.00  0.00    +0.000 C 
ATOM     11  C   UNL     1       3.005   4.870  19.145  0.00  0.00    +0.000 A 
ATOM     12  C   UNL     1       3.325   3.431  19.134  0.00  0.00    +0.000 A 
ATOM     13  C   UNL     1       2.852   2.486  20.209  0.00  0.00    +0.000 C 
ATOM     14  N   UNL     1       4.047   2.891  18.180  0.00  0.00    +0.000 NA
ATOM     15  N   UNL     1       4.516   3.720  17.195  0.00  0.00    +0.000 N 
ATOM     16  C   UNL     1       5.266   3.320  16.112  0.00  0.00    +0.000 A 
ENDROOT
BRANCH   1  21
ATOM     17  C   UNL     1       8.867   6.197  12.208  0.00  0.00    +0.000 C 
ATOM     18  C   UNL     1       7.810   5.261  12.640  0.00  0.00    +0.000 A 
ATOM     19  C   UNL     1       7.193   4.177  12.057  0.00  0.00    +0.000 A 
ATOM     20  C   UNL     1       6.260   3.692  13.009  0.00  0.00    +0.000 A 
ATOM     21  C   UNL     1       6.352   4.516  14.110  0.00  0.00    +0.000 A 
ATOM     22  O   UNL     1       7.302   5.473  13.881  0.00  0.00    +0.000 OA
ENDBRANCH   1  21
TORSDOF 1
ENDMDL
MODEL 8
REMARK VINA RESULT:      -7.1      1.552      3.158
REMARK  Name = 
REMARK  6 active torsions:
REMARK  status: ('A' for Active; 'I' for Inactive)
REMARK    1  A    between atoms: C_1  and  C_2
REMARK    2  A    between atoms: C_5  and  C_6
REMARK    3  A    between atoms: C_10  and  C_11
REMARK    4  A    between atoms: N_12  and  C_13
REMARK    5  A    between atoms: C_14  and  C_15
REMARK    6  A    between atoms: C_17  and  C_18
REMARK                            x       y       z     vdW  Elec       q    Type
REMARK                         _______ _______ _______ _____ _____    ______ ____
ROOT
ATOM      1  C   UNL     1       1.439   8.628  20.028  0.00  0.00    +0.000 A 
ATOM      2  C   UNL     1       2.230   8.069  18.995  0.00  0.00    +0.000 A 
ATOM      3  C   UNL     1       2.427   6.757  19.330  0.00  0.00    +0.000 A 
ATOM      4  C   UNL     1       3.185   5.679  18.701  0.00  0.00    +0.000 A 
ATOM      5  C   UNL     1       4.004   5.626  17.604  0.00  0.00    +0.000 A 
ATOM      6  C   UNL     1       4.435   6.675  16.641  0.00  0.00    +0.000 C 
ATOM      7  N   UNL     1       4.436   4.313  17.530  0.00  0.00    +0.000 N 
ATOM      8  C   UNL     1       5.333   3.791  16.516  0.00  0.00    +0.000 C 
ATOM      9  C   UNL     1       3.904   3.561  18.575  0.00  0.00    +0.000 A 
ATOM     10  C   UNL     1       4.211   2.110  18.741  0.00  0.00    +0.000 C 
ATOM     11  C   UNL     1       3.114   4.416  19.335  0.00  0.00    +0.000 A 
ATOM     12  C   UNL     1       2.312   4.247  20.560  0.00  0.00    +0.000 A 
ATOM     13  C   UNL     1       2.174   2.920  21.262  0.00  0.00    +0.000 C 
ATOM     14  N   UNL     1       1.668   5.250  21.109  0.00  0.00    +0.000 NA
ATOM     15  N   UNL     1       1.749   6.469  20.489  0.00  0.00    +0.000 N 
ATOM     16  C   UNL     1       1.156   7.628  20.937  0.00  0.00    +0.000 A 
ENDROOT
BRANCH   1  21
ATOM     17  C   UNL     1      -0.388  12.713  22.005  0.00  0.00    +0.000 C 
ATOM     18  C   UNL     1       0.207  11.920  20.911  0.00  0.00    +0.000 A 
ATOM     19  C   UNL     1       0.569  12.198  19.612  0.00  0.00    +0.000 A 
ATOM     20  C   UNL     1       1.105  10.995  19.083  0.00  0.00    +0.000 A 
ATOM     21  C   UNL     1       1.026  10.051  20.085  0.00  0.00    +0.000 A 
ATOM     22  O   UNL     1       0.478  10.621  21.201  0.00  0.00    +0.000 OA
ENDBRANCH   1  21
TORSDOF 1
ENDMDL
MODEL 9
REMARK VINA RESULT:      -7.0      3.233      8.017
REMARK  Name = 
REMARK  6 active torsions:
REMARK  status: ('A' for Active; 'I' for Inactive)
REMARK    1  A    between atoms: C_1  and  C_2
REMARK    2  A    between atoms: C_5  and  C_6
REMARK    3  A    between atoms: C_10  and  C_11
REMARK    4  A    between atoms: N_12  and  C_13
REMARK    5  A    between atoms: C_14  and  C_15
REMARK    6  A    between atoms: C_17  and  C_18
REMARK                            x       y       z     vdW  Elec       q    Type
REMARK                         _______ _______ _______ _____ _____    ______ ____
ROOT
ATOM      1  C   UNL     1       4.954   4.993  16.357  0.00  0.00    +0.000 A 
ATOM      2  C   UNL     1       4.364   6.244  16.663  0.00  0.00    +0.000 A 
ATOM      3  C   UNL     1       3.671   6.067  17.830  0.00  0.00    +0.000 A 
ATOM      4  C   UNL     1       2.828   6.955  18.624  0.00  0.00    +0.000 A 
ATOM      5  C   UNL     1       2.393   8.242  18.444  0.00  0.00    +0.000 A 
ATOM      6  C   UNL     1       2.618   9.216  17.343  0.00  0.00    +0.000 C 
ATOM      7  N   UNL     1       1.607   8.523  19.549  0.00  0.00    +0.000 N 
ATOM      8  C   UNL     1       0.927   9.783  19.784  0.00  0.00    +0.000 C 
ATOM      9  C   UNL     1       1.543   7.421  20.399  0.00  0.00    +0.000 A 
ATOM     10  C   UNL     1       0.756   7.445  21.667  0.00  0.00    +0.000 C 
ATOM     11  C   UNL     1       2.306   6.412  19.821  0.00  0.00    +0.000 A 
ATOM     12  C   UNL     1       2.619   5.023  20.202  0.00  0.00    +0.000 A 
ATOM     13  C   UNL     1       2.116   4.400  21.480  0.00  0.00    +0.000 C 
ATOM     14  N   UNL     1       3.359   4.248  19.444  0.00  0.00    +0.000 NA
ATOM     15  N   UNL     1       3.854   4.784  18.284  0.00  0.00    +0.000 N 
ATOM     16  C   UNL     1       4.626   4.110  17.366  0.00  0.00    +0.000 A 
ENDROOT
BRANCH   1  21
ATOM     17  C   UNL     1       5.999   3.108  11.966  0.00  0.00    +0.000 C 
ATOM     18  C   UNL     1       6.298   3.903  13.173  0.00  0.00    +0.000 A 
ATOM     19  C   UNL     1       7.382   4.642  13.590  0.00  0.00    +0.000 A 
ATOM     20  C   UNL     1       7.032   5.180  14.856  0.00  0.00    +0.000 A 
ATOM     21  C   UNL     1       5.762   4.728  15.142  0.00  0.00    +0.000 A 
ATOM     22  O   UNL     1       5.316   3.948  14.111  0.00  0.00    +0.000 OA
ENDBRANCH   1  21
TORSDOF 1
ENDMDL
