MODEL 1
REMARK VINA RESULT:      -6.7      0.000      0.000
REMARK  Name = 
REMARK  6 active torsions:
REMARK  status: ('A' for Active; 'I' for Inactive)
REMARK    1  A    between atoms: O_1  and  C_2
REMARK    2  A    between atoms: C_2  and  C_3
REMARK    3  A    between atoms: C_2  and  C_12
REMARK    4  A    between atoms: C_3  and  N_4
REMARK    5  A    between atoms: N_4  and  C_5
REMARK    6  A    between atoms: C_5  and  C_6
REMARK                            x       y       z     vdW  Elec       q    Type
REMARK                         _______ _______ _______ _____ _____    ______ ____
ROOT
ATOM      1  C   UNL     1       5.124   4.970  17.861  0.00  0.00    +0.000 C 
ENDROOT
BRANCH   1   2
ATOM      2  C   UNL     1       4.086   5.997  18.260  0.00  0.00    +0.000 A 
ATOM      3  C   UNL     1       3.844   7.115  17.446  0.00  0.00    +0.000 A 
ATOM      4  C   UNL     1       2.901   8.077  17.820  0.00  0.00    +0.000 A 
ATOM      5  C   UNL     1       2.189   7.923  19.007  0.00  0.00    +0.000 A 
ATOM      6 CL   UNL     1       1.043   9.117  19.478  0.00  0.00    +0.000 Cl
ATOM      7  C   UNL     1       2.407   6.815  19.821  0.00  0.00    +0.000 A 
ATOM      8  C   UNL     1       3.354   5.858  19.450  0.00  0.00    +0.000 A 
ENDBRANCH   1   2
BRANCH   1   9
ATOM      9  O   UNL     1       5.658   4.406  19.063  0.00  0.00    +0.000 OA
ATOM     10  H   UNL     1       4.925   4.328  19.691  0.00  0.00    +0.000 HD
ENDBRANCH   1   9
BRANCH   1  11
ATOM     11  C   UNL     1       4.575   3.838  16.956  0.00  0.00    +0.000 C 
BRANCH  11  12
ATOM     12  N   UNL     1       4.504   2.554  17.648  0.00  0.00    +0.000 NA
ATOM     13  H   UNL     1       4.876   2.624  18.593  0.00  0.00    +0.000 HD
BRANCH  12  14
ATOM     14  C   UNL     1       3.147   2.023  17.700  0.00  0.00    +0.000 C 
BRANCH  14  15
ATOM     15  C   UNL     1       2.497   2.422  19.001  0.00  0.00    +0.000 A 
ATOM     16  C   UNL     1       1.196   2.941  19.026  0.00  0.00    +0.000 A 
ATOM     17  C   UNL     1       0.625   3.351  20.232  0.00  0.00    +0.000 A 
ATOM     18  C   UNL     1       1.345   3.242  21.420  0.00  0.00    +0.000 A 
ATOM     19  C   UNL     1       2.634   2.719  21.410  0.00  0.00    +0.000 A 
ATOM     20  C   UNL     1       3.205   2.305  20.207  0.00  0.00    +0.000 A 
ENDBRANCH  14  15
ENDBRANCH  12  14
ENDBRANCH  11  12
ENDBRANCH   1  11
TORSDOF 6
ENDMDL
MODEL 2
REMARK VINA RESULT:      -6.5      0.165      1.618
REMARK  Name = 
REMARK  6 active torsions:
REMARK  status: ('A' for Active; 'I' for Inactive)
REMARK    1  A    between atoms: O_1  and  C_2
REMARK    2  A    between atoms: C_2  and  C_3
REMARK    3  A    between atoms: C_2  and  C_12
REMARK    4  A    between atoms: C_3  and  N_4
REMARK    5  A    between atoms: N_4  and  C_5
REMARK    6  A    between atoms: C_5  and  C_6
REMARK                            x       y       z     vdW  Elec       q    Type
REMARK                         _______ _______ _______ _____ _____    ______ ____
ROOT
ATOM      1  C   UNL     1       5.293   4.926  17.850  0.00  0.00    +0.000 C 
ENDROOT
BRANCH   1   2
ATOM      2  C   UNL     1       4.251   5.962  18.209  0.00  0.00    +0.000 A 
ATOM      3  C   UNL     1       3.483   5.822  19.376  0.00  0.00    +0.000 A 
ATOM      4  C   UNL     1       2.505   6.766  19.703  0.00  0.00    +0.000 A 
ATOM      5  C   UNL     1       2.293   7.860  18.867  0.00  0.00    +0.000 A 
ATOM      6 CL   UNL     1       1.075   9.011  19.257  0.00  0.00    +0.000 Cl
ATOM      7  C   UNL     1       3.052   8.023  17.711  0.00  0.00    +0.000 A 
ATOM      8  C   UNL     1       4.025   7.075  17.383  0.00  0.00    +0.000 A 
ENDBRANCH   1   2
BRANCH   1   9
ATOM      9  O   UNL     1       5.777   4.358  19.072  0.00  0.00    +0.000 OA
ATOM     10  H   UNL     1       6.741   4.445  19.063  0.00  0.00    +0.000 HD
ENDBRANCH   1   9
BRANCH   1  11
ATOM     11  C   UNL     1       4.768   3.797  16.927  0.00  0.00    +0.000 C 
BRANCH  11  12
ATOM     12  N   UNL     1       4.497   2.561  17.654  0.00  0.00    +0.000 NA
ATOM     13  H   UNL     1       4.838   2.615  18.612  0.00  0.00    +0.000 HD
BRANCH  12  14
ATOM     14  C   UNL     1       3.080   2.218  17.662  0.00  0.00    +0.000 C 
BRANCH  14  15
ATOM     15  C   UNL     1       2.489   2.543  19.011  0.00  0.00    +0.000 A 
ATOM     16  C   UNL     1       3.237   2.378  20.184  0.00  0.00    +0.000 A 
ATOM     17  C   UNL     1       2.661   2.637  21.429  0.00  0.00    +0.000 A 
ATOM     18  C   UNL     1       1.338   3.066  21.512  0.00  0.00    +0.000 A 
ATOM     19  C   UNL     1       0.587   3.244  20.354  0.00  0.00    +0.000 A 
ATOM     20  C   UNL     1       1.162   2.989  19.110  0.00  0.00    +0.000 A 
ENDBRANCH  14  15
ENDBRANCH  12  14
ENDBRANCH  11  12
ENDBRANCH   1  11
TORSDOF 6
ENDMDL
MODEL 3
REMARK VINA RESULT:      -6.4      2.275      3.588
REMARK  Name = 
REMARK  6 active torsions:
REMARK  status: ('A' for Active; 'I' for Inactive)
REMARK    1  A    between atoms: O_1  and  C_2
REMARK    2  A    between atoms: C_2  and  C_3
REMARK    3  A    between atoms: C_2  and  C_12
REMARK    4  A    between atoms: C_3  and  N_4
REMARK    5  A    between atoms: N_4  and  C_5
REMARK    6  A    between atoms: C_5  and  C_6
REMARK                            x       y       z     vdW  Elec       q    Type
REMARK                         _______ _______ _______ _____ _____    ______ ____
ROOT
ATOM      1  C   UNL     1       4.147   2.078  18.017  0.00  0.00    +0.000 C 
ENDROOT
BRANCH   1   2
ATOM      2  C   UNL     1       4.783   3.439  17.833  0.00  0.00    +0.000 A 
ATOM      3  C   UNL     1       5.332   4.121  18.931  0.00  0.00    +0.000 A 
ATOM      4  C   UNL     1       5.903   5.387  18.770  0.00  0.00    +0.000 A 
ATOM      5  C   UNL     1       5.935   5.976  17.508  0.00  0.00    +0.000 A 
ATOM      6 CL   UNL     1       6.619   7.543  17.313  0.00  0.00    +0.000 Cl
ATOM      7  C   UNL     1       5.407   5.310  16.405  0.00  0.00    +0.000 A 
ATOM      8  C   UNL     1       4.831   4.048  16.569  0.00  0.00    +0.000 A 
ENDBRANCH   1   2
BRANCH   1   9
ATOM      9  O   UNL     1       4.244   1.740  19.405  0.00  0.00    +0.000 OA
ATOM     10  H   UNL     1       4.025   0.801  19.485  0.00  0.00    +0.000 HD
ENDBRANCH   1   9
BRANCH   1  11
ATOM     11  C   UNL     1       2.665   2.010  17.570  0.00  0.00    +0.000 C 
BRANCH  11  12
ATOM     12  N   UNL     1       1.761   1.700  18.673  0.00  0.00    +0.000 NA
ATOM     13  H   UNL     1       2.268   1.618  19.553  0.00  0.00    +0.000 HD
BRANCH  12  14
ATOM     14  C   UNL     1       0.699   2.689  18.819  0.00  0.00    +0.000 C 
BRANCH  14  15
ATOM     15  C   UNL     1       1.303   4.049  19.062  0.00  0.00    +0.000 A 
ATOM     16  C   UNL     1       1.591   4.911  17.996  0.00  0.00    +0.000 A 
ATOM     17  C   UNL     1       2.194   6.147  18.233  0.00  0.00    +0.000 A 
ATOM     18  C   UNL     1       2.510   6.534  19.535  0.00  0.00    +0.000 A 
ATOM     19  C   UNL     1       2.219   5.691  20.603  0.00  0.00    +0.000 A 
ATOM     20  C   UNL     1       1.614   4.458  20.369  0.00  0.00    +0.000 A 
ENDBRANCH  14  15
ENDBRANCH  12  14
ENDBRANCH  11  12
ENDBRANCH   1  11
TORSDOF 6
ENDMDL
MODEL 4
REMARK VINA RESULT:      -6.3      2.241      3.715
REMARK  Name = 
REMARK  6 active torsions:
REMARK  status: ('A' for Active; 'I' for Inactive)
REMARK    1  A    between atoms: O_1  and  C_2
REMARK    2  A    between atoms: C_2  and  C_3
REMARK    3  A    between atoms: C_2  and  C_12
REMARK    4  A    between atoms: C_3  and  N_4
REMARK    5  A    between atoms: N_4  and  C_5
REMARK    6  A    between atoms: C_5  and  C_6
REMARK                            x       y       z     vdW  Elec       q    Type
REMARK                         _______ _______ _______ _____ _____    ______ ____
ROOT
ATOM      1  C   UNL     1       4.272   2.074  19.139  0.00  0.00    +0.000 C 
ENDROOT
BRANCH   1   2
ATOM      2  C   UNL     1       4.849   3.381  18.636  0.00  0.00    +0.000 A 
ATOM      3  C   UNL     1       5.336   4.336  19.542  0.00  0.00    +0.000 A 
ATOM      4  C   UNL     1       5.851   5.553  19.084  0.00  0.00    +0.000 A 
ATOM      5  C   UNL     1       5.888   5.818  17.717  0.00  0.00    +0.000 A 
ATOM      6 CL   UNL     1       6.503   7.324  17.154  0.00  0.00    +0.000 Cl
ATOM      7  C   UNL     1       5.420   4.878  16.803  0.00  0.00    +0.000 A 
ATOM      8  C   UNL     1       4.900   3.665  17.262  0.00  0.00    +0.000 A 
ENDBRANCH   1   2
BRANCH   1   9
ATOM      9  O   UNL     1       3.958   2.246  20.526  0.00  0.00    +0.000 OA
ATOM     10  H   UNL     1       3.089   1.845  20.672  0.00  0.00    +0.000 HD
ENDBRANCH   1   9
BRANCH   1  11
ATOM     11  C   UNL     1       3.008   1.608  18.375  0.00  0.00    +0.000 C 
BRANCH  11  12
ATOM     12  N   UNL     1       1.790   1.755  19.166  0.00  0.00    +0.000 NA
ATOM     13  H   UNL     1       2.006   1.975  20.137  0.00  0.00    +0.000 HD
BRANCH  12  14
ATOM     14  C   UNL     1       0.894   2.771  18.627  0.00  0.00    +0.000 C 
BRANCH  14  15
ATOM     15  C   UNL     1       1.424   4.143  18.961  0.00  0.00    +0.000 A 
ATOM     16  C   UNL     1       1.524   4.573  20.291  0.00  0.00    +0.000 A 
ATOM     17  C   UNL     1       1.972   5.862  20.582  0.00  0.00    +0.000 A 
ATOM     18  C   UNL     1       2.328   6.729  19.551  0.00  0.00    +0.000 A 
ATOM     19  C   UNL     1       2.243   6.310  18.226  0.00  0.00    +0.000 A 
ATOM     20  C   UNL     1       1.800   5.022  17.933  0.00  0.00    +0.000 A 
ENDBRANCH  14  15
ENDBRANCH  12  14
ENDBRANCH  11  12
ENDBRANCH   1  11
TORSDOF 6
ENDMDL
MODEL 5
REMARK VINA RESULT:      -6.3      1.028      1.477
REMARK  Name = 
REMARK  6 active torsions:
REMARK  status: ('A' for Active; 'I' for Inactive)
REMARK    1  A    between atoms: O_1  and  C_2
REMARK    2  A    between atoms: C_2  and  C_3
REMARK    3  A    between atoms: C_2  and  C_12
REMARK    4  A    between atoms: C_3  and  N_4
REMARK    5  A    between atoms: N_4  and  C_5
REMARK    6  A    between atoms: C_5  and  C_6
REMARK                            x       y       z     vdW  Elec       q    Type
REMARK                         _______ _______ _______ _____ _____    ______ ____
ROOT
ATOM      1  C   UNL     1       4.464   5.349  17.887  0.00  0.00    +0.000 C 
ENDROOT
BRANCH   1   2
ATOM      2  C   UNL     1       3.495   6.419  18.343  0.00  0.00    +0.000 A 
ATOM      3  C   UNL     1       3.239   7.537  17.533  0.00  0.00    +0.000 A 
ATOM      4  C   UNL     1       2.360   8.538  17.959  0.00  0.00    +0.000 A 
ATOM      5  C   UNL     1       1.727   8.423  19.194  0.00  0.00    +0.000 A 
ATOM      6 CL   UNL     1       0.661   9.664  19.727  0.00  0.00    +0.000 Cl
ATOM      7  C   UNL     1       1.959   7.315  20.005  0.00  0.00    +0.000 A 
ATOM      8  C   UNL     1       2.842   6.319  19.582  0.00  0.00    +0.000 A 
ENDBRANCH   1   2
BRANCH   1   9
ATOM      9  O   UNL     1       5.425   5.974  17.029  0.00  0.00    +0.000 OA
ATOM     10  H   UNL     1       5.754   5.292  16.426  0.00  0.00    +0.000 HD
ENDBRANCH   1   9
BRANCH   1  11
ATOM     11  C   UNL     1       5.196   4.626  19.046  0.00  0.00    +0.000 C 
BRANCH  11  12
ATOM     12  N   UNL     1       5.316   3.189  18.820  0.00  0.00    +0.000 NA
ATOM     13  H   UNL     1       6.289   2.915  18.698  0.00  0.00    +0.000 HD
BRANCH  12  14
ATOM     14  C   UNL     1       4.724   2.403  19.897  0.00  0.00    +0.000 C 
BRANCH  14  15
ATOM     15  C   UNL     1       3.231   2.615  19.916  0.00  0.00    +0.000 A 
ATOM     16  C   UNL     1       2.462   2.426  18.761  0.00  0.00    +0.000 A 
ATOM     17  C   UNL     1       1.088   2.672  18.781  0.00  0.00    +0.000 A 
ATOM     18  C   UNL     1       0.471   3.103  19.954  0.00  0.00    +0.000 A 
ATOM     19  C   UNL     1       1.223   3.285  21.112  0.00  0.00    +0.000 A 
ATOM     20  C   UNL     1       2.594   3.036  21.094  0.00  0.00    +0.000 A 
ENDBRANCH  14  15
ENDBRANCH  12  14
ENDBRANCH  11  12
ENDBRANCH   1  11
TORSDOF 6
ENDMDL
MODEL 6
REMARK VINA RESULT:      -6.3      0.428      1.215
REMARK  Name = 
REMARK  6 active torsions:
REMARK  status: ('A' for Active; 'I' for Inactive)
REMARK    1  A    between atoms: O_1  and  C_2
REMARK    2  A    between atoms: C_2  and  C_3
REMARK    3  A    between atoms: C_2  and  C_12
REMARK    4  A    between atoms: C_3  and  N_4
REMARK    5  A    between atoms: N_4  and  C_5
REMARK    6  A    between atoms: C_5  and  C_6
REMARK                            x       y       z     vdW  Elec       q    Type
REMARK                         _______ _______ _______ _____ _____    ______ ____
ROOT
ATOM      1  C   UNL     1       5.445   4.946  17.933  0.00  0.00    +0.000 C 
ENDROOT
BRANCH   1   2
ATOM      2  C   UNL     1       4.350   5.946  18.233  0.00  0.00    +0.000 A 
ATOM      3  C   UNL     1       4.081   6.994  17.338  0.00  0.00    +0.000 A 
ATOM      4  C   UNL     1       3.084   7.933  17.620  0.00  0.00    +0.000 A 
ATOM      5  C   UNL     1       2.345   7.825  18.795  0.00  0.00    +0.000 A 
ATOM      6 CL   UNL     1       1.131   8.992  19.152  0.00  0.00    +0.000 Cl
ATOM      7  C   UNL     1       2.589   6.786  19.689  0.00  0.00    +0.000 A 
ATOM      8  C   UNL     1       3.590   5.853  19.410  0.00  0.00    +0.000 A 
ENDBRANCH   1   2
BRANCH   1   9
ATOM      9  O   UNL     1       5.820   4.331  19.171  0.00  0.00    +0.000 OA
ATOM     10  H   UNL     1       6.729   4.604  19.360  0.00  0.00    +0.000 HD
ENDBRANCH   1   9
BRANCH   1  11
ATOM     11  C   UNL     1       5.038   3.852  16.913  0.00  0.00    +0.000 C 
BRANCH  11  12
ATOM     12  N   UNL     1       3.631   3.480  17.026  0.00  0.00    +0.000 NA
ATOM     13  H   UNL     1       3.201   3.386  16.108  0.00  0.00    +0.000 HD
BRANCH  12  14
ATOM     14  C   UNL     1       3.440   2.246  17.779  0.00  0.00    +0.000 C 
BRANCH  14  15
ATOM     15  C   UNL     1       2.701   2.544  19.059  0.00  0.00    +0.000 A 
ATOM     16  C   UNL     1       3.330   2.405  20.303  0.00  0.00    +0.000 A 
ATOM     17  C   UNL     1       2.619   2.638  21.481  0.00  0.00    +0.000 A 
ATOM     18  C   UNL     1       1.279   3.016  21.428  0.00  0.00    +0.000 A 
ATOM     19  C   UNL     1       0.645   3.168  20.198  0.00  0.00    +0.000 A 
ATOM     20  C   UNL     1       1.354   2.939  19.020  0.00  0.00    +0.000 A 
ENDBRANCH  14  15
ENDBRANCH  12  14
ENDBRANCH  11  12
ENDBRANCH   1  11
TORSDOF 6
ENDMDL
MODEL 7
REMARK VINA RESULT:      -6.3      0.453      1.225
REMARK  Name = 
REMARK  6 active torsions:
REMARK  status: ('A' for Active; 'I' for Inactive)
REMARK    1  A    between atoms: O_1  and  C_2
REMARK    2  A    between atoms: C_2  and  C_3
REMARK    3  A    between atoms: C_2  and  C_12
REMARK    4  A    between atoms: C_3  and  N_4
REMARK    5  A    between atoms: N_4  and  C_5
REMARK    6  A    between atoms: C_5  and  C_6
REMARK                            x       y       z     vdW  Elec       q    Type
REMARK                         _______ _______ _______ _____ _____    ______ ____
ROOT
ATOM      1  C   UNL     1       5.424   4.792  17.730  0.00  0.00    +0.000 C 
ENDROOT
BRANCH   1   2
ATOM      2  C   UNL     1       4.389   5.816  18.144  0.00  0.00    +0.000 A 
ATOM      3  C   UNL     1       3.719   5.691  19.371  0.00  0.00    +0.000 A 
ATOM      4  C   UNL     1       2.747   6.623  19.749  0.00  0.00    +0.000 A 
ATOM      5  C   UNL     1       2.444   7.688  18.905  0.00  0.00    +0.000 A 
ATOM      6 CL   UNL     1       1.234   8.823  19.361  0.00  0.00    +0.000 Cl
ATOM      7  C   UNL     1       3.106   7.835  17.689  0.00  0.00    +0.000 A 
ATOM      8  C   UNL     1       4.073   6.900  17.310  0.00  0.00    +0.000 A 
ENDBRANCH   1   2
BRANCH   1   9
ATOM      9  O   UNL     1       5.893   4.147  18.919  0.00  0.00    +0.000 OA
ATOM     10  H   UNL     1       6.860   4.133  18.872  0.00  0.00    +0.000 HD
ENDBRANCH   1   9
BRANCH   1  11
ATOM     11  C   UNL     1       4.895   3.728  16.736  0.00  0.00    +0.000 C 
BRANCH  11  12
ATOM     12  N   UNL     1       3.500   3.377  16.982  0.00  0.00    +0.000 NA
ATOM     13  H   UNL     1       2.985   3.276  16.109  0.00  0.00    +0.000 HD
BRANCH  12  14
ATOM     14  C   UNL     1       3.362   2.157  17.769  0.00  0.00    +0.000 C 
BRANCH  14  15
ATOM     15  C   UNL     1       2.628   2.461  19.051  0.00  0.00    +0.000 A 
ATOM     16  C   UNL     1       1.316   2.952  19.030  0.00  0.00    +0.000 A 
ATOM     17  C   UNL     1       0.666   3.274  20.223  0.00  0.00    +0.000 A 
ATOM     18  C   UNL     1       1.318   3.105  21.443  0.00  0.00    +0.000 A 
ATOM     19  C   UNL     1       2.617   2.608  21.477  0.00  0.00    +0.000 A 
ATOM     20  C   UNL     1       3.267   2.283  20.288  0.00  0.00    +0.000 A 
ENDBRANCH  14  15
ENDBRANCH  12  14
ENDBRANCH  11  12
ENDBRANCH   1  11
TORSDOF 6
ENDMDL
MODEL 8
REMARK VINA RESULT:      -6.2      1.126      1.992
REMARK  Name = 
REMARK  6 active torsions:
REMARK  status: ('A' for Active; 'I' for Inactive)
REMARK    1  A    between atoms: O_1  and  C_2
REMARK    2  A    between atoms: C_2  and  C_3
REMARK    3  A    between atoms: C_2  and  C_12
REMARK    4  A    between atoms: C_3  and  N_4
REMARK    5  A    between atoms: N_4  and  C_5
REMARK    6  A    between atoms: C_5  and  C_6
REMARK                            x       y       z     vdW  Elec       q    Type
REMARK                         _______ _______ _______ _____ _____    ______ ____
ROOT
ATOM      1  C   UNL     1       4.582   5.566  17.590  0.00  0.00    +0.000 C 
ENDROOT
BRANCH   1   2
ATOM      2  C   UNL     1       3.608   6.572  18.165  0.00  0.00    +0.000 A 
ATOM      3  C   UNL     1       3.043   6.368  19.433  0.00  0.00    +0.000 A 
ATOM      4  C   UNL     1       2.128   7.284  19.961  0.00  0.00    +0.000 A 
ATOM      5  C   UNL     1       1.778   8.413  19.225  0.00  0.00    +0.000 A 
ATOM      6 CL   UNL     1       0.635   9.530  19.865  0.00  0.00    +0.000 Cl
ATOM      7  C   UNL     1       2.336   8.639  17.970  0.00  0.00    +0.000 A 
ATOM      8  C   UNL     1       3.246   7.720  17.441  0.00  0.00    +0.000 A 
ENDBRANCH   1   2
BRANCH   1   9
ATOM      9  O   UNL     1       5.357   6.236  16.590  0.00  0.00    +0.000 OA
ATOM     10  H   UNL     1       4.766   6.860  16.143  0.00  0.00    +0.000 HD
ENDBRANCH   1   9
BRANCH   1  11
ATOM     11  C   UNL     1       5.528   4.933  18.641  0.00  0.00    +0.000 C 
BRANCH  11  12
ATOM     12  N   UNL     1       5.427   3.477  18.680  0.00  0.00    +0.000 NA
ATOM     13  H   UNL     1       5.532   3.125  19.630  0.00  0.00    +0.000 HD
BRANCH  12  14
ATOM     14  C   UNL     1       4.171   2.991  18.120  0.00  0.00    +0.000 C 
BRANCH  14  15
ATOM     15  C   UNL     1       3.113   2.966  19.196  0.00  0.00    +0.000 A 
ATOM     16  C   UNL     1       3.456   2.757  20.538  0.00  0.00    +0.000 A 
ATOM     17  C   UNL     1       2.462   2.688  21.516  0.00  0.00    +0.000 A 
ATOM     18  C   UNL     1       1.122   2.833  21.163  0.00  0.00    +0.000 A 
ATOM     19  C   UNL     1       0.769   3.051  19.834  0.00  0.00    +0.000 A 
ATOM     20  C   UNL     1       1.761   3.123  18.857  0.00  0.00    +0.000 A 
ENDBRANCH  14  15
ENDBRANCH  12  14
ENDBRANCH  11  12
ENDBRANCH   1  11
TORSDOF 6
ENDMDL
MODEL 9
REMARK VINA RESULT:      -6.2      1.218      1.726
REMARK  Name = 
REMARK  6 active torsions:
REMARK  status: ('A' for Active; 'I' for Inactive)
REMARK    1  A    between atoms: O_1  and  C_2
REMARK    2  A    between atoms: C_2  and  C_3
REMARK    3  A    between atoms: C_2  and  C_12
REMARK    4  A    between atoms: C_3  and  N_4
REMARK    5  A    between atoms: N_4  and  C_5
REMARK    6  A    between atoms: C_5  and  C_6
REMARK                            x       y       z     vdW  Elec       q    Type
REMARK                         _______ _______ _______ _____ _____    ______ ____
ROOT
ATOM      1  C   UNL     1       4.272   5.625  17.462  0.00  0.00    +0.000 C 
ENDROOT
BRANCH   1   2
ATOM      2  C   UNL     1       3.359   6.644  18.111  0.00  0.00    +0.000 A 
ATOM      3  C   UNL     1       3.012   7.821  17.429  0.00  0.00    +0.000 A 
ATOM      4  C   UNL     1       2.186   8.774  18.031  0.00  0.00    +0.000 A 
ATOM      5  C   UNL     1       1.696   8.553  19.316  0.00  0.00    +0.000 A 
ATOM      6 CL   UNL     1       0.696   9.736  20.065  0.00  0.00    +0.000 Cl
ATOM      7  C   UNL     1       2.020   7.386  20.003  0.00  0.00    +0.000 A 
ATOM      8  C   UNL     1       2.851   6.437  19.403  0.00  0.00    +0.000 A 
ENDBRANCH   1   2
BRANCH   1   9
ATOM      9  O   UNL     1       4.803   6.216  16.272  0.00  0.00    +0.000 OA
ATOM     10  H   UNL     1       4.054   6.401  15.687  0.00  0.00    +0.000 HD
ENDBRANCH   1   9
BRANCH   1  11
ATOM     11  C   UNL     1       5.436   5.153  18.371  0.00  0.00    +0.000 C 
BRANCH  11  12
ATOM     12  N   UNL     1       5.384   3.720  18.646  0.00  0.00    +0.000 NA
ATOM     13  H   UNL     1       5.440   3.534  19.645  0.00  0.00    +0.000 HD
BRANCH  12  14
ATOM     14  C   UNL     1       4.185   3.091  18.104  0.00  0.00    +0.000 C 
BRANCH  14  15
ATOM     15  C   UNL     1       3.123   3.021  19.173  0.00  0.00    +0.000 A 
ATOM     16  C   UNL     1       3.467   2.853  20.520  0.00  0.00    +0.000 A 
ATOM     17  C   UNL     1       2.472   2.742  21.492  0.00  0.00    +0.000 A 
ATOM     18  C   UNL     1       1.128   2.802  21.129  0.00  0.00    +0.000 A 
ATOM     19  C   UNL     1       0.773   2.979  19.795  0.00  0.00    +0.000 A 
ATOM     20  C   UNL     1       1.766   3.093  18.823  0.00  0.00    +0.000 A 
ENDBRANCH  14  15
ENDBRANCH  12  14
ENDBRANCH  11  12
ENDBRANCH   1  11
TORSDOF 6
ENDMDL
