MODEL 1
REMARK VINA RESULT:      -7.2      0.000      0.000
REMARK  Name = 
REMARK  8 active torsions:
REMARK  status: ('A' for Active; 'I' for Inactive)
REMARK    1  A    between atoms: C_1  and  C_2
REMARK    2  A    between atoms: C_2  and  C_3
REMARK    3  A    between atoms: C_2  and  C_4
REMARK    4  A    between atoms: C_4  and  C_5
REMARK    5  A    between atoms: C_5  and  N_6
REMARK    6  A    between atoms: C_7  and  C_9
REMARK    7  A    between atoms: C_9  and  S_10
REMARK    8  A    between atoms: S_10  and  C_11
REMARK                            x       y       z     vdW  Elec       q    Type
REMARK                         _______ _______ _______ _____ _____    ______ ____
ROOT
ATOM      1  C   UNL     1       6.897   4.958  18.769  0.00  0.00    +0.000 C 
ENDROOT
BRANCH   1   3
ATOM      2  N   UNL     1       5.219   3.246  19.252  0.00  0.00    +0.000 N 
ATOM      3  C   UNL     1       5.487   4.598  19.205  0.00  0.00    +0.000 C 
ATOM      4  O   UNL     1       4.643   5.450  19.481  0.00  0.00    +0.000 OA
ATOM      5  H   UNL     1       5.989   2.590  19.164  0.00  0.00    +0.000 HD
BRANCH   2   6
ATOM      6  C   UNL     1       3.934   2.745  19.693  0.00  0.00    +0.000 C 
BRANCH   6   7
ATOM      7  C   UNL     1       3.096   2.182  18.539  0.00  0.00    +0.000 C 
BRANCH   7   9
ATOM      8  C   UNL     1       1.018   2.954  19.790  0.00  0.00    +0.000 C 
ATOM      9  C   UNL     1       1.685   2.792  18.424  0.00  0.00    +0.000 C 
ATOM     10  C   UNL     1       1.739   4.151  17.720  0.00  0.00    +0.000 C 
ENDBRANCH   7   9
ENDBRANCH   6   7
ENDBRANCH   2   6
ENDBRANCH   1   3
BRANCH   1  11
ATOM     11  S   UNL     1       6.879   6.383  17.646  0.00  0.00    +0.000 S 
BRANCH  11  12
ATOM     12  C   UNL     1       6.610   5.577  16.117  0.00  0.00    +0.000 A 
ATOM     13  N   UNL     1       7.476   5.668  15.134  0.00  0.00    +0.000 NA
ATOM     14  C   UNL     1       7.029   4.914  14.058  0.00  0.00    +0.000 A 
ATOM     15  C   UNL     1       7.697   4.757  12.828  0.00  0.00    +0.000 A 
ATOM     16  C   UNL     1       7.135   3.957  11.827  0.00  0.00    +0.000 A 
ATOM     17  C   UNL     1       5.915   3.320  12.036  0.00  0.00    +0.000 A 
ATOM     18  C   UNL     1       5.228   3.467  13.244  0.00  0.00    +0.000 A 
ATOM     19  C   UNL     1       5.806   4.265  14.245  0.00  0.00    +0.000 A 
ATOM     20  S   UNL     1       5.226   4.617  15.828  0.00  0.00    +0.000 S 
ENDBRANCH  11  12
ENDBRANCH   1  11
TORSDOF 6
ENDMDL
MODEL 2
REMARK VINA RESULT:      -7.1      4.004      7.846
REMARK  Name = 
REMARK  8 active torsions:
REMARK  status: ('A' for Active; 'I' for Inactive)
REMARK    1  A    between atoms: C_1  and  C_2
REMARK    2  A    between atoms: C_2  and  C_3
REMARK    3  A    between atoms: C_2  and  C_4
REMARK    4  A    between atoms: C_4  and  C_5
REMARK    5  A    between atoms: C_5  and  N_6
REMARK    6  A    between atoms: C_7  and  C_9
REMARK    7  A    between atoms: C_9  and  S_10
REMARK    8  A    between atoms: S_10  and  C_11
REMARK                            x       y       z     vdW  Elec       q    Type
REMARK                         _______ _______ _______ _____ _____    ______ ____
ROOT
ATOM      1  C   UNL     1       7.750   5.856  18.665  0.00  0.00    +0.000 C 
ENDROOT
BRANCH   1   3
ATOM      2  N   UNL     1       8.455   8.196  18.752  0.00  0.00    +0.000 N 
ATOM      3  C   UNL     1       7.796   7.231  18.020  0.00  0.00    +0.000 C 
ATOM      4  O   UNL     1       7.272   7.468  16.932  0.00  0.00    +0.000 OA
ATOM      5  H   UNL     1       8.996   7.912  19.564  0.00  0.00    +0.000 HD
BRANCH   2   6
ATOM      6  C   UNL     1       8.622   9.544  18.250  0.00  0.00    +0.000 C 
BRANCH   6   7
ATOM      7  C   UNL     1       9.418  10.435  19.212  0.00  0.00    +0.000 C 
BRANCH   7   9
ATOM      8  C   UNL     1      11.130  11.746  17.860  0.00  0.00    +0.000 C 
ATOM      9  C   UNL     1       9.809  11.806  18.627  0.00  0.00    +0.000 C 
ATOM     10  C   UNL     1       8.708  12.334  17.702  0.00  0.00    +0.000 C 
ENDBRANCH   7   9
ENDBRANCH   6   7
ENDBRANCH   2   6
ENDBRANCH   1   3
BRANCH   1  11
ATOM     11  S   UNL     1       6.917   4.665  17.579  0.00  0.00    +0.000 S 
BRANCH  11  12
ATOM     12  C   UNL     1       5.392   4.486  18.417  0.00  0.00    +0.000 A 
ATOM     13  N   UNL     1       5.142   3.439  19.169  0.00  0.00    +0.000 NA
ATOM     14  C   UNL     1       3.880   3.569  19.731  0.00  0.00    +0.000 A 
ATOM     15  C   UNL     1       3.270   2.649  20.606  0.00  0.00    +0.000 A 
ATOM     16  C   UNL     1       1.990   2.910  21.109  0.00  0.00    +0.000 A 
ATOM     17  C   UNL     1       1.312   4.069  20.744  0.00  0.00    +0.000 A 
ATOM     18  C   UNL     1       1.892   4.993  19.871  0.00  0.00    +0.000 A 
ATOM     19  C   UNL     1       3.181   4.726  19.380  0.00  0.00    +0.000 A 
ATOM     20  S   UNL     1       4.160   5.667  18.321  0.00  0.00    +0.000 S 
ENDBRANCH  11  12
ENDBRANCH   1  11
TORSDOF 6
ENDMDL
MODEL 3
REMARK VINA RESULT:      -7.1      1.862      6.330
REMARK  Name = 
REMARK  8 active torsions:
REMARK  status: ('A' for Active; 'I' for Inactive)
REMARK    1  A    between atoms: C_1  and  C_2
REMARK    2  A    between atoms: C_2  and  C_3
REMARK    3  A    between atoms: C_2  and  C_4
REMARK    4  A    between atoms: C_4  and  C_5
REMARK    5  A    between atoms: C_5  and  N_6
REMARK    6  A    between atoms: C_7  and  C_9
REMARK    7  A    between atoms: C_9  and  S_10
REMARK    8  A    between atoms: S_10  and  C_11
REMARK                            x       y       z     vdW  Elec       q    Type
REMARK                         _______ _______ _______ _____ _____    ______ ____
ROOT
ATOM      1  C   UNL     1       6.620   6.627  17.551  0.00  0.00    +0.000 C 
ENDROOT
BRANCH   1   3
ATOM      2  N   UNL     1       6.470   5.529  15.370  0.00  0.00    +0.000 N 
ATOM      3  C   UNL     1       7.026   5.487  16.631  0.00  0.00    +0.000 C 
ATOM      4  O   UNL     1       7.784   4.586  16.991  0.00  0.00    +0.000 OA
ATOM      5  H   UNL     1       5.978   6.368  15.079  0.00  0.00    +0.000 HD
BRANCH   2   6
ATOM      6  C   UNL     1       6.796   4.537  14.367  0.00  0.00    +0.000 C 
BRANCH   6   7
ATOM      7  C   UNL     1       5.549   3.879  13.764  0.00  0.00    +0.000 C 
BRANCH   7   9
ATOM      8  C   UNL     1       4.554   3.282  11.498  0.00  0.00    +0.000 C 
ATOM      9  C   UNL     1       5.786   3.202  12.399  0.00  0.00    +0.000 C 
ATOM     10  C   UNL     1       6.982   3.837  11.682  0.00  0.00    +0.000 C 
ENDBRANCH   7   9
ENDBRANCH   6   7
ENDBRANCH   2   6
ENDBRANCH   1   3
BRANCH   1  11
ATOM     11  S   UNL     1       4.908   7.134  17.229  0.00  0.00    +0.000 S 
BRANCH  11  12
ATOM     12  C   UNL     1       4.041   5.854  18.050  0.00  0.00    +0.000 A 
ATOM     13  N   UNL     1       2.892   5.407  17.597  0.00  0.00    +0.000 NA
ATOM     14  C   UNL     1       2.444   4.383  18.419  0.00  0.00    +0.000 A 
ATOM     15  C   UNL     1       1.255   3.648  18.246  0.00  0.00    +0.000 A 
ATOM     16  C   UNL     1       0.927   2.630  19.148  0.00  0.00    +0.000 A 
ATOM     17  C   UNL     1       1.765   2.342  20.222  0.00  0.00    +0.000 A 
ATOM     18  C   UNL     1       2.947   3.062  20.420  0.00  0.00    +0.000 A 
ATOM     19  C   UNL     1       3.271   4.075  19.503  0.00  0.00    +0.000 A 
ATOM     20  S   UNL     1       4.648   5.108  19.463  0.00  0.00    +0.000 S 
ENDBRANCH  11  12
ENDBRANCH   1  11
TORSDOF 6
ENDMDL
MODEL 4
REMARK VINA RESULT:      -7.1      2.184      6.638
REMARK  Name = 
REMARK  8 active torsions:
REMARK  status: ('A' for Active; 'I' for Inactive)
REMARK    1  A    between atoms: C_1  and  C_2
REMARK    2  A    between atoms: C_2  and  C_3
REMARK    3  A    between atoms: C_2  and  C_4
REMARK    4  A    between atoms: C_4  and  C_5
REMARK    5  A    between atoms: C_5  and  N_6
REMARK    6  A    between atoms: C_7  and  C_9
REMARK    7  A    between atoms: C_9  and  S_10
REMARK    8  A    between atoms: S_10  and  C_11
REMARK                            x       y       z     vdW  Elec       q    Type
REMARK                         _______ _______ _______ _____ _____    ______ ____
ROOT
ATOM      1  C   UNL     1       6.818   4.888  16.574  0.00  0.00    +0.000 C 
ENDROOT
BRANCH   1   3
ATOM      2  N   UNL     1       6.317   3.796  14.444  0.00  0.00    +0.000 N 
ATOM      3  C   UNL     1       7.029   4.795  15.072  0.00  0.00    +0.000 C 
ATOM      4  O   UNL     1       7.791   5.547  14.464  0.00  0.00    +0.000 OA
ATOM      5  H   UNL     1       5.593   3.309  14.964  0.00  0.00    +0.000 HD
BRANCH   2   6
ATOM      6  C   UNL     1       6.378   3.611  13.009  0.00  0.00    +0.000 C 
BRANCH   6   7
ATOM      7  C   UNL     1       5.060   3.974  12.313  0.00  0.00    +0.000 C 
BRANCH   7   9
ATOM      8  C   UNL     1       3.479   3.258  10.452  0.00  0.00    +0.000 C 
ATOM      9  C   UNL     1       4.374   2.793  11.600  0.00  0.00    +0.000 C 
ATOM     10  C   UNL     1       5.415   1.805  11.064  0.00  0.00    +0.000 C 
ENDBRANCH   7   9
ENDBRANCH   6   7
ENDBRANCH   2   6
ENDBRANCH   1   3
BRANCH   1  11
ATOM     11  S   UNL     1       5.675   6.236  16.980  0.00  0.00    +0.000 S 
BRANCH  11  12
ATOM     12  C   UNL     1       4.391   5.337  17.757  0.00  0.00    +0.000 A 
ATOM     13  N   UNL     1       3.861   5.740  18.890  0.00  0.00    +0.000 NA
ATOM     14  C   UNL     1       2.854   4.862  19.262  0.00  0.00    +0.000 A 
ATOM     15  C   UNL     1       2.049   4.972  20.414  0.00  0.00    +0.000 A 
ATOM     16  C   UNL     1       1.058   4.017  20.665  0.00  0.00    +0.000 A 
ATOM     17  C   UNL     1       0.867   2.952  19.789  0.00  0.00    +0.000 A 
ATOM     18  C   UNL     1       1.658   2.816  18.644  0.00  0.00    +0.000 A 
ATOM     19  C   UNL     1       2.643   3.786  18.397  0.00  0.00    +0.000 A 
ATOM     20  S   UNL     1       3.745   3.907  17.080  0.00  0.00    +0.000 S 
ENDBRANCH  11  12
ENDBRANCH   1  11
TORSDOF 6
ENDMDL
MODEL 5
REMARK VINA RESULT:      -7.0      1.794      6.570
REMARK  Name = 
REMARK  8 active torsions:
REMARK  status: ('A' for Active; 'I' for Inactive)
REMARK    1  A    between atoms: C_1  and  C_2
REMARK    2  A    between atoms: C_2  and  C_3
REMARK    3  A    between atoms: C_2  and  C_4
REMARK    4  A    between atoms: C_4  and  C_5
REMARK    5  A    between atoms: C_5  and  N_6
REMARK    6  A    between atoms: C_7  and  C_9
REMARK    7  A    between atoms: C_9  and  S_10
REMARK    8  A    between atoms: S_10  and  C_11
REMARK                            x       y       z     vdW  Elec       q    Type
REMARK                         _______ _______ _______ _____ _____    ______ ____
ROOT
ATOM      1  C   UNL     1       6.826   6.084  17.828  0.00  0.00    +0.000 C 
ENDROOT
BRANCH   1   3
ATOM      2  N   UNL     1       6.723   5.340  15.501  0.00  0.00    +0.000 N 
ATOM      3  C   UNL     1       7.272   5.116  16.746  0.00  0.00    +0.000 C 
ATOM      4  O   UNL     1       8.054   4.192  16.967  0.00  0.00    +0.000 OA
ATOM      5  H   UNL     1       6.208   6.201  15.339  0.00  0.00    +0.000 HD
BRANCH   2   6
ATOM      6  C   UNL     1       7.086   4.530  14.357  0.00  0.00    +0.000 C 
BRANCH   6   7
ATOM      7  C   UNL     1       5.882   3.803  13.746  0.00  0.00    +0.000 C 
BRANCH   7   9
ATOM      8  C   UNL     1       7.252   4.176  11.633  0.00  0.00    +0.000 C 
ATOM      9  C   UNL     1       5.916   3.703  12.208  0.00  0.00    +0.000 C 
ATOM     10  C   UNL     1       5.649   2.265  11.753  0.00  0.00    +0.000 C 
ENDBRANCH   7   9
ENDBRANCH   6   7
ENDBRANCH   2   6
ENDBRANCH   1   3
BRANCH   1  11
ATOM     11  S   UNL     1       5.217   6.814  17.415  0.00  0.00    +0.000 S 
BRANCH  11  12
ATOM     12  C   UNL     1       4.142   5.640  18.139  0.00  0.00    +0.000 A 
ATOM     13  N   UNL     1       3.682   5.794  19.360  0.00  0.00    +0.000 NA
ATOM     14  C   UNL     1       2.836   4.737  19.668  0.00  0.00    +0.000 A 
ATOM     15  C   UNL     1       2.144   4.564  20.882  0.00  0.00    +0.000 A 
ATOM     16  C   UNL     1       1.312   3.452  21.056  0.00  0.00    +0.000 A 
ATOM     17  C   UNL     1       1.170   2.511  20.040  0.00  0.00    +0.000 A 
ATOM     18  C   UNL     1       1.853   2.657  18.829  0.00  0.00    +0.000 A 
ATOM     19  C   UNL     1       2.677   3.781  18.662  0.00  0.00    +0.000 A 
ATOM     20  S   UNL     1       3.618   4.248  17.297  0.00  0.00    +0.000 S 
ENDBRANCH  11  12
ENDBRANCH   1  11
TORSDOF 6
ENDMDL
MODEL 6
REMARK VINA RESULT:      -7.0      1.609      6.160
REMARK  Name = 
REMARK  8 active torsions:
REMARK  status: ('A' for Active; 'I' for Inactive)
REMARK    1  A    between atoms: C_1  and  C_2
REMARK    2  A    between atoms: C_2  and  C_3
REMARK    3  A    between atoms: C_2  and  C_4
REMARK    4  A    between atoms: C_4  and  C_5
REMARK    5  A    between atoms: C_5  and  N_6
REMARK    6  A    between atoms: C_7  and  C_9
REMARK    7  A    between atoms: C_9  and  S_10
REMARK    8  A    between atoms: S_10  and  C_11
REMARK                            x       y       z     vdW  Elec       q    Type
REMARK                         _______ _______ _______ _____ _____    ______ ____
ROOT
ATOM      1  C   UNL     1       7.117   6.278  17.021  0.00  0.00    +0.000 C 
ENDROOT
BRANCH   1   3
ATOM      2  N   UNL     1       6.158   4.990  15.177  0.00  0.00    +0.000 N 
ATOM      3  C   UNL     1       7.105   5.015  16.178  0.00  0.00    +0.000 C 
ATOM      4  O   UNL     1       7.876   4.077  16.383  0.00  0.00    +0.000 OA
ATOM      5  H   UNL     1       5.656   5.845  14.955  0.00  0.00    +0.000 HD
BRANCH   2   6
ATOM      6  C   UNL     1       6.054   3.873  14.261  0.00  0.00    +0.000 C 
BRANCH   6   7
ATOM      7  C   UNL     1       6.813   4.115  12.950  0.00  0.00    +0.000 C 
BRANCH   7   9
ATOM      8  C   UNL     1       6.764   2.016  11.511  0.00  0.00    +0.000 C 
ATOM      9  C   UNL     1       6.194   3.419  11.722  0.00  0.00    +0.000 C 
ATOM     10  C   UNL     1       4.670   3.331  11.860  0.00  0.00    +0.000 C 
ENDBRANCH   7   9
ENDBRANCH   6   7
ENDBRANCH   2   6
ENDBRANCH   1   3
BRANCH   1  11
ATOM     11  S   UNL     1       6.897   5.881  18.777  0.00  0.00    +0.000 S 
BRANCH  11  12
ATOM     12  C   UNL     1       5.343   5.079  18.728  0.00  0.00    +0.000 A 
ATOM     13  N   UNL     1       5.195   3.846  19.156  0.00  0.00    +0.000 NA
ATOM     14  C   UNL     1       3.865   3.473  19.026  0.00  0.00    +0.000 A 
ATOM     15  C   UNL     1       3.320   2.227  19.394  0.00  0.00    +0.000 A 
ATOM     16  C   UNL     1       1.953   1.986  19.217  0.00  0.00    +0.000 A 
ATOM     17  C   UNL     1       1.128   2.966  18.673  0.00  0.00    +0.000 A 
ATOM     18  C   UNL     1       1.646   4.207  18.293  0.00  0.00    +0.000 A 
ATOM     19  C   UNL     1       3.018   4.442  18.483  0.00  0.00    +0.000 A 
ATOM     20  S   UNL     1       3.938   5.857  18.142  0.00  0.00    +0.000 S 
ENDBRANCH  11  12
ENDBRANCH   1  11
TORSDOF 6
ENDMDL
MODEL 7
REMARK VINA RESULT:      -7.0      2.361      6.885
REMARK  Name = 
REMARK  8 active torsions:
REMARK  status: ('A' for Active; 'I' for Inactive)
REMARK    1  A    between atoms: C_1  and  C_2
REMARK    2  A    between atoms: C_2  and  C_3
REMARK    3  A    between atoms: C_2  and  C_4
REMARK    4  A    between atoms: C_4  and  C_5
REMARK    5  A    between atoms: C_5  and  N_6
REMARK    6  A    between atoms: C_7  and  C_9
REMARK    7  A    between atoms: C_9  and  S_10
REMARK    8  A    between atoms: S_10  and  C_11
REMARK                            x       y       z     vdW  Elec       q    Type
REMARK                         _______ _______ _______ _____ _____    ______ ____
ROOT
ATOM      1  C   UNL     1       6.427   4.912  16.135  0.00  0.00    +0.000 C 
ENDROOT
BRANCH   1   3
ATOM      2  N   UNL     1       6.079   3.841  13.964  0.00  0.00    +0.000 N 
ATOM      3  C   UNL     1       6.824   4.756  14.677  0.00  0.00    +0.000 C 
ATOM      4  O   UNL     1       7.751   5.391  14.174  0.00  0.00    +0.000 OA
ATOM      5  H   UNL     1       5.235   3.462  14.384  0.00  0.00    +0.000 HD
BRANCH   2   6
ATOM      6  C   UNL     1       6.308   3.615  12.552  0.00  0.00    +0.000 C 
BRANCH   6   7
ATOM      7  C   UNL     1       5.481   2.446  12.003  0.00  0.00    +0.000 C 
BRANCH   7   9
ATOM      8  C   UNL     1       7.701   1.953  10.860  0.00  0.00    +0.000 C 
ATOM      9  C   UNL     1       6.226   1.570  10.977  0.00  0.00    +0.000 C 
ATOM     10  C   UNL     1       6.115   0.088  11.350  0.00  0.00    +0.000 C 
ENDBRANCH   7   9
ENDBRANCH   6   7
ENDBRANCH   2   6
ENDBRANCH   1   3
BRANCH   1  11
ATOM     11  S   UNL     1       5.158   6.194  16.323  0.00  0.00    +0.000 S 
BRANCH  11  12
ATOM     12  C   UNL     1       3.982   5.335  17.292  0.00  0.00    +0.000 A 
ATOM     13  N   UNL     1       3.615   4.109  16.997  0.00  0.00    +0.000 NA
ATOM     14  C   UNL     1       2.700   3.664  17.941  0.00  0.00    +0.000 A 
ATOM     15  C   UNL     1       2.093   2.393  17.964  0.00  0.00    +0.000 A 
ATOM     16  C   UNL     1       1.191   2.071  18.984  0.00  0.00    +0.000 A 
ATOM     17  C   UNL     1       0.882   3.002  19.972  0.00  0.00    +0.000 A 
ATOM     18  C   UNL     1       1.465   4.272  19.967  0.00  0.00    +0.000 A 
ATOM     19  C   UNL     1       2.377   4.581  18.944  0.00  0.00    +0.000 A 
ATOM     20  S   UNL     1       3.266   6.032  18.680  0.00  0.00    +0.000 S 
ENDBRANCH  11  12
ENDBRANCH   1  11
TORSDOF 6
ENDMDL
MODEL 8
REMARK VINA RESULT:      -7.0      4.072      7.700
REMARK  Name = 
REMARK  8 active torsions:
REMARK  status: ('A' for Active; 'I' for Inactive)
REMARK    1  A    between atoms: C_1  and  C_2
REMARK    2  A    between atoms: C_2  and  C_3
REMARK    3  A    between atoms: C_2  and  C_4
REMARK    4  A    between atoms: C_4  and  C_5
REMARK    5  A    between atoms: C_5  and  N_6
REMARK    6  A    between atoms: C_7  and  C_9
REMARK    7  A    between atoms: C_9  and  S_10
REMARK    8  A    between atoms: S_10  and  C_11
REMARK                            x       y       z     vdW  Elec       q    Type
REMARK                         _______ _______ _______ _____ _____    ______ ____
ROOT
ATOM      1  C   UNL     1       7.580   5.853  18.455  0.00  0.00    +0.000 C 
ENDROOT
BRANCH   1   3
ATOM      2  N   UNL     1       8.490   8.099  18.787  0.00  0.00    +0.000 N 
ATOM      3  C   UNL     1       7.753   7.278  17.959  0.00  0.00    +0.000 C 
ATOM      4  O   UNL     1       7.260   7.674  16.903  0.00  0.00    +0.000 OA
ATOM      5  H   UNL     1       8.999   7.684  19.562  0.00  0.00    +0.000 HD
BRANCH   2   6
ATOM      6  C   UNL     1       8.780   9.471  18.429  0.00  0.00    +0.000 C 
BRANCH   6   7
ATOM      7  C   UNL     1       9.320  10.286  19.611  0.00  0.00    +0.000 C 
BRANCH   7   9
ATOM      8  C   UNL     1      11.170  11.949  20.147  0.00  0.00    +0.000 C 
ATOM      9  C   UNL     1      10.014  11.602  19.209  0.00  0.00    +0.000 C 
ATOM     10  C   UNL     1      10.535  11.521  17.770  0.00  0.00    +0.000 C 
ENDBRANCH   7   9
ENDBRANCH   6   7
ENDBRANCH   2   6
ENDBRANCH   1   3
BRANCH   1  11
ATOM     11  S   UNL     1       6.813   4.817  17.180  0.00  0.00    +0.000 S 
BRANCH  11  12
ATOM     12  C   UNL     1       5.248   4.527  17.907  0.00  0.00    +0.000 A 
ATOM     13  N   UNL     1       4.856   5.188  18.973  0.00  0.00    +0.000 NA
ATOM     14  C   UNL     1       3.575   4.781  19.317  0.00  0.00    +0.000 A 
ATOM     15  C   UNL     1       2.816   5.276  20.397  0.00  0.00    +0.000 A 
ATOM     16  C   UNL     1       1.527   4.783  20.625  0.00  0.00    +0.000 A 
ATOM     17  C   UNL     1       0.990   3.800  19.798  0.00  0.00    +0.000 A 
ATOM     18  C   UNL     1       1.726   3.287  18.726  0.00  0.00    +0.000 A 
ATOM     19  C   UNL     1       3.015   3.796  18.499  0.00  0.00    +0.000 A 
ATOM     20  S   UNL     1       4.144   3.391  17.264  0.00  0.00    +0.000 S 
ENDBRANCH  11  12
ENDBRANCH   1  11
TORSDOF 6
ENDMDL
MODEL 9
REMARK VINA RESULT:      -7.0      1.811      6.734
REMARK  Name = 
REMARK  8 active torsions:
REMARK  status: ('A' for Active; 'I' for Inactive)
REMARK    1  A    between atoms: C_1  and  C_2
REMARK    2  A    between atoms: C_2  and  C_3
REMARK    3  A    between atoms: C_2  and  C_4
REMARK    4  A    between atoms: C_4  and  C_5
REMARK    5  A    between atoms: C_5  and  N_6
REMARK    6  A    between atoms: C_7  and  C_9
REMARK    7  A    between atoms: C_9  and  S_10
REMARK    8  A    between atoms: S_10  and  C_11
REMARK                            x       y       z     vdW  Elec       q    Type
REMARK                         _______ _______ _______ _____ _____    ______ ____
ROOT
ATOM      1  C   UNL     1       6.249   6.154  16.873  0.00  0.00    +0.000 C 
ENDROOT
BRANCH   1   3
ATOM      2  N   UNL     1       6.337   5.345  14.567  0.00  0.00    +0.000 N 
ATOM      3  C   UNL     1       6.850   5.216  15.840  0.00  0.00    +0.000 C 
ATOM      4  O   UNL     1       7.720   4.392  16.122  0.00  0.00    +0.000 OA
ATOM      5  H   UNL     1       5.737   6.138  14.358  0.00  0.00    +0.000 HD
BRANCH   2   6
ATOM      6  C   UNL     1       6.840   4.553  13.464  0.00  0.00    +0.000 C 
BRANCH   6   7
ATOM      7  C   UNL     1       5.999   3.296  13.212  0.00  0.00    +0.000 C 
BRANCH   7   9
ATOM      8  C   UNL     1       6.084   1.588  11.326  0.00  0.00    +0.000 C 
ATOM      9  C   UNL     1       5.708   3.016  11.724  0.00  0.00    +0.000 C 
ATOM     10  C   UNL     1       4.230   3.259  11.407  0.00  0.00    +0.000 C 
ENDBRANCH   7   9
ENDBRANCH   6   7
ENDBRANCH   2   6
ENDBRANCH   1   3
BRANCH   1  11
ATOM     11  S   UNL     1       6.673   5.616  18.553  0.00  0.00    +0.000 S 
BRANCH  11  12
ATOM     12  C   UNL     1       5.120   5.023  19.097  0.00  0.00    +0.000 A 
ATOM     13  N   UNL     1       4.916   3.745  19.323  0.00  0.00    +0.000 NA
ATOM     14  C   UNL     1       3.614   3.561  19.767  0.00  0.00    +0.000 A 
ATOM     15  C   UNL     1       3.032   2.328  20.124  0.00  0.00    +0.000 A 
ATOM     16  C   UNL     1       1.706   2.287  20.568  0.00  0.00    +0.000 A 
ATOM     17  C   UNL     1       0.953   3.455  20.652  0.00  0.00    +0.000 A 
ATOM     18  C   UNL     1       1.505   4.689  20.295  0.00  0.00    +0.000 A 
ATOM     19  C   UNL     1       2.840   4.720  19.861  0.00  0.00    +0.000 A 
ATOM     20  S   UNL     1       3.798   6.069  19.381  0.00  0.00    +0.000 S 
ENDBRANCH  11  12
ENDBRANCH   1  11
TORSDOF 6
ENDMDL
