MODEL 1
REMARK VINA RESULT:      -8.4      0.000      0.000
REMARK  Name = 
REMARK  4 active torsions:
REMARK  status: ('A' for Active; 'I' for Inactive)
REMARK    1  A    between atoms: C_1  and  N_2
REMARK    2  A    between atoms: C_3  and  O_5
REMARK    3  A    between atoms: O_5  and  C_6
REMARK    4  A    between atoms: C_13  and  C_14
REMARK                            x       y       z     vdW  Elec       q    Type
REMARK                         _______ _______ _______ _____ _____    ______ ____
ROOT
ATOM      1  C   UNL     1       5.777   4.923  17.963  0.00  0.00    +0.000 C 
ATOM      2  C   UNL     1       4.672   4.535  18.947  0.00  0.00    +0.000 C 
ATOM      3  C   UNL     1       3.292   4.982  18.476  0.00  0.00    +0.000 C 
ATOM      4  N   UNL     1       3.301   6.391  18.099  0.00  0.00    +0.000 N 
ATOM      5  C   UNL     1       2.519   7.297  18.789  0.00  0.00    +0.000 A 
ATOM      6  C   UNL     1       2.027   8.433  18.161  0.00  0.00    +0.000 A 
ATOM      7  C   UNL     1       1.217   9.340  18.847  0.00  0.00    +0.000 A 
ATOM      8  C   UNL     1       0.913   9.116  20.180  0.00  0.00    +0.000 A 
ATOM      9  N   UNL     1       1.380   8.004  20.779  0.00  0.00    +0.000 NA
ATOM     10  N   UNL     1       2.172   7.092  20.073  0.00  0.00    +0.000 NA
ATOM     11  C   UNL     1       4.304   6.817  17.131  0.00  0.00    +0.000 C 
ATOM     12  C   UNL     1       5.695   6.409  17.607  0.00  0.00    +0.000 C 
ENDROOT
BRANCH   8  13
ATOM     13  C   UNL     1       0.075  10.029  20.984  0.00  0.00    +0.000 A 
ATOM     14  C   UNL     1      -0.181   9.777  22.343  0.00  0.00    +0.000 A 
ATOM     15  C   UNL     1      -0.999  10.624  23.103  0.00  0.00    +0.000 A 
ATOM     16  C   UNL     1      -1.580  11.751  22.519  0.00  0.00    +0.000 A 
ATOM     17 CL   UNL     1      -2.580  12.753  23.507  0.00  0.00    +0.000 Cl
ATOM     18  C   UNL     1      -1.336  12.030  21.174  0.00  0.00    +0.000 A 
ATOM     19 CL   UNL     1      -2.018  13.398  20.368  0.00  0.00    +0.000 Cl
ATOM     20  C   UNL     1      -0.513  11.179  20.422  0.00  0.00    +0.000 A 
ENDBRANCH   8  13
BRANCH   1  21
ATOM     21  O   UNL     1       5.682   4.150  16.746  0.00  0.00    +0.000 OA
BRANCH  21  24
ATOM     22  C   UNL     1       7.025   4.539  13.437  0.00  0.00    +0.000 C 
ATOM     23  N   UNL     1       6.179   4.370  14.586  0.00  0.00    +0.000 N 
ATOM     24  C   UNL     1       6.686   4.355  15.848  0.00  0.00    +0.000 C 
ATOM     25  O   UNL     1       7.865   4.496  16.130  0.00  0.00    +0.000 OA
ATOM     26  H   UNL     1       5.183   4.231  14.486  0.00  0.00    +0.000 HD
ENDBRANCH  21  24
ENDBRANCH   1  21
TORSDOF 3
ENDMDL
MODEL 2
REMARK VINA RESULT:      -8.0      1.004      1.101
REMARK  Name = 
REMARK  4 active torsions:
REMARK  status: ('A' for Active; 'I' for Inactive)
REMARK    1  A    between atoms: C_1  and  N_2
REMARK    2  A    between atoms: C_3  and  O_5
REMARK    3  A    between atoms: O_5  and  C_6
REMARK    4  A    between atoms: C_13  and  C_14
REMARK                            x       y       z     vdW  Elec       q    Type
REMARK                         _______ _______ _______ _____ _____    ______ ____
ROOT
ATOM      1  C   UNL     1       6.374   4.633  16.978  0.00  0.00    +0.000 C 
ATOM      2  C   UNL     1       5.359   4.149  18.014  0.00  0.00    +0.000 C 
ATOM      3  C   UNL     1       3.932   4.563  17.668  0.00  0.00    +0.000 C 
ATOM      4  N   UNL     1       3.862   5.988  17.369  0.00  0.00    +0.000 N 
ATOM      5  C   UNL     1       3.098   6.824  18.162  0.00  0.00    +0.000 A 
ATOM      6  C   UNL     1       2.520   7.970  17.634  0.00  0.00    +0.000 A 
ATOM      7  C   UNL     1       1.729   8.806  18.425  0.00  0.00    +0.000 A 
ATOM      8  C   UNL     1       1.531   8.500  19.761  0.00  0.00    +0.000 A 
ATOM      9  N   UNL     1       2.081   7.377  20.263  0.00  0.00    +0.000 NA
ATOM     10  N   UNL     1       2.853   6.537  19.454  0.00  0.00    +0.000 NA
ATOM     11  C   UNL     1       4.775   6.506  16.358  0.00  0.00    +0.000 C 
ATOM     12  C   UNL     1       6.212   6.132  16.712  0.00  0.00    +0.000 C 
ENDROOT
BRANCH   8  13
ATOM     13  C   UNL     1       0.720   9.333  20.672  0.00  0.00    +0.000 A 
ATOM     14  C   UNL     1       0.648   9.052  22.048  0.00  0.00    +0.000 A 
ATOM     15  C   UNL     1      -0.143   9.823  22.911  0.00  0.00    +0.000 A 
ATOM     16  C   UNL     1      -0.881  10.900  22.417  0.00  0.00    +0.000 A 
ATOM     17 CL   UNL     1      -1.839  11.807  23.530  0.00  0.00    +0.000 Cl
ATOM     18  C   UNL     1      -0.821  11.206  21.057  0.00  0.00    +0.000 A 
ATOM     19 CL   UNL     1      -1.706  12.515  20.358  0.00  0.00    +0.000 Cl
ATOM     20  C   UNL     1      -0.024  10.432  20.200  0.00  0.00    +0.000 A 
ENDBRANCH   8  13
BRANCH   1  21
ATOM     21  O   UNL     1       6.220   3.922  15.729  0.00  0.00    +0.000 OA
BRANCH  21  24
ATOM     22  C   UNL     1       7.241   4.075  12.289  0.00  0.00    +0.000 C 
ATOM     23  N   UNL     1       6.596   3.781  13.538  0.00  0.00    +0.000 N 
ATOM     24  C   UNL     1       6.961   4.403  14.692  0.00  0.00    +0.000 C 
ATOM     25  O   UNL     1       7.829   5.257  14.783  0.00  0.00    +0.000 OA
ATOM     26  H   UNL     1       5.869   3.082  13.600  0.00  0.00    +0.000 HD
ENDBRANCH  21  24
ENDBRANCH   1  21
TORSDOF 3
ENDMDL
MODEL 3
REMARK VINA RESULT:      -8.0      0.837      1.568
REMARK  Name = 
REMARK  4 active torsions:
REMARK  status: ('A' for Active; 'I' for Inactive)
REMARK    1  A    between atoms: C_1  and  N_2
REMARK    2  A    between atoms: C_3  and  O_5
REMARK    3  A    between atoms: O_5  and  C_6
REMARK    4  A    between atoms: C_13  and  C_14
REMARK                            x       y       z     vdW  Elec       q    Type
REMARK                         _______ _______ _______ _____ _____    ______ ____
ROOT
ATOM      1  C   UNL     1       5.845   5.171  18.275  0.00  0.00    +0.000 C 
ATOM      2  C   UNL     1       4.720   4.998  19.296  0.00  0.00    +0.000 C 
ATOM      3  C   UNL     1       3.347   5.300  18.704  0.00  0.00    +0.000 C 
ATOM      4  N   UNL     1       3.348   6.585  18.014  0.00  0.00    +0.000 N 
ATOM      5  C   UNL     1       2.536   7.611  18.460  0.00  0.00    +0.000 A 
ATOM      6  C   UNL     1       2.047   8.563  17.576  0.00  0.00    +0.000 A 
ATOM      7  C   UNL     1       1.208   9.588  18.018  0.00  0.00    +0.000 A 
ATOM      8  C   UNL     1       0.872   9.670  19.358  0.00  0.00    +0.000 A 
ATOM      9  N   UNL     1       1.336   8.733  20.207  0.00  0.00    +0.000 NA
ATOM     10  N   UNL     1       2.158   7.698  19.748  0.00  0.00    +0.000 NA
ATOM     11  C   UNL     1       4.371   6.796  16.997  0.00  0.00    +0.000 C 
ATOM     12  C   UNL     1       5.754   6.534  17.586  0.00  0.00    +0.000 C 
ENDROOT
BRANCH   8  13
ATOM     13  C   UNL     1       0.001  10.727  19.912  0.00  0.00    +0.000 A 
ATOM     14  C   UNL     1      -0.316  11.876  19.167  0.00  0.00    +0.000 A 
ATOM     15  C   UNL     1      -1.119  12.895  19.699  0.00  0.00    +0.000 A 
ATOM     16  C   UNL     1      -1.629  12.785  20.994  0.00  0.00    +0.000 A 
ATOM     17 CL   UNL     1      -2.608  14.075  21.593  0.00  0.00    +0.000 Cl
ATOM     18  C   UNL     1      -1.337  11.651  21.752  0.00  0.00    +0.000 A 
ATOM     19 CL   UNL     1      -1.920  11.435  23.365  0.00  0.00    +0.000 Cl
ATOM     20  C   UNL     1      -0.537  10.635  21.211  0.00  0.00    +0.000 A 
ENDBRANCH   8  13
BRANCH   1  21
ATOM     21  O   UNL     1       5.792   4.137  17.266  0.00  0.00    +0.000 OA
BRANCH  21  24
ATOM     22  C   UNL     1       6.665   4.255  13.784  0.00  0.00    +0.000 C 
ATOM     23  N   UNL     1       5.988   4.163  15.048  0.00  0.00    +0.000 N 
ATOM     24  C   UNL     1       6.656   4.298  16.225  0.00  0.00    +0.000 C 
ATOM     25  O   UNL     1       7.852   4.521  16.330  0.00  0.00    +0.000 OA
ATOM     26  H   UNL     1       4.998   3.968  15.098  0.00  0.00    +0.000 HD
ENDBRANCH  21  24
ENDBRANCH   1  21
TORSDOF 3
ENDMDL
MODEL 4
REMARK VINA RESULT:      -7.4      6.476      8.212
REMARK  Name = 
REMARK  4 active torsions:
REMARK  status: ('A' for Active; 'I' for Inactive)
REMARK    1  A    between atoms: C_1  and  N_2
REMARK    2  A    between atoms: C_3  and  O_5
REMARK    3  A    between atoms: O_5  and  C_6
REMARK    4  A    between atoms: C_13  and  C_14
REMARK                            x       y       z     vdW  Elec       q    Type
REMARK                         _______ _______ _______ _____ _____    ______ ____
ROOT
ATOM      1  C   UNL     1       3.797   4.841  17.485  0.00  0.00    +0.000 C 
ATOM      2  C   UNL     1       4.341   5.799  16.424  0.00  0.00    +0.000 C 
ATOM      3  C   UNL     1       5.865   5.808  16.377  0.00  0.00    +0.000 C 
ATOM      4  N   UNL     1       6.426   5.997  17.710  0.00  0.00    +0.000 N 
ATOM      5  C   UNL     1       7.189   7.115  17.988  0.00  0.00    +0.000 A 
ATOM      6  C   UNL     1       8.192   7.070  18.947  0.00  0.00    +0.000 A 
ATOM      7  C   UNL     1       8.980   8.191  19.215  0.00  0.00    +0.000 A 
ATOM      8  C   UNL     1       8.750   9.371  18.529  0.00  0.00    +0.000 A 
ATOM      9  N   UNL     1       7.788   9.403  17.587  0.00  0.00    +0.000 NA
ATOM     10  N   UNL     1       7.019   8.267  17.313  0.00  0.00    +0.000 NA
ATOM     11  C   UNL     1       5.980   5.088  18.758  0.00  0.00    +0.000 C 
ATOM     12  C   UNL     1       4.456   5.096  18.842  0.00  0.00    +0.000 C 
ENDROOT
BRANCH   8  13
ATOM     13  C   UNL     1       9.528  10.606  18.757  0.00  0.00    +0.000 A 
ATOM     14  C   UNL     1       9.730  11.112  20.053  0.00  0.00    +0.000 A 
ATOM     15  C   UNL     1      10.443  12.298  20.273  0.00  0.00    +0.000 A 
ATOM     16  C   UNL     1      10.977  13.008  19.196  0.00  0.00    +0.000 A 
ATOM     17 CL   UNL     1      11.842  14.464  19.532  0.00  0.00    +0.000 Cl
ATOM     18  C   UNL     1      10.800  12.524  17.900  0.00  0.00    +0.000 A 
ATOM     19 CL   UNL     1      11.420  13.340  16.509  0.00  0.00    +0.000 Cl
ATOM     20  C   UNL     1      10.088  11.334  17.689  0.00  0.00    +0.000 A 
ENDBRANCH   8  13
BRANCH   1  21
ATOM     21  O   UNL     1       4.028   3.465  17.109  0.00  0.00    +0.000 OA
BRANCH  21  24
ATOM     22  C   UNL     1       1.030   2.249  18.670  0.00  0.00    +0.000 C 
ATOM     23  N   UNL     1       2.019   3.008  17.956  0.00  0.00    +0.000 N 
ATOM     24  C   UNL     1       3.288   2.545  17.789  0.00  0.00    +0.000 C 
ATOM     25  O   UNL     1       3.701   1.471  18.197  0.00  0.00    +0.000 OA
ATOM     26  H   UNL     1       1.807   3.920  17.579  0.00  0.00    +0.000 HD
ENDBRANCH  21  24
ENDBRANCH   1  21
TORSDOF 3
ENDMDL
MODEL 5
REMARK VINA RESULT:      -7.3      6.032      8.003
REMARK  Name = 
REMARK  4 active torsions:
REMARK  status: ('A' for Active; 'I' for Inactive)
REMARK    1  A    between atoms: C_1  and  N_2
REMARK    2  A    between atoms: C_3  and  O_5
REMARK    3  A    between atoms: O_5  and  C_6
REMARK    4  A    between atoms: C_13  and  C_14
REMARK                            x       y       z     vdW  Elec       q    Type
REMARK                         _______ _______ _______ _____ _____    ______ ____
ROOT
ATOM      1  C   UNL     1       4.105   4.611  17.889  0.00  0.00    +0.000 C 
ATOM      2  C   UNL     1       4.529   5.458  16.688  0.00  0.00    +0.000 C 
ATOM      3  C   UNL     1       6.044   5.601  16.584  0.00  0.00    +0.000 C 
ATOM      4  N   UNL     1       6.617   6.023  17.857  0.00  0.00    +0.000 N 
ATOM      5  C   UNL     1       7.276   7.234  17.952  0.00  0.00    +0.000 A 
ATOM      6  C   UNL     1       8.301   7.414  18.870  0.00  0.00    +0.000 A 
ATOM      7  C   UNL     1       8.985   8.629  18.954  0.00  0.00    +0.000 A 
ATOM      8  C   UNL     1       8.626   9.677  18.123  0.00  0.00    +0.000 A 
ATOM      9  N   UNL     1       7.642   9.490  17.223  0.00  0.00    +0.000 NA
ATOM     10  N   UNL     1       6.980   8.261  17.134  0.00  0.00    +0.000 NA
ATOM     11  C   UNL     1       6.285   5.231  19.034  0.00  0.00    +0.000 C 
ATOM     12  C   UNL     1       4.770   5.111  19.174  0.00  0.00    +0.000 C 
ENDROOT
BRANCH   8  13
ATOM     13  C   UNL     1       9.287  10.997  18.153  0.00  0.00    +0.000 A 
ATOM     14  C   UNL     1      10.672  11.115  18.368  0.00  0.00    +0.000 A 
ATOM     15  C   UNL     1      11.299  12.367  18.426  0.00  0.00    +0.000 A 
ATOM     16  C   UNL     1      10.554  13.536  18.265  0.00  0.00    +0.000 A 
ATOM     17 CL   UNL     1      11.385  15.047  18.350  0.00  0.00    +0.000 Cl
ATOM     18  C   UNL     1       9.180  13.448  18.041  0.00  0.00    +0.000 A 
ATOM     19 CL   UNL     1       8.179  14.842  17.837  0.00  0.00    +0.000 Cl
ATOM     20  C   UNL     1       8.560  12.191  17.981  0.00  0.00    +0.000 A 
ENDBRANCH   8  13
BRANCH   1  21
ATOM     21  O   UNL     1       4.458   3.224  17.695  0.00  0.00    +0.000 OA
BRANCH  21  24
ATOM     22  C   UNL     1       1.160   2.210  18.693  0.00  0.00    +0.000 C 
ATOM     23  N   UNL     1       2.316   2.924  18.226  0.00  0.00    +0.000 N 
ATOM     24  C   UNL     1       3.533   2.323  18.130  0.00  0.00    +0.000 C 
ATOM     25  O   UNL     1       3.760   1.155  18.402  0.00  0.00    +0.000 OA
ATOM     26  H   UNL     1       2.263   3.902  17.981  0.00  0.00    +0.000 HD
ENDBRANCH  21  24
ENDBRANCH   1  21
TORSDOF 3
ENDMDL
MODEL 6
REMARK VINA RESULT:      -7.3      5.844      9.667
REMARK  Name = 
REMARK  4 active torsions:
REMARK  status: ('A' for Active; 'I' for Inactive)
REMARK    1  A    between atoms: C_1  and  N_2
REMARK    2  A    between atoms: C_3  and  O_5
REMARK    3  A    between atoms: O_5  and  C_6
REMARK    4  A    between atoms: C_13  and  C_14
REMARK                            x       y       z     vdW  Elec       q    Type
REMARK                         _______ _______ _______ _____ _____    ______ ____
ROOT
ATOM      1  C   UNL     1      -1.275  13.130  20.269  0.00  0.00    +0.000 C 
ATOM      2  C   UNL     1      -0.495  12.350  21.329  0.00  0.00    +0.000 C 
ATOM      3  C   UNL     1       0.893  11.942  20.846  0.00  0.00    +0.000 C 
ATOM      4  N   UNL     1       0.821  11.291  19.543  0.00  0.00    +0.000 N 
ATOM      5  C   UNL     1       1.223   9.976  19.404  0.00  0.00    +0.000 A 
ATOM      6  C   UNL     1       1.737   9.515  18.200  0.00  0.00    +0.000 A 
ATOM      7  C   UNL     1       2.165   8.193  18.060  0.00  0.00    +0.000 A 
ATOM      8  C   UNL     1       2.061   7.322  19.132  0.00  0.00    +0.000 A 
ATOM      9  N   UNL     1       1.578   7.781  20.303  0.00  0.00    +0.000 NA
ATOM     10  N   UNL     1       1.172   9.113  20.435  0.00  0.00    +0.000 NA
ATOM     11  C   UNL     1       0.127  12.003  18.477  0.00  0.00    +0.000 C 
ATOM     12  C   UNL     1      -1.278  12.384  18.933  0.00  0.00    +0.000 C 
ENDROOT
BRANCH   8  13
ATOM     13  C   UNL     1       2.479   5.907  19.069  0.00  0.00    +0.000 A 
ATOM     14  C   UNL     1       3.053   5.366  17.905  0.00  0.00    +0.000 A 
ATOM     15  C   UNL     1       3.424   4.017  17.831  0.00  0.00    +0.000 A 
ATOM     16  C   UNL     1       3.234   3.173  18.926  0.00  0.00    +0.000 A 
ATOM     17 CL   UNL     1       3.709   1.520  18.771  0.00  0.00    +0.000 Cl
ATOM     18  C   UNL     1       2.674   3.685  20.097  0.00  0.00    +0.000 A 
ATOM     19 CL   UNL     1       2.396   2.712  21.498  0.00  0.00    +0.000 Cl
ATOM     20  C   UNL     1       2.309   5.037  20.164  0.00  0.00    +0.000 A 
ENDBRANCH   8  13
BRANCH   1  21
ATOM     21  O   UNL     1      -0.703  14.441  20.066  0.00  0.00    +0.000 OA
BRANCH  21  24
ATOM     22  C   UNL     1      -2.235  17.614  19.365  0.00  0.00    +0.000 C 
ATOM     23  N   UNL     1      -1.477  16.394  19.325  0.00  0.00    +0.000 N 
ATOM     24  C   UNL     1      -1.536  15.486  20.336  0.00  0.00    +0.000 C 
ATOM     25  O   UNL     1      -2.226  15.596  21.337  0.00  0.00    +0.000 OA
ATOM     26  H   UNL     1      -0.856  16.189  18.555  0.00  0.00    +0.000 HD
ENDBRANCH  21  24
ENDBRANCH   1  21
TORSDOF 3
ENDMDL
MODEL 7
REMARK VINA RESULT:      -7.3      6.043      9.459
REMARK  Name = 
REMARK  4 active torsions:
REMARK  status: ('A' for Active; 'I' for Inactive)
REMARK    1  A    between atoms: C_1  and  N_2
REMARK    2  A    between atoms: C_3  and  O_5
REMARK    3  A    between atoms: O_5  and  C_6
REMARK    4  A    between atoms: C_13  and  C_14
REMARK                            x       y       z     vdW  Elec       q    Type
REMARK                         _______ _______ _______ _____ _____    ______ ____
ROOT
ATOM      1  C   UNL     1       0.977  14.366  19.540  0.00  0.00    +0.000 C 
ATOM      2  C   UNL     1       0.891  13.391  18.365  0.00  0.00    +0.000 C 
ATOM      3  C   UNL     1       0.018  12.180  18.677  0.00  0.00    +0.000 C 
ATOM      4  N   UNL     1       0.405  11.571  19.944  0.00  0.00    +0.000 N 
ATOM      5  C   UNL     1       0.883  10.274  19.972  0.00  0.00    +0.000 A 
ATOM      6  C   UNL     1       0.696   9.473  21.089  0.00  0.00    +0.000 A 
ATOM      7  C   UNL     1       1.157   8.155  21.113  0.00  0.00    +0.000 A 
ATOM      8  C   UNL     1       1.826   7.643  20.015  0.00  0.00    +0.000 A 
ATOM      9  N   UNL     1       1.989   8.420  18.927  0.00  0.00    +0.000 NA
ATOM     10  N   UNL     1       1.503   9.731  18.908  0.00  0.00    +0.000 NA
ATOM     11  C   UNL     1       0.464  12.440  21.113  0.00  0.00    +0.000 C 
ATOM     12  C   UNL     1       1.366  13.638  20.828  0.00  0.00    +0.000 C 
ENDROOT
BRANCH   8  13
ATOM     13  C   UNL     1       2.357   6.265  19.959  0.00  0.00    +0.000 A 
ATOM     14  C   UNL     1       3.453   5.938  19.142  0.00  0.00    +0.000 A 
ATOM     15  C   UNL     1       3.941   4.626  19.064  0.00  0.00    +0.000 A 
ATOM     16  C   UNL     1       3.345   3.607  19.809  0.00  0.00    +0.000 A 
ATOM     17 CL   UNL     1       3.991   2.012  19.667  0.00  0.00    +0.000 Cl
ATOM     18  C   UNL     1       2.261   3.906  20.636  0.00  0.00    +0.000 A 
ATOM     19 CL   UNL     1       1.459   2.708  21.587  0.00  0.00    +0.000 Cl
ATOM     20  C   UNL     1       1.781   5.222  20.711  0.00  0.00    +0.000 A 
ENDBRANCH   8  13
BRANCH   1  21
ATOM     21  O   UNL     1      -0.286  15.036  19.750  0.00  0.00    +0.000 OA
BRANCH  21  24
ATOM     22  C   UNL     1      -0.892  17.972  17.771  0.00  0.00    +0.000 C 
ATOM     23  N   UNL     1      -0.807  16.635  18.289  0.00  0.00    +0.000 N 
ATOM     24  C   UNL     1      -0.277  16.378  19.515  0.00  0.00    +0.000 C 
ATOM     25  O   UNL     1       0.150  17.225  20.285  0.00  0.00    +0.000 OA
ATOM     26  H   UNL     1      -1.115  15.842  17.743  0.00  0.00    +0.000 HD
ENDBRANCH  21  24
ENDBRANCH   1  21
TORSDOF 3
ENDMDL
MODEL 8
REMARK VINA RESULT:      -7.3      5.778      9.767
REMARK  Name = 
REMARK  4 active torsions:
REMARK  status: ('A' for Active; 'I' for Inactive)
REMARK    1  A    between atoms: C_1  and  N_2
REMARK    2  A    between atoms: C_3  and  O_5
REMARK    3  A    between atoms: O_5  and  C_6
REMARK    4  A    between atoms: C_13  and  C_14
REMARK                            x       y       z     vdW  Elec       q    Type
REMARK                         _______ _______ _______ _____ _____    ______ ____
ROOT
ATOM      1  C   UNL     1      -2.031  12.765  20.230  0.00  0.00    +0.000 C 
ATOM      2  C   UNL     1      -1.258  12.147  21.395  0.00  0.00    +0.000 C 
ATOM      3  C   UNL     1       0.205  11.887  21.049  0.00  0.00    +0.000 C 
ATOM      4  N   UNL     1       0.321  11.161  19.790  0.00  0.00    +0.000 N 
ATOM      5  C   UNL     1       0.886   9.899  19.768  0.00  0.00    +0.000 A 
ATOM      6  C   UNL     1       1.551   9.439  18.641  0.00  0.00    +0.000 A 
ATOM      7  C   UNL     1       2.142   8.174  18.622  0.00  0.00    +0.000 A 
ATOM      8  C   UNL     1       2.051   7.358  19.736  0.00  0.00    +0.000 A 
ATOM      9  N   UNL     1       1.419   7.818  20.834  0.00  0.00    +0.000 NA
ATOM     10  N   UNL     1       0.850   9.095  20.847  0.00  0.00    +0.000 NA
ATOM     11  C   UNL     1      -0.359  11.721  18.629  0.00  0.00    +0.000 C 
ATOM     12  C   UNL     1      -1.833  11.952  18.948  0.00  0.00    +0.000 C 
ENDROOT
BRANCH   8  13
ATOM     13  C   UNL     1       2.637   6.003  19.799  0.00  0.00    +0.000 A 
ATOM     14  C   UNL     1       3.785   5.670  19.058  0.00  0.00    +0.000 A 
ATOM     15  C   UNL     1       4.327   4.378  19.092  0.00  0.00    +0.000 A 
ATOM     16  C   UNL     1       3.735   3.385  19.874  0.00  0.00    +0.000 A 
ATOM     17 CL   UNL     1       4.449   1.813  19.870  0.00  0.00    +0.000 Cl
ATOM     18  C   UNL     1       2.600   3.691  20.626  0.00  0.00    +0.000 A 
ATOM     19 CL   UNL     1       1.798   2.524  21.616  0.00  0.00    +0.000 Cl
ATOM     20  C   UNL     1       2.065   4.987  20.590  0.00  0.00    +0.000 A 
ENDBRANCH   8  13
BRANCH   1  21
ATOM     21  O   UNL     1      -1.603  14.124  19.986  0.00  0.00    +0.000 OA
BRANCH  21  24
ATOM     22  C   UNL     1      -4.233  16.248  21.199  0.00  0.00    +0.000 C 
ATOM     23  N   UNL     1      -3.436  15.283  20.495  0.00  0.00    +0.000 N 
ATOM     24  C   UNL     1      -2.135  15.059  20.823  0.00  0.00    +0.000 C 
ATOM     25  O   UNL     1      -1.534  15.619  21.726  0.00  0.00    +0.000 OA
ATOM     26  H   UNL     1      -3.813  14.760  19.717  0.00  0.00    +0.000 HD
ENDBRANCH  21  24
ENDBRANCH   1  21
TORSDOF 3
ENDMDL
MODEL 9
REMARK VINA RESULT:      -7.3      1.014      1.613
REMARK  Name = 
REMARK  4 active torsions:
REMARK  status: ('A' for Active; 'I' for Inactive)
REMARK    1  A    between atoms: C_1  and  N_2
REMARK    2  A    between atoms: C_3  and  O_5
REMARK    3  A    between atoms: O_5  and  C_6
REMARK    4  A    between atoms: C_13  and  C_14
REMARK                            x       y       z     vdW  Elec       q    Type
REMARK                         _______ _______ _______ _____ _____    ______ ____
ROOT
ATOM      1  C   UNL     1       4.198   4.667  16.457  0.00  0.00    +0.000 C 
ATOM      2  C   UNL     1       4.384   6.184  16.489  0.00  0.00    +0.000 C 
ATOM      3  C   UNL     1       4.566   6.718  17.906  0.00  0.00    +0.000 C 
ATOM      4  N   UNL     1       3.521   6.216  18.790  0.00  0.00    +0.000 N 
ATOM      5  C   UNL     1       2.641   7.097  19.390  0.00  0.00    +0.000 A 
ATOM      6  C   UNL     1       2.071   6.801  20.621  0.00  0.00    +0.000 A 
ATOM      7  C   UNL     1       1.199   7.698  21.243  0.00  0.00    +0.000 A 
ATOM      8  C   UNL     1       0.882   8.892  20.617  0.00  0.00    +0.000 A 
ATOM      9  N   UNL     1       1.452   9.180  19.431  0.00  0.00    +0.000 NA
ATOM     10  N   UNL     1       2.341   8.283  18.830  0.00  0.00    +0.000 NA
ATOM     11  C   UNL     1       3.321   4.773  18.838  0.00  0.00    +0.000 C 
ATOM     12  C   UNL     1       3.100   4.230  17.429  0.00  0.00    +0.000 C 
ENDROOT
BRANCH   8  13
ATOM     13  C   UNL     1      -0.038   9.891  21.197  0.00  0.00    +0.000 A 
ATOM     14  C   UNL     1      -0.332   9.901  22.571  0.00  0.00    +0.000 A 
ATOM     15  C   UNL     1      -1.227  10.829  23.121  0.00  0.00    +0.000 A 
ATOM     16  C   UNL     1      -1.850  11.776  22.306  0.00  0.00    +0.000 A 
ATOM     17 CL   UNL     1      -2.944  12.889  23.043  0.00  0.00    +0.000 Cl
ATOM     18  C   UNL     1      -1.569  11.794  20.939  0.00  0.00    +0.000 A 
ATOM     19 CL   UNL     1      -2.298  12.925  19.855  0.00  0.00    +0.000 Cl
ATOM     20  C   UNL     1      -0.669  10.864  20.398  0.00  0.00    +0.000 A 
ENDBRANCH   8  13
BRANCH   1  21
ATOM     21  O   UNL     1       5.424   3.987  16.808  0.00  0.00    +0.000 OA
BRANCH  21  24
ATOM     22  C   UNL     1       6.896   4.091  13.533  0.00  0.00    +0.000 C 
ATOM     23  N   UNL     1       6.009   3.994  14.658  0.00  0.00    +0.000 N 
ATOM     24  C   UNL     1       6.455   4.160  15.933  0.00  0.00    +0.000 C 
ATOM     25  O   UNL     1       7.607   4.417  16.244  0.00  0.00    +0.000 OA
ATOM     26  H   UNL     1       5.031   3.773  14.536  0.00  0.00    +0.000 HD
ENDBRANCH  21  24
ENDBRANCH   1  21
TORSDOF 3
ENDMDL
