MODEL 1
REMARK VINA RESULT:      -7.2      0.000      0.000
REMARK  Name = 
REMARK  14 active torsions:
REMARK  status: ('A' for Active; 'I' for Inactive)
REMARK    1  A    between atoms: C_1  and  C_2
REMARK    2  A    between atoms: C_2  and  O_3
REMARK    3  A    between atoms: O_3  and  C_4
REMARK    4  A    between atoms: C_7  and  N_8
REMARK    5  A    between atoms: N_8  and  C_9
REMARK    6  A    between atoms: C_10  and  C_11
REMARK    7  A    between atoms: C_12  and  N_13
REMARK    8  A    between atoms: N_13  and  C_14
REMARK    9  A    between atoms: C_14  and  C_15
REMARK   10  A    between atoms: C_15  and  C_16
REMARK   11  A    between atoms: C_16  and  C_17
REMARK   12  A    between atoms: C_17  and  C_18
REMARK   13  A    between atoms: C_18  and  N_19
REMARK   14  A    between atoms: C_20  and  C_21
REMARK                            x       y       z     vdW  Elec       q    Type
REMARK                         _______ _______ _______ _____ _____    ______ ____
ROOT
ATOM      1  C   UNL     1       1.222   9.111  20.138  0.00  0.00    +0.000 A 
ATOM      2  C   UNL     1       0.705   9.662  19.016  0.00  0.00    +0.000 A 
ATOM      3  C   UNL     1       1.193   9.230  17.653  0.00  0.00    +0.000 C 
ATOM      4  C   UNL     1      -0.333  10.717  19.136  0.00  0.00    +0.000 A 
ATOM      5  C   UNL     1      -0.842  11.034  20.362  0.00  0.00    +0.000 A 
ATOM      6  C   UNL     1      -0.389  10.358  21.530  0.00  0.00    +0.000 A 
ATOM      7  C   UNL     1      -0.712  10.400  22.866  0.00  0.00    +0.000 A 
ATOM      8  C   UNL     1       0.141   9.461  23.470  0.00  0.00    +0.000 A 
ATOM      9  N   UNL     1       0.946   8.862  22.593  0.00  0.00    +0.000 NA
ATOM     10  N   UNL     1       0.638   9.431  21.389  0.00  0.00    +0.000 N 
ENDROOT
BRANCH   1  11
ATOM     11  N   UNL     1       2.290   8.215  20.149  0.00  0.00    +0.000 N 
ATOM     12  H   UNL     1       3.051   8.605  19.579  0.00  0.00    +0.000 HD
BRANCH  11  16
ATOM     13  C   UNL     1       1.541   4.187  19.007  0.00  0.00    +0.000 A 
ATOM     14  C   UNL     1       1.278   4.655  20.290  0.00  0.00    +0.000 A 
ATOM     15  C   UNL     1       1.534   5.976  20.639  0.00  0.00    +0.000 A 
ATOM     16  C   UNL     1       2.101   6.864  19.727  0.00  0.00    +0.000 A 
ATOM     17  C   UNL     1       2.349   6.400  18.428  0.00  0.00    +0.000 A 
ATOM     18  C   UNL     1       2.078   5.068  18.063  0.00  0.00    +0.000 A 
BRANCH  13  19
ATOM     19  O   UNL     1       1.300   2.896  18.585  0.00  0.00    +0.000 OA
BRANCH  19  21
ATOM     20  C   UNL     1       3.392   1.676  18.343  0.00  0.00    +0.000 C 
ATOM     21  C   UNL     1       2.159   1.917  19.184  0.00  0.00    +0.000 C 
ENDBRANCH  19  21
ENDBRANCH  13  19
ENDBRANCH  11  16
ENDBRANCH   1  11
BRANCH   4  22
ATOM     22  N   UNL     1      -0.656  11.330  17.937  0.00  0.00    +0.000 N 
ATOM     23  H   UNL     1       0.091  11.248  17.245  0.00  0.00    +0.000 HD
BRANCH  22  24
ATOM     24  C   UNL     1      -1.987  11.451  17.357  0.00  0.00    +0.000 C 
BRANCH  24  25
ATOM     25  C   UNL     1      -2.653  10.072  17.307  0.00  0.00    +0.000 C 
BRANCH  25  26
ATOM     26  C   UNL     1      -2.658   9.497  15.890  0.00  0.00    +0.000 C 
BRANCH  26  27
ATOM     27  C   UNL     1      -2.992  10.551  14.836  0.00  0.00    +0.000 C 
BRANCH  27  28
ATOM     28  C   UNL     1      -3.525   9.878  13.572  0.00  0.00    +0.000 C 
BRANCH  28  29
ATOM     29  N   UNL     1      -2.431   9.573  12.660  0.00  0.00    +0.000 NA
ATOM     30  H   UNL     1      -2.609   8.684  12.196  0.00  0.00    +0.000 HD
ATOM     31  H   UNL     1      -1.571   9.452  13.193  0.00  0.00    +0.000 HD
ENDBRANCH  28  29
ENDBRANCH  27  28
ENDBRANCH  26  27
ENDBRANCH  25  26
ENDBRANCH  24  25
ENDBRANCH  22  24
ENDBRANCH   4  22
BRANCH   5  32
ATOM     32  C   UNL     1      -1.937  12.082  20.467  0.00  0.00    +0.000 C 
ATOM     33  N   UNL     1      -2.845  12.953  20.555  0.00  0.00    +0.000 NA
ENDBRANCH   5  32
TORSDOF 12
ENDMDL
MODEL 2
REMARK VINA RESULT:      -7.0      1.408      1.968
REMARK  Name = 
REMARK  14 active torsions:
REMARK  status: ('A' for Active; 'I' for Inactive)
REMARK    1  A    between atoms: C_1  and  C_2
REMARK    2  A    between atoms: C_2  and  O_3
REMARK    3  A    between atoms: O_3  and  C_4
REMARK    4  A    between atoms: C_7  and  N_8
REMARK    5  A    between atoms: N_8  and  C_9
REMARK    6  A    between atoms: C_10  and  C_11
REMARK    7  A    between atoms: C_12  and  N_13
REMARK    8  A    between atoms: N_13  and  C_14
REMARK    9  A    between atoms: C_14  and  C_15
REMARK   10  A    between atoms: C_15  and  C_16
REMARK   11  A    between atoms: C_16  and  C_17
REMARK   12  A    between atoms: C_17  and  C_18
REMARK   13  A    between atoms: C_18  and  N_19
REMARK   14  A    between atoms: C_20  and  C_21
REMARK                            x       y       z     vdW  Elec       q    Type
REMARK                         _______ _______ _______ _____ _____    ______ ____
ROOT
ATOM      1  C   UNL     1       1.216   9.074  20.129  0.00  0.00    +0.000 A 
ATOM      2  C   UNL     1       0.757   9.669  19.004  0.00  0.00    +0.000 A 
ATOM      3  C   UNL     1       1.248   9.226  17.646  0.00  0.00    +0.000 C 
ATOM      4  C   UNL     1      -0.220  10.782  19.118  0.00  0.00    +0.000 A 
ATOM      5  C   UNL     1      -0.736  11.112  20.337  0.00  0.00    +0.000 A 
ATOM      6  C   UNL     1      -0.349  10.396  21.505  0.00  0.00    +0.000 A 
ATOM      7  C   UNL     1      -0.697  10.440  22.835  0.00  0.00    +0.000 A 
ATOM      8  C   UNL     1       0.087   9.445  23.443  0.00  0.00    +0.000 A 
ATOM      9  N   UNL     1       0.873   8.811  22.574  0.00  0.00    +0.000 NA
ATOM     10  N   UNL     1       0.625   9.412  21.372  0.00  0.00    +0.000 N 
ENDROOT
BRANCH   1  11
ATOM     11  N   UNL     1       2.230   8.116  20.150  0.00  0.00    +0.000 N 
ATOM     12  H   UNL     1       3.001   8.443  19.554  0.00  0.00    +0.000 HD
BRANCH  11  16
ATOM     13  C   UNL     1       1.590   4.097  18.915  0.00  0.00    +0.000 A 
ATOM     14  C   UNL     1       2.110   5.062  18.059  0.00  0.00    +0.000 A 
ATOM     15  C   UNL     1       2.308   6.370  18.485  0.00  0.00    +0.000 A 
ATOM     16  C   UNL     1       1.953   6.767  19.774  0.00  0.00    +0.000 A 
ATOM     17  C   UNL     1       1.447   5.792  20.645  0.00  0.00    +0.000 A 
ATOM     18  C   UNL     1       1.259   4.462  20.224  0.00  0.00    +0.000 A 
BRANCH  13  19
ATOM     19  O   UNL     1       1.380   2.779  18.567  0.00  0.00    +0.000 OA
BRANCH  19  21
ATOM     20  C   UNL     1       3.489   1.569  18.444  0.00  0.00    +0.000 C 
ATOM     21  C   UNL     1       2.238   1.853  19.246  0.00  0.00    +0.000 C 
ENDBRANCH  19  21
ENDBRANCH  13  19
ENDBRANCH  11  16
ENDBRANCH   1  11
BRANCH   4  22
ATOM     22  N   UNL     1      -0.480  11.428  17.921  0.00  0.00    +0.000 N 
ATOM     23  H   UNL     1       0.334  11.448  17.305  0.00  0.00    +0.000 HD
BRANCH  22  24
ATOM     24  C   UNL     1      -1.755  11.463  17.215  0.00  0.00    +0.000 C 
BRANCH  24  25
ATOM     25  C   UNL     1      -2.435  10.094  17.316  0.00  0.00    +0.000 C 
BRANCH  25  26
ATOM     26  C   UNL     1      -3.935  10.226  17.589  0.00  0.00    +0.000 C 
BRANCH  26  27
ATOM     27  C   UNL     1      -4.596  11.281  16.704  0.00  0.00    +0.000 C 
BRANCH  27  28
ATOM     28  C   UNL     1      -5.644  12.053  17.505  0.00  0.00    +0.000 C 
BRANCH  28  29
ATOM     29  N   UNL     1      -5.025  12.711  18.648  0.00  0.00    +0.000 NA
ATOM     30  H   UNL     1      -4.021  12.795  18.493  0.00  0.00    +0.000 HD
ATOM     31  H   UNL     1      -5.139  12.129  19.476  0.00  0.00    +0.000 HD
ENDBRANCH  28  29
ENDBRANCH  27  28
ENDBRANCH  26  27
ENDBRANCH  25  26
ENDBRANCH  24  25
ENDBRANCH  22  24
ENDBRANCH   4  22
BRANCH   5  32
ATOM     32  C   UNL     1      -1.769  12.222  20.434  0.00  0.00    +0.000 C 
ATOM     33  N   UNL     1      -2.626  13.144  20.514  0.00  0.00    +0.000 NA
ENDBRANCH   5  32
TORSDOF 12
ENDMDL
MODEL 3
REMARK VINA RESULT:      -6.6      1.996      5.187
REMARK  Name = 
REMARK  14 active torsions:
REMARK  status: ('A' for Active; 'I' for Inactive)
REMARK    1  A    between atoms: C_1  and  C_2
REMARK    2  A    between atoms: C_2  and  O_3
REMARK    3  A    between atoms: O_3  and  C_4
REMARK    4  A    between atoms: C_7  and  N_8
REMARK    5  A    between atoms: N_8  and  C_9
REMARK    6  A    between atoms: C_10  and  C_11
REMARK    7  A    between atoms: C_12  and  N_13
REMARK    8  A    between atoms: N_13  and  C_14
REMARK    9  A    between atoms: C_14  and  C_15
REMARK   10  A    between atoms: C_15  and  C_16
REMARK   11  A    between atoms: C_16  and  C_17
REMARK   12  A    between atoms: C_17  and  C_18
REMARK   13  A    between atoms: C_18  and  N_19
REMARK   14  A    between atoms: C_20  and  C_21
REMARK                            x       y       z     vdW  Elec       q    Type
REMARK                         _______ _______ _______ _____ _____    ______ ____
ROOT
ATOM      1  C   UNL     1      -0.299  11.421  18.479  0.00  0.00    +0.000 A 
ATOM      2  C   UNL     1      -0.335  12.455  19.352  0.00  0.00    +0.000 A 
ATOM      3  C   UNL     1       0.938  13.151  19.772  0.00  0.00    +0.000 C 
ATOM      4  C   UNL     1      -1.641  12.884  19.915  0.00  0.00    +0.000 A 
ATOM      5  C   UNL     1      -2.797  12.321  19.458  0.00  0.00    +0.000 A 
ATOM      6  C   UNL     1      -2.764  11.324  18.443  0.00  0.00    +0.000 A 
ATOM      7  C   UNL     1      -3.712  10.607  17.750  0.00  0.00    +0.000 A 
ATOM      8  C   UNL     1      -2.975   9.777  16.889  0.00  0.00    +0.000 A 
ATOM      9  N   UNL     1      -1.660   9.948  17.015  0.00  0.00    +0.000 NA
ATOM     10  N   UNL     1      -1.520  10.891  17.995  0.00  0.00    +0.000 N 
ENDROOT
BRANCH   1  11
ATOM     11  N   UNL     1       0.877  10.848  17.994  0.00  0.00    +0.000 N 
ATOM     12  H   UNL     1       0.793  10.744  16.975  0.00  0.00    +0.000 HD
BRANCH  11  16
ATOM     13  C   UNL     1       2.419   7.147  19.410  0.00  0.00    +0.000 A 
ATOM     14  C   UNL     1       2.596   7.569  18.097  0.00  0.00    +0.000 A 
ATOM     15  C   UNL     1       2.080   8.783  17.658  0.00  0.00    +0.000 A 
ATOM     16  C   UNL     1       1.333   9.597  18.509  0.00  0.00    +0.000 A 
ATOM     17  C   UNL     1       1.170   9.182  19.837  0.00  0.00    +0.000 A 
ATOM     18  C   UNL     1       1.703   7.962  20.293  0.00  0.00    +0.000 A 
BRANCH  13  19
ATOM     19  O   UNL     1       2.914   5.964  19.920  0.00  0.00    +0.000 OA
BRANCH  19  21
ATOM     20  C   UNL     1       1.216   4.256  20.272  0.00  0.00    +0.000 C 
ATOM     21  C   UNL     1       2.303   4.791  19.368  0.00  0.00    +0.000 C 
ENDBRANCH  19  21
ENDBRANCH  13  19
ENDBRANCH  11  16
ENDBRANCH   1  11
BRANCH   4  22
ATOM     22  N   UNL     1      -1.537  13.825  20.925  0.00  0.00    +0.000 N 
ATOM     23  H   UNL     1      -2.348  14.443  20.966  0.00  0.00    +0.000 HD
BRANCH  22  24
ATOM     24  C   UNL     1      -0.863  13.651  22.205  0.00  0.00    +0.000 C 
BRANCH  24  25
ATOM     25  C   UNL     1      -1.784  12.900  23.173  0.00  0.00    +0.000 C 
BRANCH  25  26
ATOM     26  C   UNL     1      -1.741  11.389  22.938  0.00  0.00    +0.000 C 
BRANCH  26  27
ATOM     27  C   UNL     1      -0.327  10.885  22.655  0.00  0.00    +0.000 C 
BRANCH  27  28
ATOM     28  C   UNL     1      -0.074   9.584  23.417  0.00  0.00    +0.000 C 
BRANCH  28  29
ATOM     29  N   UNL     1      -0.887   8.508  22.867  0.00  0.00    +0.000 NA
ATOM     30  H   UNL     1      -0.672   8.387  21.878  0.00  0.00    +0.000 HD
ATOM     31  H   UNL     1      -1.870   8.768  22.918  0.00  0.00    +0.000 HD
ENDBRANCH  28  29
ENDBRANCH  27  28
ENDBRANCH  26  27
ENDBRANCH  25  26
ENDBRANCH  24  25
ENDBRANCH  22  24
ENDBRANCH   4  22
BRANCH   5  32
ATOM     32  C   UNL     1      -4.129  12.801  20.009  0.00  0.00    +0.000 C 
ATOM     33  N   UNL     1      -5.235  13.199  20.465  0.00  0.00    +0.000 NA
ENDBRANCH   5  32
TORSDOF 12
ENDMDL
MODEL 4
REMARK VINA RESULT:      -6.6      4.985      8.242
REMARK  Name = 
REMARK  14 active torsions:
REMARK  status: ('A' for Active; 'I' for Inactive)
REMARK    1  A    between atoms: C_1  and  C_2
REMARK    2  A    between atoms: C_2  and  O_3
REMARK    3  A    between atoms: O_3  and  C_4
REMARK    4  A    between atoms: C_7  and  N_8
REMARK    5  A    between atoms: N_8  and  C_9
REMARK    6  A    between atoms: C_10  and  C_11
REMARK    7  A    between atoms: C_12  and  N_13
REMARK    8  A    between atoms: N_13  and  C_14
REMARK    9  A    between atoms: C_14  and  C_15
REMARK   10  A    between atoms: C_15  and  C_16
REMARK   11  A    between atoms: C_16  and  C_17
REMARK   12  A    between atoms: C_17  and  C_18
REMARK   13  A    between atoms: C_18  and  N_19
REMARK   14  A    between atoms: C_20  and  C_21
REMARK                            x       y       z     vdW  Elec       q    Type
REMARK                         _______ _______ _______ _____ _____    ______ ____
ROOT
ATOM      1  C   UNL     1       5.300   6.025  17.136  0.00  0.00    +0.000 A 
ATOM      2  C   UNL     1       5.703   4.983  17.901  0.00  0.00    +0.000 A 
ATOM      3  C   UNL     1       6.999   4.267  17.603  0.00  0.00    +0.000 C 
ATOM      4  C   UNL     1       4.842   4.532  19.024  0.00  0.00    +0.000 A 
ATOM      5  C   UNL     1       3.724   5.242  19.353  0.00  0.00    +0.000 A 
ATOM      6  C   UNL     1       3.374   6.416  18.628  0.00  0.00    +0.000 A 
ATOM      7  C   UNL     1       2.374   7.356  18.720  0.00  0.00    +0.000 A 
ATOM      8  C   UNL     1       2.626   8.252  17.668  0.00  0.00    +0.000 A 
ATOM      9  N   UNL     1       3.702   7.916  16.957  0.00  0.00    +0.000 NA
ATOM     10  N   UNL     1       4.159   6.764  17.533  0.00  0.00    +0.000 N 
ENDROOT
BRANCH   1  11
ATOM     11  N   UNL     1       5.957   6.445  15.980  0.00  0.00    +0.000 N 
ATOM     12  H   UNL     1       5.490   7.290  15.628  0.00  0.00    +0.000 HD
BRANCH  11  16
ATOM     13  C   UNL     1       6.604   3.765  12.742  0.00  0.00    +0.000 A 
ATOM     14  C   UNL     1       7.566   4.685  13.146  0.00  0.00    +0.000 A 
ATOM     15  C   UNL     1       7.329   5.552  14.206  0.00  0.00    +0.000 A 
ATOM     16  C   UNL     1       6.104   5.555  14.872  0.00  0.00    +0.000 A 
ATOM     17  C   UNL     1       5.142   4.616  14.480  0.00  0.00    +0.000 A 
ATOM     18  C   UNL     1       5.381   3.724  13.417  0.00  0.00    +0.000 A 
BRANCH  13  19
ATOM     19  O   UNL     1       6.774   2.865  11.710  0.00  0.00    +0.000 OA
BRANCH  19  21
ATOM     20  C   UNL     1       6.153   0.599  11.074  0.00  0.00    +0.000 C 
ATOM     21  C   UNL     1       5.678   1.956  11.543  0.00  0.00    +0.000 C 
ENDBRANCH  19  21
ENDBRANCH  13  19
ENDBRANCH  11  16
ENDBRANCH   1  11
BRANCH   4  22
ATOM     22  N   UNL     1       5.264   3.355  19.620  0.00  0.00    +0.000 N 
ATOM     23  H   UNL     1       5.830   3.522  20.453  0.00  0.00    +0.000 HD
BRANCH  22  24
ATOM     24  C   UNL     1       4.546   2.087  19.638  0.00  0.00    +0.000 C 
BRANCH  24  25
ATOM     25  C   UNL     1       4.319   1.606  18.202  0.00  0.00    +0.000 C 
BRANCH  25  26
ATOM     26  C   UNL     1       2.860   1.775  17.772  0.00  0.00    +0.000 C 
BRANCH  26  27
ATOM     27  C   UNL     1       1.902   1.789  18.961  0.00  0.00    +0.000 C 
BRANCH  27  28
ATOM     28  C   UNL     1       0.713   2.702  18.664  0.00  0.00    +0.000 C 
BRANCH  28  29
ATOM     29  N   UNL     1      -0.018   2.997  19.889  0.00  0.00    +0.000 NA
ATOM     30  H   UNL     1      -0.254   2.128  20.366  0.00  0.00    +0.000 HD
ATOM     31  H   UNL     1      -0.902   3.446  19.655  0.00  0.00    +0.000 HD
ENDBRANCH  28  29
ENDBRANCH  27  28
ENDBRANCH  26  27
ENDBRANCH  25  26
ENDBRANCH  24  25
ENDBRANCH  22  24
ENDBRANCH   4  22
BRANCH   5  32
ATOM     32  C   UNL     1       2.878   4.797  20.534  0.00  0.00    +0.000 C 
ATOM     33  N   UNL     1       2.175   4.428  21.513  0.00  0.00    +0.000 NA
ENDBRANCH   5  32
TORSDOF 12
ENDMDL
MODEL 5
REMARK VINA RESULT:      -6.6      2.414      5.537
REMARK  Name = 
REMARK  14 active torsions:
REMARK  status: ('A' for Active; 'I' for Inactive)
REMARK    1  A    between atoms: C_1  and  C_2
REMARK    2  A    between atoms: C_2  and  O_3
REMARK    3  A    between atoms: O_3  and  C_4
REMARK    4  A    between atoms: C_7  and  N_8
REMARK    5  A    between atoms: N_8  and  C_9
REMARK    6  A    between atoms: C_10  and  C_11
REMARK    7  A    between atoms: C_12  and  N_13
REMARK    8  A    between atoms: N_13  and  C_14
REMARK    9  A    between atoms: C_14  and  C_15
REMARK   10  A    between atoms: C_15  and  C_16
REMARK   11  A    between atoms: C_16  and  C_17
REMARK   12  A    between atoms: C_17  and  C_18
REMARK   13  A    between atoms: C_18  and  N_19
REMARK   14  A    between atoms: C_20  and  C_21
REMARK                            x       y       z     vdW  Elec       q    Type
REMARK                         _______ _______ _______ _____ _____    ______ ____
ROOT
ATOM      1  C   UNL     1      -0.140  11.288  18.670  0.00  0.00    +0.000 A 
ATOM      2  C   UNL     1      -0.075  12.302  19.563  0.00  0.00    +0.000 A 
ATOM      3  C   UNL     1       1.259  12.888  19.965  0.00  0.00    +0.000 C 
ATOM      4  C   UNL     1      -1.329  12.820  20.167  0.00  0.00    +0.000 A 
ATOM      5  C   UNL     1      -2.536  12.359  19.729  0.00  0.00    +0.000 A 
ATOM      6  C   UNL     1      -2.605  11.384  18.694  0.00  0.00    +0.000 A 
ATOM      7  C   UNL     1      -3.623  10.758  18.012  0.00  0.00    +0.000 A 
ATOM      8  C   UNL     1      -2.974   9.892  17.117  0.00  0.00    +0.000 A 
ATOM      9  N   UNL     1      -1.646   9.957  17.213  0.00  0.00    +0.000 NA
ATOM     10  N   UNL     1      -1.410  10.865  18.207  0.00  0.00    +0.000 N 
ENDROOT
BRANCH   1  11
ATOM     11  N   UNL     1       0.975  10.635  18.146  0.00  0.00    +0.000 N 
ATOM     12  H   UNL     1       0.839  10.518  17.134  0.00  0.00    +0.000 HD
BRANCH  11  16
ATOM     13  C   UNL     1       2.356   6.874  19.571  0.00  0.00    +0.000 A 
ATOM     14  C   UNL     1       2.532   7.276  18.252  0.00  0.00    +0.000 A 
ATOM     15  C   UNL     1       2.069   8.510  17.809  0.00  0.00    +0.000 A 
ATOM     16  C   UNL     1       1.377   9.367  18.664  0.00  0.00    +0.000 A 
ATOM     17  C   UNL     1       1.216   8.972  19.999  0.00  0.00    +0.000 A 
ATOM     18  C   UNL     1       1.696   7.731  20.458  0.00  0.00    +0.000 A 
BRANCH  13  19
ATOM     19  O   UNL     1       2.800   5.673  20.084  0.00  0.00    +0.000 OA
BRANCH  19  21
ATOM     20  C   UNL     1       1.030   4.029  20.385  0.00  0.00    +0.000 C 
ATOM     21  C   UNL     1       2.162   4.523  19.513  0.00  0.00    +0.000 C 
ENDBRANCH  19  21
ENDBRANCH  13  19
ENDBRANCH  11  16
ENDBRANCH   1  11
BRANCH   4  22
ATOM     22  N   UNL     1      -1.127  13.729  21.192  0.00  0.00    +0.000 N 
ATOM     23  H   UNL     1      -1.382  14.681  20.924  0.00  0.00    +0.000 HD
BRANCH  22  24
ATOM     24  C   UNL     1      -1.250  13.466  22.620  0.00  0.00    +0.000 C 
BRANCH  24  25
ATOM     25  C   UNL     1      -2.158  14.520  23.261  0.00  0.00    +0.000 C 
BRANCH  25  26
ATOM     26  C   UNL     1      -2.996  13.931  24.397  0.00  0.00    +0.000 C 
BRANCH  26  27
ATOM     27  C   UNL     1      -3.551  12.550  24.055  0.00  0.00    +0.000 C 
BRANCH  27  28
ATOM     28  C   UNL     1      -4.973  12.409  24.596  0.00  0.00    +0.000 C 
BRANCH  28  29
ATOM     29  N   UNL     1      -5.840  13.424  24.014  0.00  0.00    +0.000 NA
ATOM     30  H   UNL     1      -5.285  14.069  23.454  0.00  0.00    +0.000 HD
ATOM     31  H   UNL     1      -6.259  13.978  24.760  0.00  0.00    +0.000 HD
ENDBRANCH  28  29
ENDBRANCH  27  28
ENDBRANCH  26  27
ENDBRANCH  25  26
ENDBRANCH  24  25
ENDBRANCH  22  24
ENDBRANCH   4  22
BRANCH   5  32
ATOM     32  C   UNL     1      -3.813  12.931  20.321  0.00  0.00    +0.000 C 
ATOM     33  N   UNL     1      -4.873  13.406  20.812  0.00  0.00    +0.000 NA
ENDBRANCH   5  32
TORSDOF 12
ENDMDL
MODEL 6
REMARK VINA RESULT:      -6.6      0.448      1.056
REMARK  Name = 
REMARK  14 active torsions:
REMARK  status: ('A' for Active; 'I' for Inactive)
REMARK    1  A    between atoms: C_1  and  C_2
REMARK    2  A    between atoms: C_2  and  O_3
REMARK    3  A    between atoms: O_3  and  C_4
REMARK    4  A    between atoms: C_7  and  N_8
REMARK    5  A    between atoms: N_8  and  C_9
REMARK    6  A    between atoms: C_10  and  C_11
REMARK    7  A    between atoms: C_12  and  N_13
REMARK    8  A    between atoms: N_13  and  C_14
REMARK    9  A    between atoms: C_14  and  C_15
REMARK   10  A    between atoms: C_15  and  C_16
REMARK   11  A    between atoms: C_16  and  C_17
REMARK   12  A    between atoms: C_17  and  C_18
REMARK   13  A    between atoms: C_18  and  N_19
REMARK   14  A    between atoms: C_20  and  C_21
REMARK                            x       y       z     vdW  Elec       q    Type
REMARK                         _______ _______ _______ _____ _____    ______ ____
ROOT
ATOM      1  C   UNL     1       1.089   9.146  20.060  0.00  0.00    +0.000 A 
ATOM      2  C   UNL     1       0.485   9.677  18.971  0.00  0.00    +0.000 A 
ATOM      3  C   UNL     1       0.875   9.230  17.582  0.00  0.00    +0.000 C 
ATOM      4  C   UNL     1      -0.551  10.725  19.155  0.00  0.00    +0.000 A 
ATOM      5  C   UNL     1      -0.971  11.054  20.411  0.00  0.00    +0.000 A 
ATOM      6  C   UNL     1      -0.426  10.398  21.550  0.00  0.00    +0.000 A 
ATOM      7  C   UNL     1      -0.649  10.457  22.907  0.00  0.00    +0.000 A 
ATOM      8  C   UNL     1       0.256   9.534  23.458  0.00  0.00    +0.000 A 
ATOM      9  N   UNL     1       0.999   8.930  22.531  0.00  0.00    +0.000 NA
ATOM     10  N   UNL     1       0.597   9.479  21.346  0.00  0.00    +0.000 N 
ENDROOT
BRANCH   1  11
ATOM     11  N   UNL     1       2.164   8.260  20.003  0.00  0.00    +0.000 N 
ATOM     12  H   UNL     1       2.845   8.614  19.319  0.00  0.00    +0.000 HD
BRANCH  11  16
ATOM     13  C   UNL     1       1.698   4.156  18.991  0.00  0.00    +0.000 A 
ATOM     14  C   UNL     1       2.188   5.091  18.085  0.00  0.00    +0.000 A 
ATOM     15  C   UNL     1       2.329   6.428  18.440  0.00  0.00    +0.000 A 
ATOM     16  C   UNL     1       1.945   6.881  19.701  0.00  0.00    +0.000 A 
ATOM     17  C   UNL     1       1.470   5.937  20.621  0.00  0.00    +0.000 A 
ATOM     18  C   UNL     1       1.339   4.579  20.274  0.00  0.00    +0.000 A 
BRANCH  13  19
ATOM     19  O   UNL     1       1.545   2.812  18.715  0.00  0.00    +0.000 OA
BRANCH  19  21
ATOM     20  C   UNL     1       3.593   1.604  18.193  0.00  0.00    +0.000 C 
ATOM     21  C   UNL     1       2.583   1.984  19.253  0.00  0.00    +0.000 C 
ENDBRANCH  19  21
ENDBRANCH  13  19
ENDBRANCH  11  16
ENDBRANCH   1  11
BRANCH   4  22
ATOM     22  N   UNL     1      -0.968  11.318  17.974  0.00  0.00    +0.000 N 
ATOM     23  H   UNL     1      -0.247  11.295  17.252  0.00  0.00    +0.000 HD
BRANCH  22  24
ATOM     24  C   UNL     1      -2.328  11.342  17.451  0.00  0.00    +0.000 C 
BRANCH  24  25
ATOM     25  C   UNL     1      -2.356  10.689  16.065  0.00  0.00    +0.000 C 
BRANCH  25  26
ATOM     26  C   UNL     1      -3.707  10.883  15.374  0.00  0.00    +0.000 C 
BRANCH  26  27
ATOM     27  C   UNL     1      -3.816  10.086  14.076  0.00  0.00    +0.000 C 
BRANCH  27  28
ATOM     28  C   UNL     1      -2.461   9.473  13.723  0.00  0.00    +0.000 C 
BRANCH  28  29
ATOM     29  N   UNL     1      -2.248   9.510  12.283  0.00  0.00    +0.000 NA
ATOM     30  H   UNL     1      -1.252   9.428  12.081  0.00  0.00    +0.000 HD
ATOM     31  H   UNL     1      -2.540  10.417  11.921  0.00  0.00    +0.000 HD
ENDBRANCH  28  29
ENDBRANCH  27  28
ENDBRANCH  26  27
ENDBRANCH  25  26
ENDBRANCH  24  25
ENDBRANCH  22  24
ENDBRANCH   4  22
BRANCH   5  32
ATOM     32  C   UNL     1      -2.065  12.095  20.583  0.00  0.00    +0.000 C 
ATOM     33  N   UNL     1      -2.973  12.959  20.725  0.00  0.00    +0.000 NA
ENDBRANCH   5  32
TORSDOF 12
ENDMDL
MODEL 7
REMARK VINA RESULT:      -6.4      1.354      1.972
REMARK  Name = 
REMARK  14 active torsions:
REMARK  status: ('A' for Active; 'I' for Inactive)
REMARK    1  A    between atoms: C_1  and  C_2
REMARK    2  A    between atoms: C_2  and  O_3
REMARK    3  A    between atoms: O_3  and  C_4
REMARK    4  A    between atoms: C_7  and  N_8
REMARK    5  A    between atoms: N_8  and  C_9
REMARK    6  A    between atoms: C_10  and  C_11
REMARK    7  A    between atoms: C_12  and  N_13
REMARK    8  A    between atoms: N_13  and  C_14
REMARK    9  A    between atoms: C_14  and  C_15
REMARK   10  A    between atoms: C_15  and  C_16
REMARK   11  A    between atoms: C_16  and  C_17
REMARK   12  A    between atoms: C_17  and  C_18
REMARK   13  A    between atoms: C_18  and  N_19
REMARK   14  A    between atoms: C_20  and  C_21
REMARK                            x       y       z     vdW  Elec       q    Type
REMARK                         _______ _______ _______ _____ _____    ______ ____
ROOT
ATOM      1  C   UNL     1       1.181   9.063  20.148  0.00  0.00    +0.000 A 
ATOM      2  C   UNL     1       0.644   9.514  18.991  0.00  0.00    +0.000 A 
ATOM      3  C   UNL     1       1.144   9.002  17.660  0.00  0.00    +0.000 C 
ATOM      4  C   UNL     1      -0.429  10.539  19.040  0.00  0.00    +0.000 A 
ATOM      5  C   UNL     1      -0.947  10.925  20.241  0.00  0.00    +0.000 A 
ATOM      6  C   UNL     1      -0.469  10.351  21.453  0.00  0.00    +0.000 A 
ATOM      7  C   UNL     1      -0.791  10.479  22.784  0.00  0.00    +0.000 A 
ATOM      8  C   UNL     1       0.095   9.616  23.451  0.00  0.00    +0.000 A 
ATOM      9  N   UNL     1       0.919   8.983  22.616  0.00  0.00    +0.000 NA
ATOM     10  N   UNL     1       0.589   9.452  21.375  0.00  0.00    +0.000 N 
ENDROOT
BRANCH   1  11
ATOM     11  N   UNL     1       2.280   8.207  20.218  0.00  0.00    +0.000 N 
ATOM     12  H   UNL     1       3.042   8.606  19.656  0.00  0.00    +0.000 HD
BRANCH  11  16
ATOM     13  C   UNL     1       1.695   4.126  19.176  0.00  0.00    +0.000 A 
ATOM     14  C   UNL     1       1.266   4.649  20.391  0.00  0.00    +0.000 A 
ATOM     15  C   UNL     1       1.471   5.987  20.709  0.00  0.00    +0.000 A 
ATOM     16  C   UNL     1       2.150   6.837  19.838  0.00  0.00    +0.000 A 
ATOM     17  C   UNL     1       2.567   6.316  18.605  0.00  0.00    +0.000 A 
ATOM     18  C   UNL     1       2.348   4.967  18.270  0.00  0.00    +0.000 A 
BRANCH  13  19
ATOM     19  O   UNL     1       1.514   2.815  18.787  0.00  0.00    +0.000 OA
BRANCH  19  21
ATOM     20  C   UNL     1       3.499   1.568  18.130  0.00  0.00    +0.000 C 
ATOM     21  C   UNL     1       2.540   1.924  19.244  0.00  0.00    +0.000 C 
ENDBRANCH  19  21
ENDBRANCH  13  19
ENDBRANCH  11  16
ENDBRANCH   1  11
BRANCH   4  22
ATOM     22  N   UNL     1      -0.776  11.052  17.800  0.00  0.00    +0.000 N 
ATOM     23  H   UNL     1       0.019  11.478  17.320  0.00  0.00    +0.000 HD
BRANCH  22  24
ATOM     24  C   UNL     1      -1.799  10.532  16.903  0.00  0.00    +0.000 C 
BRANCH  24  25
ATOM     25  C   UNL     1      -2.920  11.565  16.749  0.00  0.00    +0.000 C 
BRANCH  25  26
ATOM     26  C   UNL     1      -4.290  10.898  16.617  0.00  0.00    +0.000 C 
BRANCH  26  27
ATOM     27  C   UNL     1      -5.102  10.977  17.908  0.00  0.00    +0.000 C 
BRANCH  27  28
ATOM     28  C   UNL     1      -6.095  12.136  17.832  0.00  0.00    +0.000 C 
BRANCH  28  29
ATOM     29  N   UNL     1      -5.598  13.280  18.584  0.00  0.00    +0.000 NA
ATOM     30  H   UNL     1      -5.908  14.143  18.141  0.00  0.00    +0.000 HD
ATOM     31  H   UNL     1      -4.580  13.290  18.552  0.00  0.00    +0.000 HD
ENDBRANCH  28  29
ENDBRANCH  27  28
ENDBRANCH  26  27
ENDBRANCH  25  26
ENDBRANCH  24  25
ENDBRANCH  22  24
ENDBRANCH   4  22
BRANCH   5  32
ATOM     32  C   UNL     1      -2.077  11.941  20.275  0.00  0.00    +0.000 C 
ATOM     33  N   UNL     1      -3.015  12.784  20.302  0.00  0.00    +0.000 NA
ENDBRANCH   5  32
TORSDOF 12
ENDMDL
MODEL 8
REMARK VINA RESULT:      -6.4      2.489      5.836
REMARK  Name = 
REMARK  14 active torsions:
REMARK  status: ('A' for Active; 'I' for Inactive)
REMARK    1  A    between atoms: C_1  and  C_2
REMARK    2  A    between atoms: C_2  and  O_3
REMARK    3  A    between atoms: O_3  and  C_4
REMARK    4  A    between atoms: C_7  and  N_8
REMARK    5  A    between atoms: N_8  and  C_9
REMARK    6  A    between atoms: C_10  and  C_11
REMARK    7  A    between atoms: C_12  and  N_13
REMARK    8  A    between atoms: N_13  and  C_14
REMARK    9  A    between atoms: C_14  and  C_15
REMARK   10  A    between atoms: C_15  and  C_16
REMARK   11  A    between atoms: C_16  and  C_17
REMARK   12  A    between atoms: C_17  and  C_18
REMARK   13  A    between atoms: C_18  and  N_19
REMARK   14  A    between atoms: C_20  and  C_21
REMARK                            x       y       z     vdW  Elec       q    Type
REMARK                         _______ _______ _______ _____ _____    ______ ____
ROOT
ATOM      1  C   UNL     1      -0.901  11.454  18.570  0.00  0.00    +0.000 A 
ATOM      2  C   UNL     1      -1.249  12.294  19.572  0.00  0.00    +0.000 A 
ATOM      3  C   UNL     1      -0.190  13.015  20.372  0.00  0.00    +0.000 C 
ATOM      4  C   UNL     1      -2.686  12.481  19.896  0.00  0.00    +0.000 A 
ATOM      5  C   UNL     1      -3.642  11.908  19.109  0.00  0.00    +0.000 A 
ATOM      6  C   UNL     1      -3.274  11.131  17.975  0.00  0.00    +0.000 A 
ATOM      7  C   UNL     1      -3.960  10.472  16.981  0.00  0.00    +0.000 A 
ATOM      8  C   UNL     1      -2.962   9.896  16.178  0.00  0.00    +0.000 A 
ATOM      9  N   UNL     1      -1.733  10.164  16.618  0.00  0.00    +0.000 NA
ATOM     10  N   UNL     1      -1.919  10.912  17.747  0.00  0.00    +0.000 N 
ENDROOT
BRANCH   1  11
ATOM     11  N   UNL     1       0.413  11.099  18.268  0.00  0.00    +0.000 N 
ATOM     12  H   UNL     1       0.531  11.118  17.247  0.00  0.00    +0.000 HD
BRANCH  11  16
ATOM     13  C   UNL     1       2.178   7.435  19.513  0.00  0.00    +0.000 A 
ATOM     14  C   UNL     1       2.254   7.885  18.199  0.00  0.00    +0.000 A 
ATOM     15  C   UNL     1       1.667   9.086  17.817  0.00  0.00    +0.000 A 
ATOM     16  C   UNL     1       0.947   9.857  18.728  0.00  0.00    +0.000 A 
ATOM     17  C   UNL     1       0.886   9.414  20.057  0.00  0.00    +0.000 A 
ATOM     18  C   UNL     1       1.491   8.208  20.454  0.00  0.00    +0.000 A 
BRANCH  13  19
ATOM     19  O   UNL     1       2.747   6.263  19.968  0.00  0.00    +0.000 OA
BRANCH  19  21
ATOM     20  C   UNL     1       1.214   4.443  20.477  0.00  0.00    +0.000 C 
ATOM     21  C   UNL     1       2.129   5.077  19.454  0.00  0.00    +0.000 C 
ENDBRANCH  19  21
ENDBRANCH  13  19
ENDBRANCH  11  16
ENDBRANCH   1  11
BRANCH   4  22
ATOM     22  N   UNL     1      -2.912  13.219  21.047  0.00  0.00    +0.000 N 
ATOM     23  H   UNL     1      -2.451  12.816  21.863  0.00  0.00    +0.000 HD
BRANCH  22  24
ATOM     24  C   UNL     1      -3.104  14.661  21.128  0.00  0.00    +0.000 C 
BRANCH  24  25
ATOM     25  C   UNL     1      -4.530  14.964  21.599  0.00  0.00    +0.000 C 
BRANCH  25  26
ATOM     26  C   UNL     1      -5.008  13.952  22.643  0.00  0.00    +0.000 C 
BRANCH  26  27
ATOM     27  C   UNL     1      -4.402  14.210  24.021  0.00  0.00    +0.000 C 
BRANCH  27  28
ATOM     28  C   UNL     1      -3.846  12.909  24.600  0.00  0.00    +0.000 C 
BRANCH  28  29
ATOM     29  N   UNL     1      -4.933  12.042  25.035  0.00  0.00    +0.000 NA
ATOM     30  H   UNL     1      -5.352  11.586  24.226  0.00  0.00    +0.000 HD
ATOM     31  H   UNL     1      -5.667  12.608  25.458  0.00  0.00    +0.000 HD
ENDBRANCH  28  29
ENDBRANCH  27  28
ENDBRANCH  26  27
ENDBRANCH  25  26
ENDBRANCH  24  25
ENDBRANCH  22  24
ENDBRANCH   4  22
BRANCH   5  32
ATOM     32  C   UNL     1      -5.109  12.146  19.424  0.00  0.00    +0.000 C 
ATOM     33  N   UNL     1      -6.327  12.344  19.685  0.00  0.00    +0.000 NA
ENDBRANCH   5  32
TORSDOF 12
ENDMDL
MODEL 9
REMARK VINA RESULT:      -6.4      2.874      3.996
REMARK  Name = 
REMARK  14 active torsions:
REMARK  status: ('A' for Active; 'I' for Inactive)
REMARK    1  A    between atoms: C_1  and  C_2
REMARK    2  A    between atoms: C_2  and  O_3
REMARK    3  A    between atoms: O_3  and  C_4
REMARK    4  A    between atoms: C_7  and  N_8
REMARK    5  A    between atoms: N_8  and  C_9
REMARK    6  A    between atoms: C_10  and  C_11
REMARK    7  A    between atoms: C_12  and  N_13
REMARK    8  A    between atoms: N_13  and  C_14
REMARK    9  A    between atoms: C_14  and  C_15
REMARK   10  A    between atoms: C_15  and  C_16
REMARK   11  A    between atoms: C_16  and  C_17
REMARK   12  A    between atoms: C_17  and  C_18
REMARK   13  A    between atoms: C_18  and  N_19
REMARK   14  A    between atoms: C_20  and  C_21
REMARK                            x       y       z     vdW  Elec       q    Type
REMARK                         _______ _______ _______ _____ _____    ______ ____
ROOT
ATOM      1  C   UNL     1      -0.571  11.304  18.773  0.00  0.00    +0.000 A 
ATOM      2  C   UNL     1      -1.781  11.018  18.237  0.00  0.00    +0.000 A 
ATOM      3  C   UNL     1      -1.906  10.014  17.115  0.00  0.00    +0.000 C 
ATOM      4  C   UNL     1      -2.985  11.722  18.746  0.00  0.00    +0.000 A 
ATOM      5  C   UNL     1      -2.884  12.552  19.824  0.00  0.00    +0.000 A 
ATOM      6  C   UNL     1      -1.631  12.749  20.469  0.00  0.00    +0.000 A 
ATOM      7  C   UNL     1      -1.202  13.459  21.567  0.00  0.00    +0.000 A 
ATOM      8  C   UNL     1       0.180  13.214  21.633  0.00  0.00    +0.000 A 
ATOM      9  N   UNL     1       0.605  12.410  20.659  0.00  0.00    +0.000 NA
ATOM     10  N   UNL     1      -0.511  12.136  19.919  0.00  0.00    +0.000 N 
ENDROOT
BRANCH   1  11
ATOM     11  N   UNL     1       0.637  10.809  18.285  0.00  0.00    +0.000 N 
ATOM     12  H   UNL     1       0.584  10.768  17.260  0.00  0.00    +0.000 HD
BRANCH  11  16
ATOM     13  C   UNL     1       2.280   7.076  19.491  0.00  0.00    +0.000 A 
ATOM     14  C   UNL     1       2.411   7.558  18.194  0.00  0.00    +0.000 A 
ATOM     15  C   UNL     1       1.863   8.781  17.824  0.00  0.00    +0.000 A 
ATOM     16  C   UNL     1       1.128   9.544  18.730  0.00  0.00    +0.000 A 
ATOM     17  C   UNL     1       1.010   9.068  20.043  0.00  0.00    +0.000 A 
ATOM     18  C   UNL     1       1.576   7.838  20.429  0.00  0.00    +0.000 A 
BRANCH  13  19
ATOM     19  O   UNL     1       2.808   5.880  19.934  0.00  0.00    +0.000 OA
BRANCH  19  21
ATOM     20  C   UNL     1       2.195   3.650  20.691  0.00  0.00    +0.000 C 
ATOM     21  C   UNL     1       1.930   5.135  20.787  0.00  0.00    +0.000 C 
ENDBRANCH  19  21
ENDBRANCH  13  19
ENDBRANCH  11  16
ENDBRANCH   1  11
BRANCH   4  22
ATOM     22  N   UNL     1      -4.132  11.483  18.006  0.00  0.00    +0.000 N 
ATOM     23  H   UNL     1      -4.005  11.689  17.015  0.00  0.00    +0.000 HD
BRANCH  22  24
ATOM     24  C   UNL     1      -5.138  10.464  18.274  0.00  0.00    +0.000 C 
BRANCH  24  25
ATOM     25  C   UNL     1      -6.535  11.087  18.188  0.00  0.00    +0.000 C 
BRANCH  25  26
ATOM     26  C   UNL     1      -6.485  12.518  17.649  0.00  0.00    +0.000 C 
BRANCH  26  27
ATOM     27  C   UNL     1      -7.679  13.353  18.106  0.00  0.00    +0.000 C 
BRANCH  27  28
ATOM     28  C   UNL     1      -7.916  14.505  17.129  0.00  0.00    +0.000 C 
BRANCH  28  29
ATOM     29  N   UNL     1      -6.751  14.694  16.277  0.00  0.00    +0.000 NA
ATOM     30  H   UNL     1      -6.956  15.396  15.567  0.00  0.00    +0.000 HD
ATOM     31  H   UNL     1      -6.554  13.829  15.776  0.00  0.00    +0.000 HD
ENDBRANCH  28  29
ENDBRANCH  27  28
ENDBRANCH  26  27
ENDBRANCH  25  26
ENDBRANCH  24  25
ENDBRANCH  22  24
ENDBRANCH   4  22
BRANCH   5  32
ATOM     32  C   UNL     1      -4.132  13.230  20.364  0.00  0.00    +0.000 C 
ATOM     33  N   UNL     1      -5.168  13.793  20.811  0.00  0.00    +0.000 NA
ENDBRANCH   5  32
TORSDOF 12
ENDMDL
