MODEL 1
REMARK VINA RESULT:      -6.9      0.000      0.000
REMARK  Name = 
REMARK  4 active torsions:
REMARK  status: ('A' for Active; 'I' for Inactive)
REMARK    1  A    between atoms: C_2  and  C_3
REMARK    2  A    between atoms: C_3  and  C_4
REMARK    3  A    between atoms: C_4  and  N_5
REMARK    4  A    between atoms: N_10  and  C_11
REMARK                            x       y       z     vdW  Elec       q    Type
REMARK                         _______ _______ _______ _____ _____    ______ ____
ROOT
ATOM      1  O   UNL     1       6.903   5.374  19.857  0.00  0.00    +0.000 OA
ATOM      2  C   UNL     1       6.705   4.799  18.792  0.00  0.00    +0.000 C 
ATOM      3  N   UNL     1       5.657   3.939  18.507  0.00  0.00    +0.000 N 
ATOM      4  H   UNL     1       5.718   3.409  17.645  0.00  0.00    +0.000 HD
ENDROOT
BRANCH   3   5
ATOM      5  C   UNL     1       4.596   3.599  19.374  0.00  0.00    +0.000 A 
ATOM      6  C   UNL     1       4.469   2.346  19.977  0.00  0.00    +0.000 A 
ATOM      7  C   UNL     1       3.378   2.063  20.806  0.00  0.00    +0.000 A 
ATOM      8  C   UNL     1       2.401   3.030  21.039  0.00  0.00    +0.000 A 
ATOM      9 CL   UNL     1       1.063   2.600  22.042  0.00  0.00    +0.000 Cl
ATOM     10  C   UNL     1       2.534   4.295  20.460  0.00  0.00    +0.000 A 
ATOM     11 CL   UNL     1       1.366   5.548  20.698  0.00  0.00    +0.000 Cl
ATOM     12  C   UNL     1       3.636   4.581  19.642  0.00  0.00    +0.000 A 
ENDBRANCH   3   5
BRANCH   2  13
ATOM     13  C   UNL     1       7.627   5.012  17.613  0.00  0.00    +0.000 C 
BRANCH  13  14
ATOM     14  C   UNL     1       6.956   5.896  16.570  0.00  0.00    +0.000 C 
BRANCH  14  15
ATOM     15  N   UNL     1       6.741   5.201  15.326  0.00  0.00    +0.000 N 
ATOM     16  C   UNL     1       5.735   4.357  14.987  0.00  0.00    +0.000 A 
ATOM     17  N   UNL     1       5.951   3.928  13.765  0.00  0.00    +0.000 NA
ATOM     18  N   UNL     1       7.111   4.537  13.351  0.00  0.00    +0.000 NA
ATOM     19  N   UNL     1       7.598   5.325  14.301  0.00  0.00    +0.000 NA
ENDBRANCH  14  15
ENDBRANCH  13  14
ENDBRANCH   2  13
TORSDOF 4
ENDMDL
MODEL 2
REMARK VINA RESULT:      -6.9      3.597      4.810
REMARK  Name = 
REMARK  4 active torsions:
REMARK  status: ('A' for Active; 'I' for Inactive)
REMARK    1  A    between atoms: C_2  and  C_3
REMARK    2  A    between atoms: C_3  and  C_4
REMARK    3  A    between atoms: C_4  and  N_5
REMARK    4  A    between atoms: N_10  and  C_11
REMARK                            x       y       z     vdW  Elec       q    Type
REMARK                         _______ _______ _______ _____ _____    ______ ____
ROOT
ATOM      1  O   UNL     1       1.729   4.691  17.645  0.00  0.00    +0.000 OA
ATOM      2  C   UNL     1       2.894   4.994  17.876  0.00  0.00    +0.000 C 
ATOM      3  N   UNL     1       3.351   6.224  18.317  0.00  0.00    +0.000 N 
ATOM      4  H   UNL     1       4.352   6.377  18.300  0.00  0.00    +0.000 HD
ENDROOT
BRANCH   3   5
ATOM      5  C   UNL     1       2.554   7.348  18.627  0.00  0.00    +0.000 A 
ATOM      6  C   UNL     1       2.196   8.318  17.689  0.00  0.00    +0.000 A 
ATOM      7  C   UNL     1       1.426   9.423  18.067  0.00  0.00    +0.000 A 
ATOM      8  C   UNL     1       1.007   9.571  19.388  0.00  0.00    +0.000 A 
ATOM      9 CL   UNL     1       0.091  10.978  19.792  0.00  0.00    +0.000 Cl
ATOM     10  C   UNL     1       1.339   8.591  20.329  0.00  0.00    +0.000 A 
ATOM     11 CL   UNL     1       0.859   8.701  21.986  0.00  0.00    +0.000 Cl
ATOM     12  C   UNL     1       2.098   7.478  19.944  0.00  0.00    +0.000 A 
ENDBRANCH   3   5
BRANCH   2  13
ATOM     13  C   UNL     1       4.005   3.979  17.717  0.00  0.00    +0.000 C 
BRANCH  13  14
ATOM     14  C   UNL     1       5.296   4.507  18.328  0.00  0.00    +0.000 C 
BRANCH  14  15
ATOM     15  N   UNL     1       6.175   5.073  17.337  0.00  0.00    +0.000 N 
ATOM     16  C   UNL     1       6.735   4.474  16.256  0.00  0.00    +0.000 A 
ATOM     17  N   UNL     1       7.493   5.355  15.644  0.00  0.00    +0.000 NA
ATOM     18  N   UNL     1       7.380   6.518  16.368  0.00  0.00    +0.000 NA
ATOM     19  N   UNL     1       6.568   6.354  17.404  0.00  0.00    +0.000 NA
ENDBRANCH  14  15
ENDBRANCH  13  14
ENDBRANCH   2  13
TORSDOF 4
ENDMDL
MODEL 3
REMARK VINA RESULT:      -6.7      4.292      6.523
REMARK  Name = 
REMARK  4 active torsions:
REMARK  status: ('A' for Active; 'I' for Inactive)
REMARK    1  A    between atoms: C_2  and  C_3
REMARK    2  A    between atoms: C_3  and  C_4
REMARK    3  A    between atoms: C_4  and  N_5
REMARK    4  A    between atoms: N_10  and  C_11
REMARK                            x       y       z     vdW  Elec       q    Type
REMARK                         _______ _______ _______ _____ _____    ______ ____
ROOT
ATOM      1  O   UNL     1       1.506   4.793  17.534  0.00  0.00    +0.000 OA
ATOM      2  C   UNL     1       2.616   4.907  18.042  0.00  0.00    +0.000 C 
ATOM      3  N   UNL     1       3.120   6.037  18.664  0.00  0.00    +0.000 N 
ATOM      4  H   UNL     1       4.110   6.039  18.884  0.00  0.00    +0.000 HD
ENDROOT
BRANCH   3   5
ATOM      5  C   UNL     1       2.434   7.254  18.869  0.00  0.00    +0.000 A 
ATOM      6  C   UNL     1       2.236   8.203  17.864  0.00  0.00    +0.000 A 
ATOM      7  C   UNL     1       1.571   9.402  18.140  0.00  0.00    +0.000 A 
ATOM      8  C   UNL     1       1.099   9.667  19.425  0.00  0.00    +0.000 A 
ATOM      9 CL   UNL     1       0.320  11.183  19.703  0.00  0.00    +0.000 Cl
ATOM     10  C   UNL     1       1.271   8.712  20.431  0.00  0.00    +0.000 A 
ATOM     11 CL   UNL     1       0.716   8.964  22.049  0.00  0.00    +0.000 Cl
ATOM     12  C   UNL     1       1.924   7.504  20.149  0.00  0.00    +0.000 A 
ENDBRANCH   3   5
BRANCH   2  13
ATOM     13  C   UNL     1       3.584   3.745  18.062  0.00  0.00    +0.000 C 
BRANCH  13  14
ATOM     14  C   UNL     1       2.876   2.476  18.518  0.00  0.00    +0.000 C 
BRANCH  14  15
ATOM     15  N   UNL     1       2.507   2.530  19.911  0.00  0.00    +0.000 N 
ATOM     16  C   UNL     1       1.270   2.626  20.459  0.00  0.00    +0.000 A 
ATOM     17  N   UNL     1       1.401   2.677  21.765  0.00  0.00    +0.000 NA
ATOM     18  N   UNL     1       2.752   2.600  22.011  0.00  0.00    +0.000 NA
ATOM     19  N   UNL     1       3.436   2.503  20.878  0.00  0.00    +0.000 NA
ENDBRANCH  14  15
ENDBRANCH  13  14
ENDBRANCH   2  13
TORSDOF 4
ENDMDL
MODEL 4
REMARK VINA RESULT:      -6.7      3.724      5.309
REMARK  Name = 
REMARK  4 active torsions:
REMARK  status: ('A' for Active; 'I' for Inactive)
REMARK    1  A    between atoms: C_2  and  C_3
REMARK    2  A    between atoms: C_3  and  C_4
REMARK    3  A    between atoms: C_4  and  N_5
REMARK    4  A    between atoms: N_10  and  C_11
REMARK                            x       y       z     vdW  Elec       q    Type
REMARK                         _______ _______ _______ _____ _____    ______ ____
ROOT
ATOM      1  O   UNL     1       1.530   4.778  17.886  0.00  0.00    +0.000 OA
ATOM      2  C   UNL     1       2.701   5.137  17.850  0.00  0.00    +0.000 C 
ATOM      3  N   UNL     1       3.180   6.406  18.127  0.00  0.00    +0.000 N 
ATOM      4  H   UNL     1       4.147   6.595  17.891  0.00  0.00    +0.000 HD
ENDROOT
BRANCH   3   5
ATOM      5  C   UNL     1       2.412   7.515  18.546  0.00  0.00    +0.000 A 
ATOM      6  C   UNL     1       2.004   8.535  17.685  0.00  0.00    +0.000 A 
ATOM      7  C   UNL     1       1.267   9.622  18.170  0.00  0.00    +0.000 A 
ATOM      8  C   UNL     1       0.934   9.700  19.522  0.00  0.00    +0.000 A 
ATOM      9 CL   UNL     1       0.055  11.087  20.057  0.00  0.00    +0.000 Cl
ATOM     10  C   UNL     1       1.317   8.670  20.385  0.00  0.00    +0.000 A 
ATOM     11 CL   UNL     1       0.944   8.693  22.073  0.00  0.00    +0.000 Cl
ATOM     12  C   UNL     1       2.042   7.575  19.894  0.00  0.00    +0.000 A 
ENDBRANCH   3   5
BRANCH   2  13
ATOM     13  C   UNL     1       3.801   4.157  17.506  0.00  0.00    +0.000 C 
BRANCH  13  14
ATOM     14  C   UNL     1       4.669   3.886  18.728  0.00  0.00    +0.000 C 
BRANCH  14  15
ATOM     15  N   UNL     1       5.981   4.471  18.604  0.00  0.00    +0.000 N 
ATOM     16  C   UNL     1       6.770   4.561  17.505  0.00  0.00    +0.000 A 
ATOM     17  N   UNL     1       7.896   5.142  17.852  0.00  0.00    +0.000 NA
ATOM     18  N   UNL     1       7.778   5.421  19.193  0.00  0.00    +0.000 NA
ATOM     19  N   UNL     1       6.602   5.018  19.659  0.00  0.00    +0.000 NA
ENDBRANCH  14  15
ENDBRANCH  13  14
ENDBRANCH   2  13
TORSDOF 4
ENDMDL
MODEL 5
REMARK VINA RESULT:      -6.6      1.687      2.180
REMARK  Name = 
REMARK  4 active torsions:
REMARK  status: ('A' for Active; 'I' for Inactive)
REMARK    1  A    between atoms: C_2  and  C_3
REMARK    2  A    between atoms: C_3  and  C_4
REMARK    3  A    between atoms: C_4  and  N_5
REMARK    4  A    between atoms: N_10  and  C_11
REMARK                            x       y       z     vdW  Elec       q    Type
REMARK                         _______ _______ _______ _____ _____    ______ ____
ROOT
ATOM      1  O   UNL     1       5.445   5.982  19.757  0.00  0.00    +0.000 OA
ATOM      2  C   UNL     1       6.172   5.176  19.187  0.00  0.00    +0.000 C 
ATOM      3  N   UNL     1       5.791   3.946  18.677  0.00  0.00    +0.000 N 
ATOM      4  H   UNL     1       6.532   3.319  18.387  0.00  0.00    +0.000 HD
ENDROOT
BRANCH   3   5
ATOM      5  C   UNL     1       4.485   3.411  18.677  0.00  0.00    +0.000 A 
ATOM      6  C   UNL     1       3.785   3.092  17.511  0.00  0.00    +0.000 A 
ATOM      7  C   UNL     1       2.482   2.590  17.579  0.00  0.00    +0.000 A 
ATOM      8  C   UNL     1       1.862   2.402  18.815  0.00  0.00    +0.000 A 
ATOM      9 CL   UNL     1       0.239   1.813  18.822  0.00  0.00    +0.000 Cl
ATOM     10  C   UNL     1       2.565   2.694  19.987  0.00  0.00    +0.000 A 
ATOM     11 CL   UNL     1       1.868   2.490  21.556  0.00  0.00    +0.000 Cl
ATOM     12  C   UNL     1       3.876   3.184  19.917  0.00  0.00    +0.000 A 
ENDBRANCH   3   5
BRANCH   2  13
ATOM     13  C   UNL     1       7.634   5.482  18.951  0.00  0.00    +0.000 C 
BRANCH  13  14
ATOM     14  C   UNL     1       7.781   6.608  17.935  0.00  0.00    +0.000 C 
BRANCH  14  15
ATOM     15  N   UNL     1       7.008   6.368  16.743  0.00  0.00    +0.000 N 
ATOM     16  C   UNL     1       5.767   6.817  16.430  0.00  0.00    +0.000 A 
ATOM     17  N   UNL     1       5.436   6.329  15.256  0.00  0.00    +0.000 NA
ATOM     18  N   UNL     1       6.509   5.574  14.846  0.00  0.00    +0.000 NA
ATOM     19  N   UNL     1       7.480   5.599  15.750  0.00  0.00    +0.000 NA
ENDBRANCH  14  15
ENDBRANCH  13  14
ENDBRANCH   2  13
TORSDOF 4
ENDMDL
MODEL 6
REMARK VINA RESULT:      -6.6      2.110      3.003
REMARK  Name = 
REMARK  4 active torsions:
REMARK  status: ('A' for Active; 'I' for Inactive)
REMARK    1  A    between atoms: C_2  and  C_3
REMARK    2  A    between atoms: C_3  and  C_4
REMARK    3  A    between atoms: C_4  and  N_5
REMARK    4  A    between atoms: N_10  and  C_11
REMARK                            x       y       z     vdW  Elec       q    Type
REMARK                         _______ _______ _______ _____ _____    ______ ____
ROOT
ATOM      1  O   UNL     1       4.360   5.476  16.418  0.00  0.00    +0.000 OA
ATOM      2  C   UNL     1       4.967   4.427  16.237  0.00  0.00    +0.000 C 
ATOM      3  N   UNL     1       4.904   3.295  17.033  0.00  0.00    +0.000 N 
ATOM      4  H   UNL     1       5.588   2.569  16.855  0.00  0.00    +0.000 HD
ENDROOT
BRANCH   3   5
ATOM      5  C   UNL     1       4.095   3.123  18.177  0.00  0.00    +0.000 A 
ATOM      6  C   UNL     1       4.577   3.237  19.483  0.00  0.00    +0.000 A 
ATOM      7  C   UNL     1       3.729   3.027  20.575  0.00  0.00    +0.000 A 
ATOM      8  C   UNL     1       2.389   2.698  20.373  0.00  0.00    +0.000 A 
ATOM      9 CL   UNL     1       1.408   2.417  21.766  0.00  0.00    +0.000 Cl
ATOM     10  C   UNL     1       1.892   2.607  19.070  0.00  0.00    +0.000 A 
ATOM     11 CL   UNL     1       0.244   2.204  18.735  0.00  0.00    +0.000 Cl
ATOM     12  C   UNL     1       2.741   2.833  17.978  0.00  0.00    +0.000 A 
ENDBRANCH   3   5
BRANCH   2  13
ATOM     13  C   UNL     1       5.873   4.252  15.038  0.00  0.00    +0.000 C 
BRANCH  13  14
ATOM     14  C   UNL     1       7.164   5.036  15.233  0.00  0.00    +0.000 C 
BRANCH  14  15
ATOM     15  N   UNL     1       7.464   5.254  16.626  0.00  0.00    +0.000 N 
ATOM     16  C   UNL     1       7.371   6.399  17.346  0.00  0.00    +0.000 A 
ATOM     17  N   UNL     1       7.774   6.149  18.571  0.00  0.00    +0.000 NA
ATOM     18  N   UNL     1       8.110   4.816  18.593  0.00  0.00    +0.000 NA
ATOM     19  N   UNL     1       7.915   4.258  17.404  0.00  0.00    +0.000 NA
ENDBRANCH  14  15
ENDBRANCH  13  14
ENDBRANCH   2  13
TORSDOF 4
ENDMDL
MODEL 7
REMARK VINA RESULT:      -6.6      3.914      6.719
REMARK  Name = 
REMARK  4 active torsions:
REMARK  status: ('A' for Active; 'I' for Inactive)
REMARK    1  A    between atoms: C_2  and  C_3
REMARK    2  A    between atoms: C_3  and  C_4
REMARK    3  A    between atoms: C_4  and  N_5
REMARK    4  A    between atoms: N_10  and  C_11
REMARK                            x       y       z     vdW  Elec       q    Type
REMARK                         _______ _______ _______ _____ _____    ______ ____
ROOT
ATOM      1  O   UNL     1       1.983   4.681  17.590  0.00  0.00    +0.000 OA
ATOM      2  C   UNL     1       2.679   3.673  17.578  0.00  0.00    +0.000 C 
ATOM      3  N   UNL     1       4.062   3.631  17.523  0.00  0.00    +0.000 N 
ATOM      4  H   UNL     1       4.489   2.728  17.349  0.00  0.00    +0.000 HD
ENDROOT
BRANCH   3   5
ATOM      5  C   UNL     1       4.932   4.743  17.516  0.00  0.00    +0.000 A 
ATOM      6  C   UNL     1       4.806   5.810  16.623  0.00  0.00    +0.000 A 
ATOM      7  C   UNL     1       5.718   6.870  16.650  0.00  0.00    +0.000 A 
ATOM      8  C   UNL     1       6.768   6.874  17.568  0.00  0.00    +0.000 A 
ATOM      9 CL   UNL     1       7.877   8.197  17.520  0.00  0.00    +0.000 Cl
ATOM     10  C   UNL     1       6.886   5.823  18.482  0.00  0.00    +0.000 A 
ATOM     11 CL   UNL     1       8.158   5.753  19.650  0.00  0.00    +0.000 Cl
ATOM     12  C   UNL     1       5.962   4.769  18.463  0.00  0.00    +0.000 A 
ENDBRANCH   3   5
BRANCH   2  13
ATOM     13  C   UNL     1       2.053   2.298  17.656  0.00  0.00    +0.000 C 
BRANCH  13  14
ATOM     14  C   UNL     1       1.048   2.239  18.799  0.00  0.00    +0.000 C 
BRANCH  14  15
ATOM     15  N   UNL     1       1.662   2.504  20.076  0.00  0.00    +0.000 N 
ATOM     16  C   UNL     1       2.829   2.024  20.575  0.00  0.00    +0.000 A 
ATOM     17  N   UNL     1       2.986   2.502  21.788  0.00  0.00    +0.000 NA
ATOM     18  N   UNL     1       1.890   3.298  22.024  0.00  0.00    +0.000 NA
ATOM     19  N   UNL     1       1.077   3.309  20.976  0.00  0.00    +0.000 NA
ENDBRANCH  14  15
ENDBRANCH  13  14
ENDBRANCH   2  13
TORSDOF 4
ENDMDL
MODEL 8
REMARK VINA RESULT:      -6.5      3.605      4.862
REMARK  Name = 
REMARK  4 active torsions:
REMARK  status: ('A' for Active; 'I' for Inactive)
REMARK    1  A    between atoms: C_2  and  C_3
REMARK    2  A    between atoms: C_3  and  C_4
REMARK    3  A    between atoms: C_4  and  N_5
REMARK    4  A    between atoms: N_10  and  C_11
REMARK                            x       y       z     vdW  Elec       q    Type
REMARK                         _______ _______ _______ _____ _____    ______ ____
ROOT
ATOM      1  O   UNL     1       1.584   4.531  18.729  0.00  0.00    +0.000 OA
ATOM      2  C   UNL     1       2.741   4.895  18.553  0.00  0.00    +0.000 C 
ATOM      3  N   UNL     1       3.200   6.202  18.556  0.00  0.00    +0.000 N 
ATOM      4  H   UNL     1       4.146   6.359  18.228  0.00  0.00    +0.000 HD
ENDROOT
BRANCH   3   5
ATOM      5  C   UNL     1       2.427   7.357  18.807  0.00  0.00    +0.000 A 
ATOM      6  C   UNL     1       2.083   8.280  17.818  0.00  0.00    +0.000 A 
ATOM      7  C   UNL     1       1.337   9.420  18.139  0.00  0.00    +0.000 A 
ATOM      8  C   UNL     1       0.931   9.650  19.453  0.00  0.00    +0.000 A 
ATOM      9 CL   UNL     1       0.045  11.095  19.782  0.00  0.00    +0.000 Cl
ATOM     10  C   UNL     1       1.250   8.717  20.444  0.00  0.00    +0.000 A 
ATOM     11 CL   UNL     1       0.783   8.929  22.095  0.00  0.00    +0.000 Cl
ATOM     12  C   UNL     1       1.983   7.569  20.118  0.00  0.00    +0.000 A 
ENDBRANCH   3   5
BRANCH   2  13
ATOM     13  C   UNL     1       3.846   3.886  18.331  0.00  0.00    +0.000 C 
BRANCH  13  14
ATOM     14  C   UNL     1       4.280   3.890  16.870  0.00  0.00    +0.000 C 
BRANCH  14  15
ATOM     15  N   UNL     1       5.671   4.233  16.718  0.00  0.00    +0.000 N 
ATOM     16  C   UNL     1       6.590   4.506  17.678  0.00  0.00    +0.000 A 
ATOM     17  N   UNL     1       7.726   4.799  17.089  0.00  0.00    +0.000 NA
ATOM     18  N   UNL     1       7.491   4.691  15.739  0.00  0.00    +0.000 NA
ATOM     19  N   UNL     1       6.233   4.337  15.504  0.00  0.00    +0.000 NA
ENDBRANCH  14  15
ENDBRANCH  13  14
ENDBRANCH   2  13
TORSDOF 4
ENDMDL
MODEL 9
REMARK VINA RESULT:      -6.4      3.424      4.813
REMARK  Name = 
REMARK  4 active torsions:
REMARK  status: ('A' for Active; 'I' for Inactive)
REMARK    1  A    between atoms: C_2  and  C_3
REMARK    2  A    between atoms: C_3  and  C_4
REMARK    3  A    between atoms: C_4  and  N_5
REMARK    4  A    between atoms: N_10  and  C_11
REMARK                            x       y       z     vdW  Elec       q    Type
REMARK                         _______ _______ _______ _____ _____    ______ ____
ROOT
ATOM      1  O   UNL     1       1.358   4.064  18.851  0.00  0.00    +0.000 OA
ATOM      2  C   UNL     1       2.549   4.350  18.796  0.00  0.00    +0.000 C 
ATOM      3  N   UNL     1       3.110   5.585  19.074  0.00  0.00    +0.000 N 
ATOM      4  H   UNL     1       4.082   5.717  18.821  0.00  0.00    +0.000 HD
ENDROOT
BRANCH   3   5
ATOM      5  C   UNL     1       2.420   6.734  19.517  0.00  0.00    +0.000 A 
ATOM      6  C   UNL     1       1.870   6.855  20.794  0.00  0.00    +0.000 A 
ATOM      7  C   UNL     1       1.173   8.012  21.162  0.00  0.00    +0.000 A 
ATOM      8  C   UNL     1       1.016   9.059  20.254  0.00  0.00    +0.000 A 
ATOM      9 CL   UNL     1       0.114  10.440  20.763  0.00  0.00    +0.000 Cl
ATOM     10  C   UNL     1       1.586   8.956  18.982  0.00  0.00    +0.000 A 
ATOM     11 CL   UNL     1       1.436  10.208  17.800  0.00  0.00    +0.000 Cl
ATOM     12  C   UNL     1       2.296   7.803  18.621  0.00  0.00    +0.000 A 
ENDBRANCH   3   5
BRANCH   2  13
ATOM     13  C   UNL     1       3.580   3.308  18.423  0.00  0.00    +0.000 C 
BRANCH  13  14
ATOM     14  C   UNL     1       4.271   3.689  17.120  0.00  0.00    +0.000 C 
BRANCH  14  15
ATOM     15  N   UNL     1       5.638   4.095  17.328  0.00  0.00    +0.000 N 
ATOM     16  C   UNL     1       6.592   4.372  16.405  0.00  0.00    +0.000 A 
ATOM     17  N   UNL     1       7.703   4.671  17.038  0.00  0.00    +0.000 NA
ATOM     18  N   UNL     1       7.409   4.584  18.378  0.00  0.00    +0.000 NA
ATOM     19  N   UNL     1       6.141   4.237  18.564  0.00  0.00    +0.000 NA
ENDBRANCH  14  15
ENDBRANCH  13  14
ENDBRANCH   2  13
TORSDOF 4
ENDMDL
