MODEL 1
REMARK VINA RESULT:      -6.1      0.000      0.000
REMARK  Name = 
REMARK  7 active torsions:
REMARK  status: ('A' for Active; 'I' for Inactive)
REMARK    1  A    between atoms: C_1  and  C_2
REMARK    2  A    between atoms: N_6  and  C_7
REMARK    3  A    between atoms: C_7  and  C_8
REMARK    4  A    between atoms: C_8  and  O_9
REMARK    5  A    between atoms: C_8  and  C_10
REMARK    6  A    between atoms: C_10  and  O_11
REMARK    7  A    between atoms: O_11  and  C_12
REMARK                            x       y       z     vdW  Elec       q    Type
REMARK                         _______ _______ _______ _____ _____    ______ ____
ROOT
ATOM      1  C   UNL     1       7.210   5.197  18.799  0.00  0.00    +0.000 C 
ENDROOT
BRANCH   1   2
ATOM      2  O   UNL     1       8.083   5.677  19.832  0.00  0.00    +0.000 OA
ATOM      3  H   UNL     1       7.721   5.423  20.697  0.00  0.00    +0.000 HD
ENDBRANCH   1   2
BRANCH   1   4
ATOM      4  C   UNL     1       7.306   6.123  17.580  0.00  0.00    +0.000 C 
BRANCH   4  10
ATOM      5  C   UNL     1       4.656   6.979  16.159  0.00  0.00    +0.000 C 
ATOM      6  C   UNL     1       5.559   5.876  15.744  0.00  0.00    +0.000 A 
ATOM      7  N   UNL     1       5.340   5.076  14.719  0.00  0.00    +0.000 NA
ATOM      8  C   UNL     1       6.404   4.217  14.674  0.00  0.00    +0.000 A 
ATOM      9  C   UNL     1       7.277   4.479  15.697  0.00  0.00    +0.000 A 
ATOM     10  N   UNL     1       6.737   5.538  16.376  0.00  0.00    +0.000 N 
ENDBRANCH   4  10
ENDBRANCH   1   4
BRANCH   1  11
ATOM     11  C   UNL     1       5.767   5.120  19.338  0.00  0.00    +0.000 C 
BRANCH  11  12
ATOM     12  O   UNL     1       5.398   3.740  19.403  0.00  0.00    +0.000 OA
BRANCH  12  13
ATOM     13  C   UNL     1       4.091   3.420  19.166  0.00  0.00    +0.000 A 
ATOM     14  C   UNL     1       3.593   3.869  17.941  0.00  0.00    +0.000 A 
ATOM     15  C   UNL     1       2.273   3.605  17.568  0.00  0.00    +0.000 A 
ATOM     16  C   UNL     1       1.449   2.871  18.416  0.00  0.00    +0.000 A 
ATOM     17  C   UNL     1       1.948   2.397  19.629  0.00  0.00    +0.000 A 
ATOM     18  C   UNL     1       3.267   2.671  20.006  0.00  0.00    +0.000 A 
ENDBRANCH  12  13
ENDBRANCH  11  12
ENDBRANCH   1  11
TORSDOF 6
ENDMDL
MODEL 2
REMARK VINA RESULT:      -6.1      0.739      1.078
REMARK  Name = 
REMARK  7 active torsions:
REMARK  status: ('A' for Active; 'I' for Inactive)
REMARK    1  A    between atoms: C_1  and  C_2
REMARK    2  A    between atoms: N_6  and  C_7
REMARK    3  A    between atoms: C_7  and  C_8
REMARK    4  A    between atoms: C_8  and  O_9
REMARK    5  A    between atoms: C_8  and  C_10
REMARK    6  A    between atoms: C_10  and  O_11
REMARK    7  A    between atoms: O_11  and  C_12
REMARK                            x       y       z     vdW  Elec       q    Type
REMARK                         _______ _______ _______ _____ _____    ______ ____
ROOT
ATOM      1  C   UNL     1       6.964   5.122  19.070  0.00  0.00    +0.000 C 
ENDROOT
BRANCH   1   2
ATOM      2  O   UNL     1       7.696   5.599  20.209  0.00  0.00    +0.000 OA
ATOM      3  H   UNL     1       8.614   5.290  20.149  0.00  0.00    +0.000 HD
ENDBRANCH   1   2
BRANCH   1   4
ATOM      4  C   UNL     1       7.213   6.053  17.878  0.00  0.00    +0.000 C 
BRANCH   4  10
ATOM      5  C   UNL     1       4.649   6.961  16.337  0.00  0.00    +0.000 C 
ATOM      6  C   UNL     1       5.575   5.874  15.935  0.00  0.00    +0.000 A 
ATOM      7  N   UNL     1       5.417   5.112  14.871  0.00  0.00    +0.000 NA
ATOM      8  C   UNL     1       6.483   4.254  14.856  0.00  0.00    +0.000 A 
ATOM      9  C   UNL     1       7.296   4.478  15.938  0.00  0.00    +0.000 A 
ATOM     10  N   UNL     1       6.716   5.512  16.621  0.00  0.00    +0.000 N 
ENDBRANCH   4  10
ENDBRANCH   1   4
BRANCH   1  11
ATOM     11  C   UNL     1       5.463   5.040  19.420  0.00  0.00    +0.000 C 
BRANCH  11  12
ATOM     12  O   UNL     1       5.092   3.659  19.432  0.00  0.00    +0.000 OA
BRANCH  12  13
ATOM     13  C   UNL     1       3.765   3.357  19.322  0.00  0.00    +0.000 A 
ATOM     14  C   UNL     1       2.937   4.020  20.232  0.00  0.00    +0.000 A 
ATOM     15  C   UNL     1       1.557   3.809  20.226  0.00  0.00    +0.000 A 
ATOM     16  C   UNL     1       0.994   2.945  19.291  0.00  0.00    +0.000 A 
ATOM     17  C   UNL     1       1.811   2.301  18.361  0.00  0.00    +0.000 A 
ATOM     18  C   UNL     1       3.195   2.504  18.376  0.00  0.00    +0.000 A 
ENDBRANCH  12  13
ENDBRANCH  11  12
ENDBRANCH   1  11
TORSDOF 6
ENDMDL
MODEL 3
REMARK VINA RESULT:      -6.1      2.900      6.041
REMARK  Name = 
REMARK  7 active torsions:
REMARK  status: ('A' for Active; 'I' for Inactive)
REMARK    1  A    between atoms: C_1  and  C_2
REMARK    2  A    between atoms: N_6  and  C_7
REMARK    3  A    between atoms: C_7  and  C_8
REMARK    4  A    between atoms: C_8  and  O_9
REMARK    5  A    between atoms: C_8  and  C_10
REMARK    6  A    between atoms: C_10  and  O_11
REMARK    7  A    between atoms: O_11  and  C_12
REMARK                            x       y       z     vdW  Elec       q    Type
REMARK                         _______ _______ _______ _____ _____    ______ ____
ROOT
ATOM      1  C   UNL     1       2.507   3.479  17.334  0.00  0.00    +0.000 C 
ENDROOT
BRANCH   1   2
ATOM      2  O   UNL     1       1.739   4.561  17.883  0.00  0.00    +0.000 OA
ATOM      3  H   UNL     1       1.095   4.204  18.515  0.00  0.00    +0.000 HD
ENDBRANCH   1   2
BRANCH   1   4
ATOM      4  C   UNL     1       2.307   2.225  18.193  0.00  0.00    +0.000 C 
BRANCH   4  10
ATOM      5  C   UNL     1       4.642   2.083  20.268  0.00  0.00    +0.000 C 
ATOM      6  C   UNL     1       3.230   2.438  20.558  0.00  0.00    +0.000 A 
ATOM      7  N   UNL     1       2.760   2.714  21.758  0.00  0.00    +0.000 NA
ATOM      8  C   UNL     1       1.432   2.998  21.589  0.00  0.00    +0.000 A 
ATOM      9  C   UNL     1       1.077   2.874  20.271  0.00  0.00    +0.000 A 
ATOM     10  N   UNL     1       2.225   2.519  19.616  0.00  0.00    +0.000 N 
ENDBRANCH   4  10
ENDBRANCH   1   4
BRANCH   1  11
ATOM     11  C   UNL     1       3.993   3.886  17.263  0.00  0.00    +0.000 C 
BRANCH  11  12
ATOM     12  O   UNL     1       4.124   5.173  17.872  0.00  0.00    +0.000 OA
BRANCH  12  13
ATOM     13  C   UNL     1       5.386   5.643  18.098  0.00  0.00    +0.000 A 
ATOM     14  C   UNL     1       5.784   6.680  17.250  0.00  0.00    +0.000 A 
ATOM     15  C   UNL     1       7.048   7.259  17.375  0.00  0.00    +0.000 A 
ATOM     16  C   UNL     1       7.916   6.814  18.368  0.00  0.00    +0.000 A 
ATOM     17  C   UNL     1       7.516   5.797  19.236  0.00  0.00    +0.000 A 
ATOM     18  C   UNL     1       6.253   5.211  19.102  0.00  0.00    +0.000 A 
ENDBRANCH  12  13
ENDBRANCH  11  12
ENDBRANCH   1  11
TORSDOF 6
ENDMDL
MODEL 4
REMARK VINA RESULT:      -6.0      1.812      2.880
REMARK  Name = 
REMARK  7 active torsions:
REMARK  status: ('A' for Active; 'I' for Inactive)
REMARK    1  A    between atoms: C_1  and  C_2
REMARK    2  A    between atoms: N_6  and  C_7
REMARK    3  A    between atoms: C_7  and  C_8
REMARK    4  A    between atoms: C_8  and  O_9
REMARK    5  A    between atoms: C_8  and  C_10
REMARK    6  A    between atoms: C_10  and  O_11
REMARK    7  A    between atoms: O_11  and  C_12
REMARK                            x       y       z     vdW  Elec       q    Type
REMARK                         _______ _______ _______ _____ _____    ______ ____
ROOT
ATOM      1  C   UNL     1       3.744   5.968  17.936  0.00  0.00    +0.000 C 
ENDROOT
BRANCH   1   2
ATOM      2  O   UNL     1       2.657   6.904  17.987  0.00  0.00    +0.000 OA
ATOM      3  H   UNL     1       1.824   6.418  18.100  0.00  0.00    +0.000 HD
ENDBRANCH   1   2
BRANCH   1   4
ATOM      4  C   UNL     1       4.915   6.587  17.164  0.00  0.00    +0.000 C 
BRANCH   4  10
ATOM      5  C   UNL     1       6.212   5.045  14.773  0.00  0.00    +0.000 C 
ATOM      6  C   UNL     1       6.697   5.059  16.176  0.00  0.00    +0.000 A 
ATOM      7  N   UNL     1       7.741   4.383  16.613  0.00  0.00    +0.000 NA
ATOM      8  C   UNL     1       7.853   4.677  17.945  0.00  0.00    +0.000 A 
ATOM      9  C   UNL     1       6.853   5.528  18.336  0.00  0.00    +0.000 A 
ATOM     10  N   UNL     1       6.119   5.771  17.206  0.00  0.00    +0.000 N 
ENDBRANCH   4  10
ENDBRANCH   1   4
BRANCH   1  11
ATOM     11  C   UNL     1       3.264   4.657  17.279  0.00  0.00    +0.000 C 
BRANCH  11  12
ATOM     12  O   UNL     1       3.695   3.571  18.104  0.00  0.00    +0.000 OA
BRANCH  12  13
ATOM     13  C   UNL     1       2.978   3.310  19.236  0.00  0.00    +0.000 A 
ATOM     14  C   UNL     1       1.595   3.453  19.098  0.00  0.00    +0.000 A 
ATOM     15  C   UNL     1       0.741   3.211  20.175  0.00  0.00    +0.000 A 
ATOM     16  C   UNL     1       1.269   2.803  21.397  0.00  0.00    +0.000 A 
ATOM     17  C   UNL     1       2.647   2.631  21.535  0.00  0.00    +0.000 A 
ATOM     18  C   UNL     1       3.502   2.885  20.457  0.00  0.00    +0.000 A 
ENDBRANCH  12  13
ENDBRANCH  11  12
ENDBRANCH   1  11
TORSDOF 6
ENDMDL
MODEL 5
REMARK VINA RESULT:      -6.0      2.202      2.941
REMARK  Name = 
REMARK  7 active torsions:
REMARK  status: ('A' for Active; 'I' for Inactive)
REMARK    1  A    between atoms: C_1  and  C_2
REMARK    2  A    between atoms: N_6  and  C_7
REMARK    3  A    between atoms: C_7  and  C_8
REMARK    4  A    between atoms: C_8  and  O_9
REMARK    5  A    between atoms: C_8  and  C_10
REMARK    6  A    between atoms: C_10  and  O_11
REMARK    7  A    between atoms: O_11  and  C_12
REMARK                            x       y       z     vdW  Elec       q    Type
REMARK                         _______ _______ _______ _____ _____    ______ ____
ROOT
ATOM      1  C   UNL     1       4.103   6.779  17.591  0.00  0.00    +0.000 C 
ENDROOT
BRANCH   1   2
ATOM      2  O   UNL     1       3.078   7.777  17.703  0.00  0.00    +0.000 OA
ATOM      3  H   UNL     1       3.155   8.396  16.959  0.00  0.00    +0.000 HD
ENDBRANCH   1   2
BRANCH   1   4
ATOM      4  C   UNL     1       4.917   7.024  16.315  0.00  0.00    +0.000 C 
BRANCH   4  10
ATOM      5  C   UNL     1       7.513   6.371  17.932  0.00  0.00    +0.000 C 
ATOM      6  C   UNL     1       7.036   5.668  16.715  0.00  0.00    +0.000 A 
ATOM      7  N   UNL     1       7.674   4.676  16.126  0.00  0.00    +0.000 NA
ATOM      8  C   UNL     1       6.901   4.307  15.059  0.00  0.00    +0.000 A 
ATOM      9  C   UNL     1       5.783   5.097  14.979  0.00  0.00    +0.000 A 
ATOM     10  N   UNL     1       5.871   5.961  16.037  0.00  0.00    +0.000 N 
ENDBRANCH   4  10
ENDBRANCH   1   4
BRANCH   1  11
ATOM     11  C   UNL     1       3.459   5.377  17.590  0.00  0.00    +0.000 C 
BRANCH  11  12
ATOM     12  O   UNL     1       2.197   5.475  18.256  0.00  0.00    +0.000 OA
BRANCH  12  13
ATOM     13  C   UNL     1       1.966   4.632  19.306  0.00  0.00    +0.000 A 
ATOM     14  C   UNL     1       1.216   3.497  18.990  0.00  0.00    +0.000 A 
ATOM     15  C   UNL     1       0.911   2.548  19.968  0.00  0.00    +0.000 A 
ATOM     16  C   UNL     1       1.377   2.722  21.268  0.00  0.00    +0.000 A 
ATOM     17  C   UNL     1       2.150   3.839  21.585  0.00  0.00    +0.000 A 
ATOM     18  C   UNL     1       2.445   4.795  20.607  0.00  0.00    +0.000 A 
ENDBRANCH  12  13
ENDBRANCH  11  12
ENDBRANCH   1  11
TORSDOF 6
ENDMDL
MODEL 6
REMARK VINA RESULT:      -6.0      2.129      3.003
REMARK  Name = 
REMARK  7 active torsions:
REMARK  status: ('A' for Active; 'I' for Inactive)
REMARK    1  A    between atoms: C_1  and  C_2
REMARK    2  A    between atoms: N_6  and  C_7
REMARK    3  A    between atoms: C_7  and  C_8
REMARK    4  A    between atoms: C_8  and  O_9
REMARK    5  A    between atoms: C_8  and  C_10
REMARK    6  A    between atoms: C_10  and  O_11
REMARK    7  A    between atoms: O_11  and  C_12
REMARK                            x       y       z     vdW  Elec       q    Type
REMARK                         _______ _______ _______ _____ _____    ______ ____
ROOT
ATOM      1  C   UNL     1       4.248   6.132  17.612  0.00  0.00    +0.000 C 
ENDROOT
BRANCH   1   2
ATOM      2  O   UNL     1       4.601   7.091  16.604  0.00  0.00    +0.000 OA
ATOM      3  H   UNL     1       4.455   6.699  15.728  0.00  0.00    +0.000 HD
ENDBRANCH   1   2
BRANCH   1   4
ATOM      4  C   UNL     1       4.518   4.717  17.087  0.00  0.00    +0.000 C 
BRANCH   4  10
ATOM      5  C   UNL     1       7.552   4.773  17.842  0.00  0.00    +0.000 C 
ATOM      6  C   UNL     1       6.989   4.709  16.470  0.00  0.00    +0.000 A 
ATOM      7  N   UNL     1       7.710   4.699  15.366  0.00  0.00    +0.000 NA
ATOM      8  C   UNL     1       6.818   4.622  14.331  0.00  0.00    +0.000 A 
ATOM      9  C   UNL     1       5.532   4.605  14.804  0.00  0.00    +0.000 A 
ATOM     10  N   UNL     1       5.644   4.658  16.167  0.00  0.00    +0.000 N 
ENDBRANCH   4  10
ENDBRANCH   1   4
BRANCH   1  11
ATOM     11  C   UNL     1       2.767   6.317  18.004  0.00  0.00    +0.000 C 
BRANCH  11  12
ATOM     12  O   UNL     1       2.657   6.101  19.413  0.00  0.00    +0.000 OA
BRANCH  12  13
ATOM     13  C   UNL     1       2.172   4.896  19.835  0.00  0.00    +0.000 A 
ATOM     14  C   UNL     1       2.476   4.576  21.161  0.00  0.00    +0.000 A 
ATOM     15  C   UNL     1       2.037   3.376  21.723  0.00  0.00    +0.000 A 
ATOM     16  C   UNL     1       1.270   2.497  20.965  0.00  0.00    +0.000 A 
ATOM     17  C   UNL     1       0.939   2.822  19.649  0.00  0.00    +0.000 A 
ATOM     18  C   UNL     1       1.390   4.020  19.083  0.00  0.00    +0.000 A 
ENDBRANCH  12  13
ENDBRANCH  11  12
ENDBRANCH   1  11
TORSDOF 6
ENDMDL
MODEL 7
REMARK VINA RESULT:      -6.0      2.489      5.390
REMARK  Name = 
REMARK  7 active torsions:
REMARK  status: ('A' for Active; 'I' for Inactive)
REMARK    1  A    between atoms: C_1  and  C_2
REMARK    2  A    between atoms: N_6  and  C_7
REMARK    3  A    between atoms: C_7  and  C_8
REMARK    4  A    between atoms: C_8  and  O_9
REMARK    5  A    between atoms: C_8  and  C_10
REMARK    6  A    between atoms: C_10  and  O_11
REMARK    7  A    between atoms: O_11  and  C_12
REMARK                            x       y       z     vdW  Elec       q    Type
REMARK                         _______ _______ _______ _____ _____    ______ ____
ROOT
ATOM      1  C   UNL     1       6.669   5.028  17.727  0.00  0.00    +0.000 C 
ENDROOT
BRANCH   1   2
ATOM      2  O   UNL     1       7.924   4.351  17.562  0.00  0.00    +0.000 OA
ATOM      3  H   UNL     1       8.641   4.935  17.859  0.00  0.00    +0.000 HD
ENDBRANCH   1   2
BRANCH   1   4
ATOM      4  C   UNL     1       5.595   4.015  18.142  0.00  0.00    +0.000 C 
BRANCH   4  10
ATOM      5  C   UNL     1       2.721   3.337  17.113  0.00  0.00    +0.000 C 
ATOM      6  C   UNL     1       3.075   4.386  18.102  0.00  0.00    +0.000 A 
ATOM      7  N   UNL     1       2.210   5.207  18.663  0.00  0.00    +0.000 NA
ATOM      8  C   UNL     1       2.934   5.999  19.512  0.00  0.00    +0.000 A 
ATOM      9  C   UNL     1       4.264   5.675  19.455  0.00  0.00    +0.000 A 
ATOM     10  N   UNL     1       4.351   4.645  18.558  0.00  0.00    +0.000 N 
ENDBRANCH   4  10
ENDBRANCH   1   4
BRANCH   1  11
ATOM     11  C   UNL     1       6.293   5.745  16.414  0.00  0.00    +0.000 C 
BRANCH  11  12
ATOM     12  O   UNL     1       7.365   5.551  15.488  0.00  0.00    +0.000 OA
BRANCH  12  13
ATOM     13  C   UNL     1       7.076   4.939  14.301  0.00  0.00    +0.000 A 
ATOM     14  C   UNL     1       5.947   4.117  14.328  0.00  0.00    +0.000 A 
ATOM     15  C   UNL     1       5.534   3.435  13.182  0.00  0.00    +0.000 A 
ATOM     16  C   UNL     1       6.241   3.591  11.993  0.00  0.00    +0.000 A 
ATOM     17  C   UNL     1       7.354   4.432  11.952  0.00  0.00    +0.000 A 
ATOM     18  C   UNL     1       7.773   5.106  13.104  0.00  0.00    +0.000 A 
ENDBRANCH  12  13
ENDBRANCH  11  12
ENDBRANCH   1  11
TORSDOF 6
ENDMDL
MODEL 8
REMARK VINA RESULT:      -5.9      2.856      3.970
REMARK  Name = 
REMARK  7 active torsions:
REMARK  status: ('A' for Active; 'I' for Inactive)
REMARK    1  A    between atoms: C_1  and  C_2
REMARK    2  A    between atoms: N_6  and  C_7
REMARK    3  A    between atoms: C_7  and  C_8
REMARK    4  A    between atoms: C_8  and  O_9
REMARK    5  A    between atoms: C_8  and  C_10
REMARK    6  A    between atoms: C_10  and  O_11
REMARK    7  A    between atoms: O_11  and  C_12
REMARK                            x       y       z     vdW  Elec       q    Type
REMARK                         _______ _______ _______ _____ _____    ______ ____
ROOT
ATOM      1  C   UNL     1       4.403   4.030  18.532  0.00  0.00    +0.000 C 
ENDROOT
BRANCH   1   2
ATOM      2  O   UNL     1       4.520   3.073  19.595  0.00  0.00    +0.000 OA
ATOM      3  H   UNL     1       4.517   2.178  19.218  0.00  0.00    +0.000 HD
ENDBRANCH   1   2
BRANCH   1   4
ATOM      4  C   UNL     1       5.612   4.973  18.559  0.00  0.00    +0.000 C 
BRANCH   4  10
ATOM      5  C   UNL     1       7.537   7.249  17.615  0.00  0.00    +0.000 C 
ATOM      6  C   UNL     1       7.126   6.062  16.824  0.00  0.00    +0.000 A 
ATOM      7  N   UNL     1       7.502   5.823  15.584  0.00  0.00    +0.000 NA
ATOM      8  C   UNL     1       6.922   4.635  15.232  0.00  0.00    +0.000 A 
ATOM      9  C   UNL     1       6.161   4.148  16.264  0.00  0.00    +0.000 A 
ATOM     10  N   UNL     1       6.296   5.058  17.277  0.00  0.00    +0.000 N 
ENDBRANCH   4  10
ENDBRANCH   1   4
BRANCH   1  11
ATOM     11  C   UNL     1       3.078   4.806  18.680  0.00  0.00    +0.000 C 
BRANCH  11  12
ATOM     12  O   UNL     1       3.234   6.067  18.025  0.00  0.00    +0.000 OA
BRANCH  12  13
ATOM     13  C   UNL     1       2.543   7.133  18.527  0.00  0.00    +0.000 A 
ATOM     14  C   UNL     1       2.227   7.038  19.885  0.00  0.00    +0.000 A 
ATOM     15  C   UNL     1       1.528   8.061  20.528  0.00  0.00    +0.000 A 
ATOM     16  C   UNL     1       1.157   9.198  19.816  0.00  0.00    +0.000 A 
ATOM     17  C   UNL     1       1.492   9.312  18.467  0.00  0.00    +0.000 A 
ATOM     18  C   UNL     1       2.184   8.281  17.821  0.00  0.00    +0.000 A 
ENDBRANCH  12  13
ENDBRANCH  11  12
ENDBRANCH   1  11
TORSDOF 6
ENDMDL
MODEL 9
REMARK VINA RESULT:      -5.9      2.208      3.197
REMARK  Name = 
REMARK  7 active torsions:
REMARK  status: ('A' for Active; 'I' for Inactive)
REMARK    1  A    between atoms: C_1  and  C_2
REMARK    2  A    between atoms: N_6  and  C_7
REMARK    3  A    between atoms: C_7  and  C_8
REMARK    4  A    between atoms: C_8  and  O_9
REMARK    5  A    between atoms: C_8  and  C_10
REMARK    6  A    between atoms: C_10  and  O_11
REMARK    7  A    between atoms: O_11  and  C_12
REMARK                            x       y       z     vdW  Elec       q    Type
REMARK                         _______ _______ _______ _____ _____    ______ ____
ROOT
ATOM      1  C   UNL     1       3.905   6.365  17.894  0.00  0.00    +0.000 C 
ENDROOT
BRANCH   1   2
ATOM      2  O   UNL     1       4.316   7.401  16.989  0.00  0.00    +0.000 OA
ATOM      3  H   UNL     1       4.372   7.036  16.091  0.00  0.00    +0.000 HD
ENDBRANCH   1   2
BRANCH   1   4
ATOM      4  C   UNL     1       4.296   5.000  17.316  0.00  0.00    +0.000 C 
BRANCH   4  10
ATOM      5  C   UNL     1       5.911   4.658  14.660  0.00  0.00    +0.000 C 
ATOM      6  C   UNL     1       6.469   4.647  16.035  0.00  0.00    +0.000 A 
ATOM      7  N   UNL     1       7.741   4.455  16.324  0.00  0.00    +0.000 NA
ATOM      8  C   UNL     1       7.837   4.532  17.687  0.00  0.00    +0.000 A 
ATOM      9  C   UNL     1       6.604   4.753  18.244  0.00  0.00    +0.000 A 
ATOM     10  N   UNL     1       5.735   4.827  17.189  0.00  0.00    +0.000 N 
ENDBRANCH   4  10
ENDBRANCH   1   4
BRANCH   1  11
ATOM     11  C   UNL     1       2.384   6.463  18.133  0.00  0.00    +0.000 C 
BRANCH  11  12
ATOM     12  O   UNL     1       2.145   6.229  19.523  0.00  0.00    +0.000 OA
BRANCH  12  13
ATOM     13  C   UNL     1       1.884   4.947  19.916  0.00  0.00    +0.000 A 
ATOM     14  C   UNL     1       2.281   4.643  21.220  0.00  0.00    +0.000 A 
ATOM     15  C   UNL     1       2.068   3.370  21.752  0.00  0.00    +0.000 A 
ATOM     16  C   UNL     1       1.436   2.396  20.983  0.00  0.00    +0.000 A 
ATOM     17  C   UNL     1       1.013   2.701  19.689  0.00  0.00    +0.000 A 
ATOM     18  C   UNL     1       1.236   3.974  19.154  0.00  0.00    +0.000 A 
ENDBRANCH  12  13
ENDBRANCH  11  12
ENDBRANCH   1  11
TORSDOF 6
ENDMDL
