MODEL 1
REMARK VINA RESULT:      -8.6      0.000      0.000
REMARK  Name = 
REMARK  5 active torsions:
REMARK  status: ('A' for Active; 'I' for Inactive)
REMARK    1  A    between atoms: C_1  and  C_2
REMARK    2  A    between atoms: C_2  and  C_4
REMARK    3  A    between atoms: C_5  and  C_6
REMARK    4  A    between atoms: C_7  and  C_8
REMARK    5  A    between atoms: C_22  and  C_23
REMARK                            x       y       z     vdW  Elec       q    Type
REMARK                         _______ _______ _______ _____ _____    ______ ____
ROOT
ATOM      1  C   UNL     1       5.949   5.502  17.556  0.00  0.00    +0.000 A 
ATOM      2  C   UNL     1       6.976   6.279  17.012  0.00  0.00    +0.000 A 
ATOM      3  N   UNL     1       7.415   6.143  15.745  0.00  0.00    +0.000 NA
ATOM      4  C   UNL     1       6.870   5.215  14.962  0.00  0.00    +0.000 A 
ATOM      5  C   UNL     1       7.424   5.084  13.695  0.00  0.00    +0.000 A 
ATOM      6  C   UNL     1       6.961   4.150  12.775  0.00  0.00    +0.000 A 
ATOM      7  C   UNL     1       5.880   3.356  13.113  0.00  0.00    +0.000 A 
ATOM      8  C   UNL     1       5.290   3.500  14.372  0.00  0.00    +0.000 A 
ATOM      9  C   UNL     1       5.797   4.390  15.367  0.00  0.00    +0.000 A 
ATOM     10  C   UNL     1       5.319   4.522  16.731  0.00  0.00    +0.000 A 
ENDROOT
BRANCH  10  11
ATOM     11  C   UNL     1       4.196   3.656  17.232  0.00  0.00    +0.000 A 
ATOM     12  C   UNL     1       2.850   4.070  17.149  0.00  0.00    +0.000 A 
ATOM     13  C   UNL     1       1.807   3.324  17.711  0.00  0.00    +0.000 A 
ATOM     14  C   UNL     1       2.068   2.088  18.287  0.00  0.00    +0.000 A 
ATOM     15  C   UNL     1       3.374   1.613  18.318  0.00  0.00    +0.000 A 
ATOM     16  C   UNL     1       4.426   2.402  17.829  0.00  0.00    +0.000 A 
ENDBRANCH  10  11
BRANCH   1  18
ATOM     17  C   UNL     1       4.301   6.308  19.396  0.00  0.00    +0.000 C 
ATOM     18  C   UNL     1       5.616   5.675  19.002  0.00  0.00    +0.000 C 
ATOM     19  O   UNL     1       6.428   5.331  19.860  0.00  0.00    +0.000 OA
ENDBRANCH   1  18
BRANCH   2  20
ATOM     20  C   UNL     1       7.720   7.326  17.715  0.00  0.00    +0.000 C 
ATOM     21  C   UNL     1       7.663   8.623  17.377  0.00  0.00    +0.000 C 
BRANCH  21  22
ATOM     22  C   UNL     1       8.412   9.613  18.146  0.00  0.00    +0.000 A 
ATOM     23  C   UNL     1       8.969   9.271  19.391  0.00  0.00    +0.000 A 
ATOM     24  C   UNL     1       9.637  10.233  20.145  0.00  0.00    +0.000 A 
ATOM     25  C   UNL     1       9.756  11.531  19.659  0.00  0.00    +0.000 A 
ATOM     26  F   UNL     1      10.394  12.454  20.389  0.00  0.00    +0.000 F 
ATOM     27  C   UNL     1       9.215  11.886  18.428  0.00  0.00    +0.000 A 
ATOM     28  C   UNL     1       8.541  10.924  17.669  0.00  0.00    +0.000 A 
ENDBRANCH  21  22
ENDBRANCH   2  20
TORSDOF 4
ENDMDL
MODEL 2
REMARK VINA RESULT:      -8.3      0.116      1.292
REMARK  Name = 
REMARK  5 active torsions:
REMARK  status: ('A' for Active; 'I' for Inactive)
REMARK    1  A    between atoms: C_1  and  C_2
REMARK    2  A    between atoms: C_2  and  C_4
REMARK    3  A    between atoms: C_5  and  C_6
REMARK    4  A    between atoms: C_7  and  C_8
REMARK    5  A    between atoms: C_22  and  C_23
REMARK                            x       y       z     vdW  Elec       q    Type
REMARK                         _______ _______ _______ _____ _____    ______ ____
ROOT
ATOM      1  C   UNL     1       5.967   5.545  17.572  0.00  0.00    +0.000 A 
ATOM      2  C   UNL     1       6.993   6.318  17.019  0.00  0.00    +0.000 A 
ATOM      3  N   UNL     1       7.422   6.179  15.750  0.00  0.00    +0.000 NA
ATOM      4  C   UNL     1       6.869   5.250  14.972  0.00  0.00    +0.000 A 
ATOM      5  C   UNL     1       7.412   5.116  13.701  0.00  0.00    +0.000 A 
ATOM      6  C   UNL     1       6.939   4.181  12.787  0.00  0.00    +0.000 A 
ATOM      7  C   UNL     1       5.858   3.392  13.134  0.00  0.00    +0.000 A 
ATOM      8  C   UNL     1       5.278   3.540  14.397  0.00  0.00    +0.000 A 
ATOM      9  C   UNL     1       5.795   4.430  15.387  0.00  0.00    +0.000 A 
ATOM     10  C   UNL     1       5.329   4.566  16.754  0.00  0.00    +0.000 A 
ENDROOT
BRANCH  10  11
ATOM     11  C   UNL     1       4.206   3.704  17.265  0.00  0.00    +0.000 A 
ATOM     12  C   UNL     1       4.448   2.433  17.829  0.00  0.00    +0.000 A 
ATOM     13  C   UNL     1       3.407   1.577  18.205  0.00  0.00    +0.000 A 
ATOM     14  C   UNL     1       2.089   2.007  18.123  0.00  0.00    +0.000 A 
ATOM     15  C   UNL     1       1.818   3.283  17.643  0.00  0.00    +0.000 A 
ATOM     16  C   UNL     1       2.859   4.105  17.189  0.00  0.00    +0.000 A 
ENDBRANCH  10  11
BRANCH   1  18
ATOM     17  C   UNL     1       4.340   6.368  19.424  0.00  0.00    +0.000 C 
ATOM     18  C   UNL     1       5.647   5.722  19.020  0.00  0.00    +0.000 C 
ATOM     19  O   UNL     1       6.460   5.370  19.873  0.00  0.00    +0.000 OA
ENDBRANCH   1  18
BRANCH   2  20
ATOM     20  C   UNL     1       7.746   7.363  17.715  0.00  0.00    +0.000 C 
ATOM     21  C   UNL     1       7.657   8.666  17.404  0.00  0.00    +0.000 C 
BRANCH  21  22
ATOM     22  C   UNL     1       8.417   9.653  18.164  0.00  0.00    +0.000 A 
ATOM     23  C   UNL     1       8.692  10.917  17.611  0.00  0.00    +0.000 A 
ATOM     24  C   UNL     1       9.462  11.836  18.319  0.00  0.00    +0.000 A 
ATOM     25  C   UNL     1       9.954  11.502  19.576  0.00  0.00    +0.000 A 
ATOM     26  F   UNL     1      10.699  12.387  20.251  0.00  0.00    +0.000 F 
ATOM     27  C   UNL     1       9.690  10.259  20.141  0.00  0.00    +0.000 A 
ATOM     28  C   UNL     1       8.918   9.331  19.433  0.00  0.00    +0.000 A 
ENDBRANCH  21  22
ENDBRANCH   2  20
TORSDOF 4
ENDMDL
MODEL 3
REMARK VINA RESULT:      -8.0      4.798      7.327
REMARK  Name = 
REMARK  5 active torsions:
REMARK  status: ('A' for Active; 'I' for Inactive)
REMARK    1  A    between atoms: C_1  and  C_2
REMARK    2  A    between atoms: C_2  and  C_4
REMARK    3  A    between atoms: C_5  and  C_6
REMARK    4  A    between atoms: C_7  and  C_8
REMARK    5  A    between atoms: C_22  and  C_23
REMARK                            x       y       z     vdW  Elec       q    Type
REMARK                         _______ _______ _______ _____ _____    ______ ____
ROOT
ATOM      1  C   UNL     1       3.142   6.573  18.918  0.00  0.00    +0.000 A 
ATOM      2  C   UNL     1       2.227   6.739  19.962  0.00  0.00    +0.000 A 
ATOM      3  N   UNL     1       1.922   5.765  20.841  0.00  0.00    +0.000 NA
ATOM      4  C   UNL     1       2.495   4.570  20.715  0.00  0.00    +0.000 A 
ATOM      5  C   UNL     1       2.077   3.595  21.612  0.00  0.00    +0.000 A 
ATOM      6  C   UNL     1       2.584   2.301  21.591  0.00  0.00    +0.000 A 
ATOM      7  C   UNL     1       3.574   1.984  20.680  0.00  0.00    +0.000 A 
ATOM      8  C   UNL     1       4.031   2.964  19.793  0.00  0.00    +0.000 A 
ATOM      9  C   UNL     1       3.469   4.276  19.735  0.00  0.00    +0.000 A 
ATOM     10  C   UNL     1       3.801   5.315  18.778  0.00  0.00    +0.000 A 
ENDROOT
BRANCH  10  11
ATOM     11  C   UNL     1       4.812   5.057  17.693  0.00  0.00    +0.000 A 
ATOM     12  C   UNL     1       4.424   4.610  16.413  0.00  0.00    +0.000 A 
ATOM     13  C   UNL     1       5.360   4.260  15.432  0.00  0.00    +0.000 A 
ATOM     14  C   UNL     1       6.715   4.444  15.669  0.00  0.00    +0.000 A 
ATOM     15  C   UNL     1       7.130   4.955  16.893  0.00  0.00    +0.000 A 
ATOM     16  C   UNL     1       6.194   5.224  17.902  0.00  0.00    +0.000 A 
ENDBRANCH  10  11
BRANCH   1  18
ATOM     17  C   UNL     1       2.123   8.492  17.494  0.00  0.00    +0.000 C 
ATOM     18  C   UNL     1       3.324   7.693  17.947  0.00  0.00    +0.000 C 
ATOM     19  O   UNL     1       4.443   7.937  17.499  0.00  0.00    +0.000 OA
ENDBRANCH   1  18
BRANCH   2  20
ATOM     20  C   UNL     1       1.471   7.960  20.250  0.00  0.00    +0.000 C 
ATOM     21  C   UNL     1       0.798   8.158  21.393  0.00  0.00    +0.000 C 
BRANCH  21  22
ATOM     22  C   UNL     1       0.093   9.415  21.620  0.00  0.00    +0.000 A 
ATOM     23  C   UNL     1      -0.422   9.721  22.892  0.00  0.00    +0.000 A 
ATOM     24  C   UNL     1      -1.141  10.898  23.090  0.00  0.00    +0.000 A 
ATOM     25  C   UNL     1      -1.342  11.771  22.027  0.00  0.00    +0.000 A 
ATOM     26  F   UNL     1      -2.037  12.899  22.219  0.00  0.00    +0.000 F 
ATOM     27  C   UNL     1      -0.838  11.487  20.762  0.00  0.00    +0.000 A 
ATOM     28  C   UNL     1      -0.117  10.305  20.558  0.00  0.00    +0.000 A 
ENDBRANCH  21  22
ENDBRANCH   2  20
TORSDOF 4
ENDMDL
MODEL 4
REMARK VINA RESULT:      -7.9      4.705      7.284
REMARK  Name = 
REMARK  5 active torsions:
REMARK  status: ('A' for Active; 'I' for Inactive)
REMARK    1  A    between atoms: C_1  and  C_2
REMARK    2  A    between atoms: C_2  and  C_4
REMARK    3  A    between atoms: C_5  and  C_6
REMARK    4  A    between atoms: C_7  and  C_8
REMARK    5  A    between atoms: C_22  and  C_23
REMARK                            x       y       z     vdW  Elec       q    Type
REMARK                         _______ _______ _______ _____ _____    ______ ____
ROOT
ATOM      1  C   UNL     1       3.184   6.511  18.913  0.00  0.00    +0.000 A 
ATOM      2  C   UNL     1       2.271   6.700  19.955  0.00  0.00    +0.000 A 
ATOM      3  N   UNL     1       1.944   5.736  20.838  0.00  0.00    +0.000 NA
ATOM      4  C   UNL     1       2.492   4.529  20.717  0.00  0.00    +0.000 A 
ATOM      5  C   UNL     1       2.052   3.566  21.616  0.00  0.00    +0.000 A 
ATOM      6  C   UNL     1       2.532   2.261  21.601  0.00  0.00    +0.000 A 
ATOM      7  C   UNL     1       3.516   1.920  20.693  0.00  0.00    +0.000 A 
ATOM      8  C   UNL     1       3.994   2.887  19.803  0.00  0.00    +0.000 A 
ATOM      9  C   UNL     1       3.461   4.211  19.739  0.00  0.00    +0.000 A 
ATOM     10  C   UNL     1       3.816   5.239  18.779  0.00  0.00    +0.000 A 
ENDROOT
BRANCH  10  11
ATOM     11  C   UNL     1       4.823   4.955  17.696  0.00  0.00    +0.000 A 
ATOM     12  C   UNL     1       6.209   5.093  17.922  0.00  0.00    +0.000 A 
ATOM     13  C   UNL     1       7.148   4.941  16.895  0.00  0.00    +0.000 A 
ATOM     14  C   UNL     1       6.735   4.545  15.629  0.00  0.00    +0.000 A 
ATOM     15  C   UNL     1       5.383   4.326  15.391  0.00  0.00    +0.000 A 
ATOM     16  C   UNL     1       4.439   4.562  16.401  0.00  0.00    +0.000 A 
ENDBRANCH  10  11
BRANCH   1  18
ATOM     17  C   UNL     1       2.208   8.446  17.481  0.00  0.00    +0.000 C 
ATOM     18  C   UNL     1       3.391   7.623  17.938  0.00  0.00    +0.000 C 
ATOM     19  O   UNL     1       4.516   7.842  17.491  0.00  0.00    +0.000 OA
ENDBRANCH   1  18
BRANCH   2  20
ATOM     20  C   UNL     1       1.541   7.938  20.237  0.00  0.00    +0.000 C 
ATOM     21  C   UNL     1       0.963   8.199  21.420  0.00  0.00    +0.000 C 
BRANCH  21  22
ATOM     22  C   UNL     1       0.278   9.470  21.634  0.00  0.00    +0.000 A 
ATOM     23  C   UNL     1       0.369  10.497  20.677  0.00  0.00    +0.000 A 
ATOM     24  C   UNL     1      -0.243  11.725  20.911  0.00  0.00    +0.000 A 
ATOM     25  C   UNL     1      -0.949  11.931  22.091  0.00  0.00    +0.000 A 
ATOM     26  F   UNL     1      -1.532  13.116  22.315  0.00  0.00    +0.000 F 
ATOM     27  C   UNL     1      -1.053  10.928  23.047  0.00  0.00    +0.000 A 
ATOM     28  C   UNL     1      -0.438   9.692  22.818  0.00  0.00    +0.000 A 
ENDBRANCH  21  22
ENDBRANCH   2  20
TORSDOF 4
ENDMDL
MODEL 5
REMARK VINA RESULT:      -7.7      7.399      9.867
REMARK  Name = 
REMARK  5 active torsions:
REMARK  status: ('A' for Active; 'I' for Inactive)
REMARK    1  A    between atoms: C_1  and  C_2
REMARK    2  A    between atoms: C_2  and  C_4
REMARK    3  A    between atoms: C_5  and  C_6
REMARK    4  A    between atoms: C_7  and  C_8
REMARK    5  A    between atoms: C_22  and  C_23
REMARK                            x       y       z     vdW  Elec       q    Type
REMARK                         _______ _______ _______ _____ _____    ______ ____
ROOT
ATOM      1  C   UNL     1      -0.152  10.761  19.890  0.00  0.00    +0.000 A 
ATOM      2  C   UNL     1       0.238   9.836  18.916  0.00  0.00    +0.000 A 
ATOM      3  N   UNL     1      -0.472   9.597  17.796  0.00  0.00    +0.000 NA
ATOM      4  C   UNL     1      -1.616  10.249  17.598  0.00  0.00    +0.000 A 
ATOM      5  C   UNL     1      -2.330   9.897  16.459  0.00  0.00    +0.000 A 
ATOM      6  C   UNL     1      -3.544  10.490  16.131  0.00  0.00    +0.000 A 
ATOM      7  C   UNL     1      -4.036  11.500  16.938  0.00  0.00    +0.000 A 
ATOM      8  C   UNL     1      -3.312  11.889  18.069  0.00  0.00    +0.000 A 
ATOM      9  C   UNL     1      -2.107  11.241  18.477  0.00  0.00    +0.000 A 
ATOM     10  C   UNL     1      -1.354  11.503  19.690  0.00  0.00    +0.000 A 
ENDROOT
BRANCH  10  11
ATOM     11  C   UNL     1      -1.836  12.528  20.679  0.00  0.00    +0.000 A 
ATOM     12  C   UNL     1      -1.472  13.887  20.572  0.00  0.00    +0.000 A 
ATOM     13  C   UNL     1      -1.822  14.830  21.546  0.00  0.00    +0.000 A 
ATOM     14  C   UNL     1      -2.635  14.460  22.609  0.00  0.00    +0.000 A 
ATOM     15  C   UNL     1      -3.076  13.146  22.706  0.00  0.00    +0.000 A 
ATOM     16  C   UNL     1      -2.654  12.188  21.773  0.00  0.00    +0.000 A 
ENDBRANCH  10  11
BRANCH   1  18
ATOM     17  C   UNL     1       0.415   9.909  22.278  0.00  0.00    +0.000 C 
ATOM     18  C   UNL     1       0.665  10.867  21.136  0.00  0.00    +0.000 C 
ATOM     19  O   UNL     1       1.513  11.753  21.236  0.00  0.00    +0.000 OA
ENDBRANCH   1  18
BRANCH   2  20
ATOM     20  C   UNL     1       1.439   9.001  18.963  0.00  0.00    +0.000 C 
ATOM     21  C   UNL     1       1.695   8.027  18.075  0.00  0.00    +0.000 C 
BRANCH  21  22
ATOM     22  C   UNL     1       2.930   7.256  18.171  0.00  0.00    +0.000 A 
ATOM     23  C   UNL     1       3.962   7.450  17.235  0.00  0.00    +0.000 A 
ATOM     24  C   UNL     1       5.117   6.674  17.299  0.00  0.00    +0.000 A 
ATOM     25  C   UNL     1       5.248   5.712  18.294  0.00  0.00    +0.000 A 
ATOM     26  F   UNL     1       6.358   4.964  18.349  0.00  0.00    +0.000 F 
ATOM     27  C   UNL     1       4.240   5.508  19.230  0.00  0.00    +0.000 A 
ATOM     28  C   UNL     1       3.077   6.283  19.169  0.00  0.00    +0.000 A 
ENDBRANCH  21  22
ENDBRANCH   2  20
TORSDOF 4
ENDMDL
MODEL 6
REMARK VINA RESULT:      -7.6      7.295      9.770
REMARK  Name = 
REMARK  5 active torsions:
REMARK  status: ('A' for Active; 'I' for Inactive)
REMARK    1  A    between atoms: C_1  and  C_2
REMARK    2  A    between atoms: C_2  and  C_4
REMARK    3  A    between atoms: C_5  and  C_6
REMARK    4  A    between atoms: C_7  and  C_8
REMARK    5  A    between atoms: C_22  and  C_23
REMARK                            x       y       z     vdW  Elec       q    Type
REMARK                         _______ _______ _______ _____ _____    ______ ____
ROOT
ATOM      1  C   UNL     1      -0.003  10.706  19.884  0.00  0.00    +0.000 A 
ATOM      2  C   UNL     1       0.364   9.852  18.839  0.00  0.00    +0.000 A 
ATOM      3  N   UNL     1      -0.399   9.649  17.747  0.00  0.00    +0.000 NA
ATOM      4  C   UNL     1      -1.573  10.268  17.647  0.00  0.00    +0.000 A 
ATOM      5  C   UNL     1      -2.336   9.953  16.530  0.00  0.00    +0.000 A 
ATOM      6  C   UNL     1      -3.586  10.517  16.302  0.00  0.00    +0.000 A 
ATOM      7  C   UNL     1      -4.067  11.461  17.190  0.00  0.00    +0.000 A 
ATOM      8  C   UNL     1      -3.296  11.814  18.302  0.00  0.00    +0.000 A 
ATOM      9  C   UNL     1      -2.048  11.190  18.607  0.00  0.00    +0.000 A 
ATOM     10  C   UNL     1      -1.239  11.413  19.790  0.00  0.00    +0.000 A 
ENDROOT
BRANCH  10  11
ATOM     11  C   UNL     1      -1.701  12.363  20.861  0.00  0.00    +0.000 A 
ATOM     12  C   UNL     1      -2.338  11.904  22.033  0.00  0.00    +0.000 A 
ATOM     13  C   UNL     1      -2.871  12.783  22.983  0.00  0.00    +0.000 A 
ATOM     14  C   UNL     1      -2.693  14.152  22.839  0.00  0.00    +0.000 A 
ATOM     15  C   UNL     1      -2.002  14.638  21.735  0.00  0.00    +0.000 A 
ATOM     16  C   UNL     1      -1.544  13.757  20.744  0.00  0.00    +0.000 A 
ENDBRANCH  10  11
BRANCH   1  18
ATOM     17  C   UNL     1       0.803   9.683  22.132  0.00  0.00    +0.000 C 
ATOM     18  C   UNL     1       0.878  10.774  21.088  0.00  0.00    +0.000 C 
ATOM     19  O   UNL     1       1.634  11.732  21.238  0.00  0.00    +0.000 OA
ENDBRANCH   1  18
BRANCH   2  20
ATOM     20  C   UNL     1       1.594   9.061  18.774  0.00  0.00    +0.000 C 
ATOM     21  C   UNL     1       1.628   7.784  18.361  0.00  0.00    +0.000 C 
BRANCH  21  22
ATOM     22  C   UNL     1       2.899   7.070  18.296  0.00  0.00    +0.000 A 
ATOM     23  C   UNL     1       3.206   6.079  19.246  0.00  0.00    +0.000 A 
ATOM     24  C   UNL     1       4.442   5.437  19.210  0.00  0.00    +0.000 A 
ATOM     25  C   UNL     1       5.367   5.776  18.229  0.00  0.00    +0.000 A 
ATOM     26  F   UNL     1       6.556   5.160  18.202  0.00  0.00    +0.000 F 
ATOM     27  C   UNL     1       5.080   6.749  17.279  0.00  0.00    +0.000 A 
ATOM     28  C   UNL     1       3.841   7.399  17.312  0.00  0.00    +0.000 A 
ENDBRANCH  21  22
ENDBRANCH   2  20
TORSDOF 4
ENDMDL
MODEL 7
REMARK VINA RESULT:      -7.4      7.493     10.085
REMARK  Name = 
REMARK  5 active torsions:
REMARK  status: ('A' for Active; 'I' for Inactive)
REMARK    1  A    between atoms: C_1  and  C_2
REMARK    2  A    between atoms: C_2  and  C_4
REMARK    3  A    between atoms: C_5  and  C_6
REMARK    4  A    between atoms: C_7  and  C_8
REMARK    5  A    between atoms: C_22  and  C_23
REMARK                            x       y       z     vdW  Elec       q    Type
REMARK                         _______ _______ _______ _____ _____    ______ ____
ROOT
ATOM      1  C   UNL     1      -0.163  10.803  19.964  0.00  0.00    +0.000 A 
ATOM      2  C   UNL     1       0.076  10.040  18.817  0.00  0.00    +0.000 A 
ATOM      3  N   UNL     1      -0.801   9.939  17.799  0.00  0.00    +0.000 NA
ATOM      4  C   UNL     1      -1.969  10.573  17.880  0.00  0.00    +0.000 A 
ATOM      5  C   UNL     1      -2.852  10.363  16.828  0.00  0.00    +0.000 A 
ATOM      6  C   UNL     1      -4.109  10.955  16.784  0.00  0.00    +0.000 A 
ATOM      7  C   UNL     1      -4.477  11.822  17.796  0.00  0.00    +0.000 A 
ATOM      8  C   UNL     1      -3.586  12.071  18.845  0.00  0.00    +0.000 A 
ATOM      9  C   UNL     1      -2.324  11.412  18.960  0.00  0.00    +0.000 A 
ATOM     10  C   UNL     1      -1.390  11.524  20.065  0.00  0.00    +0.000 A 
ENDROOT
BRANCH  10  11
ATOM     11  C   UNL     1      -1.719  12.382  21.257  0.00  0.00    +0.000 A 
ATOM     12  C   UNL     1      -2.380  11.854  22.387  0.00  0.00    +0.000 A 
ATOM     13  C   UNL     1      -2.790  12.663  23.453  0.00  0.00    +0.000 A 
ATOM     14  C   UNL     1      -2.462  14.012  23.467  0.00  0.00    +0.000 A 
ATOM     15  C   UNL     1      -1.745  14.551  22.405  0.00  0.00    +0.000 A 
ATOM     16  C   UNL     1      -1.410  13.754  21.301  0.00  0.00    +0.000 A 
ENDBRANCH  10  11
BRANCH   1  18
ATOM     17  C   UNL     1       0.779   9.646  22.092  0.00  0.00    +0.000 C 
ATOM     18  C   UNL     1       0.841  10.758  21.069  0.00  0.00    +0.000 C 
ATOM     19  O   UNL     1       1.691  11.643  21.157  0.00  0.00    +0.000 OA
ENDBRANCH   1  18
BRANCH   2  20
ATOM     20  C   UNL     1       1.278   9.247  18.553  0.00  0.00    +0.000 C 
ATOM     21  C   UNL     1       1.481   8.023  19.063  0.00  0.00    +0.000 C 
BRANCH  21  22
ATOM     22  C   UNL     1       2.693   7.282  18.730  0.00  0.00    +0.000 A 
ATOM     23  C   UNL     1       3.434   7.613  17.580  0.00  0.00    +0.000 A 
ATOM     24  C   UNL     1       4.560   6.869  17.238  0.00  0.00    +0.000 A 
ATOM     25  C   UNL     1       4.953   5.803  18.039  0.00  0.00    +0.000 A 
ATOM     26  F   UNL     1       6.034   5.087  17.704  0.00  0.00    +0.000 F 
ATOM     27  C   UNL     1       4.237   5.464  19.181  0.00  0.00    +0.000 A 
ATOM     28  C   UNL     1       3.102   6.206  19.528  0.00  0.00    +0.000 A 
ENDBRANCH  21  22
ENDBRANCH   2  20
TORSDOF 4
ENDMDL
MODEL 8
REMARK VINA RESULT:      -7.4      4.229      6.795
REMARK  Name = 
REMARK  5 active torsions:
REMARK  status: ('A' for Active; 'I' for Inactive)
REMARK    1  A    between atoms: C_1  and  C_2
REMARK    2  A    between atoms: C_2  and  C_4
REMARK    3  A    between atoms: C_5  and  C_6
REMARK    4  A    between atoms: C_7  and  C_8
REMARK    5  A    between atoms: C_22  and  C_23
REMARK                            x       y       z     vdW  Elec       q    Type
REMARK                         _______ _______ _______ _____ _____    ______ ____
ROOT
ATOM      1  C   UNL     1       3.454   6.245  18.194  0.00  0.00    +0.000 A 
ATOM      2  C   UNL     1       2.475   6.352  19.186  0.00  0.00    +0.000 A 
ATOM      3  N   UNL     1       1.908   5.287  19.786  0.00  0.00    +0.000 NA
ATOM      4  C   UNL     1       2.271   4.060  19.414  0.00  0.00    +0.000 A 
ATOM      5  C   UNL     1       1.592   3.013  20.022  0.00  0.00    +0.000 A 
ATOM      6  C   UNL     1       1.861   1.681  19.725  0.00  0.00    +0.000 A 
ATOM      7  C   UNL     1       2.872   1.386  18.830  0.00  0.00    +0.000 A 
ATOM      8  C   UNL     1       3.589   2.429  18.235  0.00  0.00    +0.000 A 
ATOM      9  C   UNL     1       3.278   3.806  18.457  0.00  0.00    +0.000 A 
ATOM     10  C   UNL     1       3.891   4.945  17.800  0.00  0.00    +0.000 A 
ENDROOT
BRANCH  10  11
ATOM     11  C   UNL     1       4.952   4.741  16.752  0.00  0.00    +0.000 A 
ATOM     12  C   UNL     1       6.319   4.652  17.092  0.00  0.00    +0.000 A 
ATOM     13  C   UNL     1       7.323   4.574  16.120  0.00  0.00    +0.000 A 
ATOM     14  C   UNL     1       6.983   4.480  14.777  0.00  0.00    +0.000 A 
ATOM     15  C   UNL     1       5.642   4.487  14.410  0.00  0.00    +0.000 A 
ATOM     16  C   UNL     1       4.644   4.651  15.382  0.00  0.00    +0.000 A 
ENDBRANCH  10  11
BRANCH   1  18
ATOM     17  C   UNL     1       5.406   7.846  17.578  0.00  0.00    +0.000 C 
ATOM     18  C   UNL     1       3.936   7.495  17.533  0.00  0.00    +0.000 C 
ATOM     19  O   UNL     1       3.130   8.245  16.985  0.00  0.00    +0.000 OA
ENDBRANCH   1  18
BRANCH   2  20
ATOM     20  C   UNL     1       1.921   7.603  19.709  0.00  0.00    +0.000 C 
ATOM     21  C   UNL     1       1.197   7.674  20.836  0.00  0.00    +0.000 C 
BRANCH  21  22
ATOM     22  C   UNL     1       0.703   8.963  21.309  0.00  0.00    +0.000 A 
ATOM     23  C   UNL     1       0.011   9.054  22.530  0.00  0.00    +0.000 A 
ATOM     24  C   UNL     1      -0.504  10.277  22.951  0.00  0.00    +0.000 A 
ATOM     25  C   UNL     1      -0.326  11.409  22.164  0.00  0.00    +0.000 A 
ATOM     26  F   UNL     1      -0.827  12.583  22.570  0.00  0.00    +0.000 F 
ATOM     27  C   UNL     1       0.359  11.340  20.956  0.00  0.00    +0.000 A 
ATOM     28  C   UNL     1       0.876  10.113  20.527  0.00  0.00    +0.000 A 
ENDBRANCH  21  22
ENDBRANCH   2  20
TORSDOF 4
ENDMDL
MODEL 9
REMARK VINA RESULT:      -7.2      4.296      6.860
REMARK  Name = 
REMARK  5 active torsions:
REMARK  status: ('A' for Active; 'I' for Inactive)
REMARK    1  A    between atoms: C_1  and  C_2
REMARK    2  A    between atoms: C_2  and  C_4
REMARK    3  A    between atoms: C_5  and  C_6
REMARK    4  A    between atoms: C_7  and  C_8
REMARK    5  A    between atoms: C_22  and  C_23
REMARK                            x       y       z     vdW  Elec       q    Type
REMARK                         _______ _______ _______ _____ _____    ______ ____
ROOT
ATOM      1  C   UNL     1       3.360   6.318  18.281  0.00  0.00    +0.000 A 
ATOM      2  C   UNL     1       2.340   6.392  19.234  0.00  0.00    +0.000 A 
ATOM      3  N   UNL     1       1.787   5.307  19.812  0.00  0.00    +0.000 NA
ATOM      4  C   UNL     1       2.206   4.094  19.457  0.00  0.00    +0.000 A 
ATOM      5  C   UNL     1       1.540   3.024  20.040  0.00  0.00    +0.000 A 
ATOM      6  C   UNL     1       1.866   1.703  19.754  0.00  0.00    +0.000 A 
ATOM      7  C   UNL     1       2.921   1.442  18.900  0.00  0.00    +0.000 A 
ATOM      8  C   UNL     1       3.623   2.509  18.331  0.00  0.00    +0.000 A 
ATOM      9  C   UNL     1       3.258   3.874  18.539  0.00  0.00    +0.000 A 
ATOM     10  C   UNL     1       3.856   5.034  17.905  0.00  0.00    +0.000 A 
ENDROOT
BRANCH  10  11
ATOM     11  C   UNL     1       4.963   4.866  16.899  0.00  0.00    +0.000 A 
ATOM     12  C   UNL     1       4.699   4.793  15.515  0.00  0.00    +0.000 A 
ATOM     13  C   UNL     1       5.706   4.527  14.580  0.00  0.00    +0.000 A 
ATOM     14  C   UNL     1       7.028   4.424  14.992  0.00  0.00    +0.000 A 
ATOM     15  C   UNL     1       7.334   4.567  16.340  0.00  0.00    +0.000 A 
ATOM     16  C   UNL     1       6.312   4.750  17.283  0.00  0.00    +0.000 A 
ENDBRANCH  10  11
BRANCH   1  18
ATOM     17  C   UNL     1       5.296   7.927  17.638  0.00  0.00    +0.000 C 
ATOM     18  C   UNL     1       3.824   7.584  17.638  0.00  0.00    +0.000 C 
ATOM     19  O   UNL     1       3.002   8.352  17.141  0.00  0.00    +0.000 OA
ENDBRANCH   1  18
BRANCH   2  20
ATOM     20  C   UNL     1       1.724   7.623  19.734  0.00  0.00    +0.000 C 
ATOM     21  C   UNL     1       1.203   7.739  20.964  0.00  0.00    +0.000 C 
BRANCH  21  22
ATOM     22  C   UNL     1       0.632   9.009  21.400  0.00  0.00    +0.000 A 
ATOM     23  C   UNL     1       0.947  10.200  20.721  0.00  0.00    +0.000 A 
ATOM     24  C   UNL     1       0.442  11.417  21.173  0.00  0.00    +0.000 A 
ATOM     25  C   UNL     1      -0.380  11.449  22.294  0.00  0.00    +0.000 A 
ATOM     26  F   UNL     1      -0.860  12.621  22.729  0.00  0.00    +0.000 F 
ATOM     27  C   UNL     1      -0.706  10.282  22.976  0.00  0.00    +0.000 A 
ATOM     28  C   UNL     1      -0.199   9.057  22.528  0.00  0.00    +0.000 A 
ENDBRANCH  21  22
ENDBRANCH   2  20
TORSDOF 4
ENDMDL
