MODEL 1
REMARK VINA RESULT:      -9.4      0.000      0.000
REMARK  Name = 
REMARK  4 active torsions:
REMARK  status: ('A' for Active; 'I' for Inactive)
REMARK    1  A    between atoms: C_1  and  C_2
REMARK    2  A    between atoms: C_2  and  C_3
REMARK    3  A    between atoms: C_5  and  N_6
REMARK    4  A    between atoms: C_7  and  C_9
REMARK                            x       y       z     vdW  Elec       q    Type
REMARK                         _______ _______ _______ _____ _____    ______ ____
ROOT
ATOM      1  C   UNL     1       4.866   5.573  17.346  0.00  0.00    +0.000 A 
ATOM      2  C   UNL     1       4.150   6.741  17.691  0.00  0.00    +0.000 A 
ATOM      3  C   UNL     1       2.770   6.768  17.965  0.00  0.00    +0.000 A 
ATOM      4  C   UNL     1       2.072   5.564  17.915  0.00  0.00    +0.000 A 
ATOM      5  C   UNL     1       2.758   4.377  17.624  0.00  0.00    +0.000 A 
ATOM      6  C   UNL     1       4.134   4.387  17.372  0.00  0.00    +0.000 A 
ATOM      7  F   UNL     1       4.744   3.211  17.175  0.00  0.00    +0.000 F 
ENDROOT
BRANCH   1   9
ATOM      8  C   UNL     1       6.711   4.912  15.707  0.00  0.00    +0.000 C 
ATOM      9  C   UNL     1       6.388   5.612  17.062  0.00  0.00    +0.000 C 
ATOM     10  N   UNL     1       6.756   7.018  16.867  0.00  0.00    +0.000 NA
ATOM     11  C   UNL     1       7.588   7.618  17.620  0.00  0.00    +0.000 C 
ATOM     12  N   UNL     1       7.893   8.924  17.474  0.00  0.00    +0.000 N 
ATOM     13  O   UNL     1       8.287   7.087  18.632  0.00  0.00    +0.000 OA
ATOM     14  C   UNL     1       7.983   5.773  19.099  0.00  0.00    +0.000 C 
ATOM     15  C   UNL     1       7.240   4.876  18.132  0.00  0.00    +0.000 C 
ATOM     16  F   UNL     1       8.213   4.117  17.518  0.00  0.00    +0.000 F 
ATOM     17  H   UNL     1       7.667   9.311  16.568  0.00  0.00    +0.000 HD
ATOM     18  H   UNL     1       8.768   9.217  17.885  0.00  0.00    +0.000 HD
ENDBRANCH   1   9
BRANCH   3  19
ATOM     19  N   UNL     1       2.088   7.968  18.312  0.00  0.00    +0.000 N 
ATOM     20  C   UNL     1       1.642   8.274  19.596  0.00  0.00    +0.000 C 
ATOM     21  O   UNL     1       1.837   7.575  20.590  0.00  0.00    +0.000 OA
ATOM     22  H   UNL     1       1.929   8.661  17.586  0.00  0.00    +0.000 HD
BRANCH  20  23
ATOM     23  C   UNL     1       0.856   9.534  19.780  0.00  0.00    +0.000 A 
ATOM     24  N   UNL     1       0.485  10.170  18.627  0.00  0.00    +0.000 NA
ATOM     25  C   UNL     1      -0.437  11.162  18.760  0.00  0.00    +0.000 A 
ATOM     26  C   UNL     1      -0.982  11.560  19.975  0.00  0.00    +0.000 A 
ATOM     27 CL   UNL     1      -2.182  12.781  20.056  0.00  0.00    +0.000 Cl
ATOM     28  C   UNL     1      -0.542  10.946  21.135  0.00  0.00    +0.000 A 
ATOM     29  C   UNL     1       0.399   9.921  21.053  0.00  0.00    +0.000 A 
ATOM     30 CL   UNL     1       0.952   9.251  22.544  0.00  0.00    +0.000 Cl
ENDBRANCH  20  23
ENDBRANCH   3  19
TORSDOF 3
ENDMDL
MODEL 2
REMARK VINA RESULT:      -9.3      1.621      1.756
REMARK  Name = 
REMARK  4 active torsions:
REMARK  status: ('A' for Active; 'I' for Inactive)
REMARK    1  A    between atoms: C_1  and  C_2
REMARK    2  A    between atoms: C_2  and  C_3
REMARK    3  A    between atoms: C_5  and  N_6
REMARK    4  A    between atoms: C_7  and  C_9
REMARK                            x       y       z     vdW  Elec       q    Type
REMARK                         _______ _______ _______ _____ _____    ______ ____
ROOT
ATOM      1  C   UNL     1       4.793   5.550  17.428  0.00  0.00    +0.000 A 
ATOM      2  C   UNL     1       4.102   6.626  18.028  0.00  0.00    +0.000 A 
ATOM      3  C   UNL     1       2.738   6.594  18.372  0.00  0.00    +0.000 A 
ATOM      4  C   UNL     1       2.032   5.419  18.128  0.00  0.00    +0.000 A 
ATOM      5  C   UNL     1       2.695   4.313  17.580  0.00  0.00    +0.000 A 
ATOM      6  C   UNL     1       4.057   4.378  17.264  0.00  0.00    +0.000 A 
ATOM      7  F   UNL     1       4.650   3.265  16.813  0.00  0.00    +0.000 F 
ENDROOT
BRANCH   1   9
ATOM      8  C   UNL     1       6.583   5.002  15.691  0.00  0.00    +0.000 C 
ATOM      9  C   UNL     1       6.299   5.650  17.079  0.00  0.00    +0.000 C 
ATOM     10  N   UNL     1       6.611   7.073  16.913  0.00  0.00    +0.000 NA
ATOM     11  C   UNL     1       7.456   7.678  17.647  0.00  0.00    +0.000 C 
ATOM     12  N   UNL     1       7.710   8.998  17.529  0.00  0.00    +0.000 N 
ATOM     13  O   UNL     1       8.216   7.142  18.610  0.00  0.00    +0.000 OA
ATOM     14  C   UNL     1       7.977   5.805  19.049  0.00  0.00    +0.000 C 
ATOM     15  C   UNL     1       7.222   4.911  18.088  0.00  0.00    +0.000 C 
ATOM     16  F   UNL     1       8.191   4.205  17.408  0.00  0.00    +0.000 F 
ATOM     17  H   UNL     1       7.431   9.404  16.645  0.00  0.00    +0.000 HD
ATOM     18  H   UNL     1       8.593   9.309  17.909  0.00  0.00    +0.000 HD
ENDBRANCH   1   9
BRANCH   3  19
ATOM     19  N   UNL     1       2.081   7.702  18.978  0.00  0.00    +0.000 N 
ATOM     20  C   UNL     1       1.734   8.871  18.306  0.00  0.00    +0.000 C 
ATOM     21  O   UNL     1       1.898   9.062  17.101  0.00  0.00    +0.000 OA
ATOM     22  H   UNL     1       1.828   7.636  19.959  0.00  0.00    +0.000 HD
BRANCH  20  23
ATOM     23  C   UNL     1       1.133   9.984  19.106  0.00  0.00    +0.000 A 
ATOM     24  N   UNL     1       0.186   9.608  20.019  0.00  0.00    +0.000 NA
ATOM     25  C   UNL     1      -0.182  10.554  20.924  0.00  0.00    +0.000 A 
ATOM     26  C   UNL     1       0.325  11.847  20.949  0.00  0.00    +0.000 A 
ATOM     27 CL   UNL     1      -0.147  12.968  22.157  0.00  0.00    +0.000 Cl
ATOM     28  C   UNL     1       1.234  12.225  19.974  0.00  0.00    +0.000 A 
ATOM     29  C   UNL     1       1.646  11.291  19.025  0.00  0.00    +0.000 A 
ATOM     30 CL   UNL     1       2.726  11.852  17.801  0.00  0.00    +0.000 Cl
ENDBRANCH  20  23
ENDBRANCH   3  19
TORSDOF 3
ENDMDL
MODEL 3
REMARK VINA RESULT:      -9.3      3.224      4.460
REMARK  Name = 
REMARK  4 active torsions:
REMARK  status: ('A' for Active; 'I' for Inactive)
REMARK    1  A    between atoms: C_1  and  C_2
REMARK    2  A    between atoms: C_2  and  C_3
REMARK    3  A    between atoms: C_5  and  N_6
REMARK    4  A    between atoms: C_7  and  C_9
REMARK                            x       y       z     vdW  Elec       q    Type
REMARK                         _______ _______ _______ _____ _____    ______ ____
ROOT
ATOM      1  C   UNL     1       2.814   4.987  18.620  0.00  0.00    +0.000 A 
ATOM      2  C   UNL     1       2.237   6.134  19.209  0.00  0.00    +0.000 A 
ATOM      3  C   UNL     1       2.545   7.454  18.832  0.00  0.00    +0.000 A 
ATOM      4  C   UNL     1       3.458   7.640  17.797  0.00  0.00    +0.000 A 
ATOM      5  C   UNL     1       4.013   6.525  17.155  0.00  0.00    +0.000 A 
ATOM      6  C   UNL     1       3.672   5.226  17.548  0.00  0.00    +0.000 A 
ATOM      7  F   UNL     1       4.179   4.205  16.847  0.00  0.00    +0.000 F 
ENDROOT
BRANCH   1   9
ATOM      8  C   UNL     1       1.648   2.814  17.953  0.00  0.00    +0.000 C 
ATOM      9  C   UNL     1       2.425   3.559  19.080  0.00  0.00    +0.000 C 
ATOM     10  N   UNL     1       3.672   2.807  19.252  0.00  0.00    +0.000 NA
ATOM     11  C   UNL     1       4.025   2.316  20.372  0.00  0.00    +0.000 C 
ATOM     12  N   UNL     1       5.194   1.665  20.546  0.00  0.00    +0.000 N 
ATOM     13  O   UNL     1       3.333   2.344  21.517  0.00  0.00    +0.000 OA
ATOM     14  C   UNL     1       2.161   3.151  21.625  0.00  0.00    +0.000 C 
ATOM     15  C   UNL     1       1.493   3.537  20.322  0.00  0.00    +0.000 C 
ATOM     16  F   UNL     1       0.487   2.613  20.140  0.00  0.00    +0.000 F 
ATOM     17  H   UNL     1       5.618   1.325  19.693  0.00  0.00    +0.000 HD
ATOM     18  H   UNL     1       5.237   1.051  21.346  0.00  0.00    +0.000 HD
ENDBRANCH   1   9
BRANCH   3  19
ATOM     19  N   UNL     1       1.937   8.582  19.451  0.00  0.00    +0.000 N 
ATOM     20  C   UNL     1       1.077   9.465  18.803  0.00  0.00    +0.000 C 
ATOM     21  O   UNL     1       0.693   9.341  17.639  0.00  0.00    +0.000 OA
ATOM     22  H   UNL     1       2.122   8.751  20.436  0.00  0.00    +0.000 HD
BRANCH  20  23
ATOM     23  C   UNL     1       0.595  10.658  19.566  0.00  0.00    +0.000 A 
ATOM     24  N   UNL     1      -0.409  10.418  20.463  0.00  0.00    +0.000 NA
ATOM     25  C   UNL     1      -0.682  11.421  21.341  0.00  0.00    +0.000 A 
ATOM     26  C   UNL     1      -0.025  12.645  21.352  0.00  0.00    +0.000 A 
ATOM     27 CL   UNL     1      -0.386  13.840  22.527  0.00  0.00    +0.000 Cl
ATOM     28  C   UNL     1       0.943  12.890  20.393  0.00  0.00    +0.000 A 
ATOM     29  C   UNL     1       1.262  11.893  19.472  0.00  0.00    +0.000 A 
ATOM     30 CL   UNL     1       2.427  12.295  18.264  0.00  0.00    +0.000 Cl
ENDBRANCH  20  23
ENDBRANCH   3  19
TORSDOF 3
ENDMDL
MODEL 4
REMARK VINA RESULT:      -9.3      1.358      1.587
REMARK  Name = 
REMARK  4 active torsions:
REMARK  status: ('A' for Active; 'I' for Inactive)
REMARK    1  A    between atoms: C_1  and  C_2
REMARK    2  A    between atoms: C_2  and  C_3
REMARK    3  A    between atoms: C_5  and  N_6
REMARK    4  A    between atoms: C_7  and  C_9
REMARK                            x       y       z     vdW  Elec       q    Type
REMARK                         _______ _______ _______ _____ _____    ______ ____
ROOT
ATOM      1  C   UNL     1       4.905   5.414  17.360  0.00  0.00    +0.000 A 
ATOM      2  C   UNL     1       4.200   6.482  17.958  0.00  0.00    +0.000 A 
ATOM      3  C   UNL     1       2.825   6.452  18.252  0.00  0.00    +0.000 A 
ATOM      4  C   UNL     1       2.120   5.289  17.956  0.00  0.00    +0.000 A 
ATOM      5  C   UNL     1       2.795   4.190  17.408  0.00  0.00    +0.000 A 
ATOM      6  C   UNL     1       4.168   4.251  17.143  0.00  0.00    +0.000 A 
ATOM      7  F   UNL     1       4.769   3.144  16.689  0.00  0.00    +0.000 F 
ENDROOT
BRANCH   1   9
ATOM      8  C   UNL     1       6.765   4.826  15.710  0.00  0.00    +0.000 C 
ATOM      9  C   UNL     1       6.424   5.510  17.068  0.00  0.00    +0.000 C 
ATOM     10  N   UNL     1       6.738   6.929  16.876  0.00  0.00    +0.000 NA
ATOM     11  C   UNL     1       7.552   7.557  17.626  0.00  0.00    +0.000 C 
ATOM     12  N   UNL     1       7.807   8.875  17.482  0.00  0.00    +0.000 N 
ATOM     13  O   UNL     1       8.275   7.050  18.632  0.00  0.00    +0.000 OA
ATOM     14  C   UNL     1       8.022   5.725  19.098  0.00  0.00    +0.000 C 
ATOM     15  C   UNL     1       7.308   4.803  18.132  0.00  0.00    +0.000 C 
ATOM     16  F   UNL     1       8.305   4.082  17.511  0.00  0.00    +0.000 F 
ATOM     17  H   UNL     1       7.563   9.255  16.578  0.00  0.00    +0.000 HD
ATOM     18  H   UNL     1       8.673   9.198  17.889  0.00  0.00    +0.000 HD
ENDBRANCH   1   9
BRANCH   3  19
ATOM     19  N   UNL     1       2.154   7.552  18.858  0.00  0.00    +0.000 N 
ATOM     20  C   UNL     1       1.672   7.553  20.165  0.00  0.00    +0.000 C 
ATOM     21  O   UNL     1       1.820   6.632  20.968  0.00  0.00    +0.000 OA
ATOM     22  H   UNL     1       2.031   8.402  18.316  0.00  0.00    +0.000 HD
BRANCH  20  23
ATOM     23  C   UNL     1       0.903   8.752  20.624  0.00  0.00    +0.000 A 
ATOM     24  N   UNL     1       0.683   8.830  21.972  0.00  0.00    +0.000 NA
ATOM     25  C   UNL     1       0.220  10.022  22.436  0.00  0.00    +0.000 A 
ATOM     26  C   UNL     1      -0.053  11.118  21.628  0.00  0.00    +0.000 A 
ATOM     27 CL   UNL     1      -0.582  12.607  22.294  0.00  0.00    +0.000 Cl
ATOM     28  C   UNL     1       0.115  10.995  20.259  0.00  0.00    +0.000 A 
ATOM     29  C   UNL     1       0.591   9.796  19.733  0.00  0.00    +0.000 A 
ATOM     30 CL   UNL     1       0.709   9.692  18.015  0.00  0.00    +0.000 Cl
ENDBRANCH  20  23
ENDBRANCH   3  19
TORSDOF 3
ENDMDL
MODEL 5
REMARK VINA RESULT:      -9.2      1.276      1.435
REMARK  Name = 
REMARK  4 active torsions:
REMARK  status: ('A' for Active; 'I' for Inactive)
REMARK    1  A    between atoms: C_1  and  C_2
REMARK    2  A    between atoms: C_2  and  C_3
REMARK    3  A    between atoms: C_5  and  N_6
REMARK    4  A    between atoms: C_7  and  C_9
REMARK                            x       y       z     vdW  Elec       q    Type
REMARK                         _______ _______ _______ _____ _____    ______ ____
ROOT
ATOM      1  C   UNL     1       4.783   5.782  17.356  0.00  0.00    +0.000 A 
ATOM      2  C   UNL     1       4.057   6.978  17.553  0.00  0.00    +0.000 A 
ATOM      3  C   UNL     1       2.681   7.026  17.842  0.00  0.00    +0.000 A 
ATOM      4  C   UNL     1       1.997   5.820  17.963  0.00  0.00    +0.000 A 
ATOM      5  C   UNL     1       2.694   4.612  17.823  0.00  0.00    +0.000 A 
ATOM      6  C   UNL     1       4.067   4.603  17.551  0.00  0.00    +0.000 A 
ATOM      7  F   UNL     1       4.689   3.418  17.503  0.00  0.00    +0.000 F 
ENDROOT
BRANCH   1   9
ATOM      8  C   UNL     1       6.580   5.191  15.639  0.00  0.00    +0.000 C 
ATOM      9  C   UNL     1       6.301   5.799  17.047  0.00  0.00    +0.000 C 
ATOM     10  N   UNL     1       6.706   7.205  16.947  0.00  0.00    +0.000 NA
ATOM     11  C   UNL     1       7.568   7.725  17.726  0.00  0.00    +0.000 C 
ATOM     12  N   UNL     1       7.908   9.030  17.669  0.00  0.00    +0.000 N 
ATOM     13  O   UNL     1       8.268   7.103  18.682  0.00  0.00    +0.000 OA
ATOM     14  C   UNL     1       7.934   5.767  19.059  0.00  0.00    +0.000 C 
ATOM     15  C   UNL     1       7.149   4.963  18.044  0.00  0.00    +0.000 C 
ATOM     16  F   UNL     1       8.089   4.225  17.359  0.00  0.00    +0.000 F 
ATOM     17  H   UNL     1       7.678   9.487  16.797  0.00  0.00    +0.000 HD
ATOM     18  H   UNL     1       8.798   9.267  18.082  0.00  0.00    +0.000 HD
ENDBRANCH   1   9
BRANCH   3  19
ATOM     19  N   UNL     1       1.988   8.255  18.036  0.00  0.00    +0.000 N 
ATOM     20  C   UNL     1       1.581   8.738  19.278  0.00  0.00    +0.000 C 
ATOM     21  O   UNL     1       1.824   8.194  20.355  0.00  0.00    +0.000 OA
ATOM     22  H   UNL     1       1.791   8.832  17.224  0.00  0.00    +0.000 HD
BRANCH  20  23
ATOM     23  C   UNL     1       0.778  10.001  19.306  0.00  0.00    +0.000 A 
ATOM     24  N   UNL     1      -0.397   9.935  20.003  0.00  0.00    +0.000 NA
ATOM     25  C   UNL     1      -1.010  11.123  20.257  0.00  0.00    +0.000 A 
ATOM     26  C   UNL     1      -0.524  12.355  19.837  0.00  0.00    +0.000 A 
ATOM     27 CL   UNL     1      -1.324  13.815  20.245  0.00  0.00    +0.000 Cl
ATOM     28  C   UNL     1       0.633  12.390  19.077  0.00  0.00    +0.000 A 
ATOM     29  C   UNL     1       1.301  11.201  18.791  0.00  0.00    +0.000 A 
ATOM     30 CL   UNL     1       2.696  11.316  17.782  0.00  0.00    +0.000 Cl
ENDBRANCH  20  23
ENDBRANCH   3  19
TORSDOF 3
ENDMDL
MODEL 6
REMARK VINA RESULT:      -9.2      1.380      1.548
REMARK  Name = 
REMARK  4 active torsions:
REMARK  status: ('A' for Active; 'I' for Inactive)
REMARK    1  A    between atoms: C_1  and  C_2
REMARK    2  A    between atoms: C_2  and  C_3
REMARK    3  A    between atoms: C_5  and  N_6
REMARK    4  A    between atoms: C_7  and  C_9
REMARK                            x       y       z     vdW  Elec       q    Type
REMARK                         _______ _______ _______ _____ _____    ______ ____
ROOT
ATOM      1  C   UNL     1       4.694   5.901  17.391  0.00  0.00    +0.000 A 
ATOM      2  C   UNL     1       4.034   7.117  17.677  0.00  0.00    +0.000 A 
ATOM      3  C   UNL     1       2.667   7.215  17.997  0.00  0.00    +0.000 A 
ATOM      4  C   UNL     1       1.925   6.039  18.057  0.00  0.00    +0.000 A 
ATOM      5  C   UNL     1       2.556   4.809  17.827  0.00  0.00    +0.000 A 
ATOM      6  C   UNL     1       3.922   4.748  17.527  0.00  0.00    +0.000 A 
ATOM      7  F   UNL     1       4.481   3.539  17.392  0.00  0.00    +0.000 F 
ENDROOT
BRANCH   1   9
ATOM      8  C   UNL     1       6.432   5.261  15.632  0.00  0.00    +0.000 C 
ATOM      9  C   UNL     1       6.205   5.862  17.052  0.00  0.00    +0.000 C 
ATOM     10  N   UNL     1       6.663   7.252  16.961  0.00  0.00    +0.000 NA
ATOM     11  C   UNL     1       7.561   7.727  17.728  0.00  0.00    +0.000 C 
ATOM     12  N   UNL     1       7.951   9.018  17.679  0.00  0.00    +0.000 N 
ATOM     13  O   UNL     1       8.254   7.066  18.663  0.00  0.00    +0.000 OA
ATOM     14  C   UNL     1       7.874   5.740  19.031  0.00  0.00    +0.000 C 
ATOM     15  C   UNL     1       7.038   4.981  18.023  0.00  0.00    +0.000 C 
ATOM     16  F   UNL     1       7.935   4.214  17.310  0.00  0.00    +0.000 F 
ATOM     17  H   UNL     1       7.723   9.495  16.818  0.00  0.00    +0.000 HD
ATOM     18  H   UNL     1       8.858   9.215  18.078  0.00  0.00    +0.000 HD
ENDBRANCH   1   9
BRANCH   3  19
ATOM     19  N   UNL     1       2.041   8.462  18.282  0.00  0.00    +0.000 N 
ATOM     20  C   UNL     1       1.503   8.805  19.520  0.00  0.00    +0.000 C 
ATOM     21  O   UNL     1       1.556   8.099  20.527  0.00  0.00    +0.000 OA
ATOM     22  H   UNL     1       1.998   9.160  17.546  0.00  0.00    +0.000 HD
BRANCH  20  23
ATOM     23  C   UNL     1       0.793  10.117  19.633  0.00  0.00    +0.000 A 
ATOM     24  N   UNL     1       1.222  10.933  20.644  0.00  0.00    +0.000 NA
ATOM     25  C   UNL     1       0.777  12.218  20.607  0.00  0.00    +0.000 A 
ATOM     26  C   UNL     1      -0.083  12.716  19.636  0.00  0.00    +0.000 A 
ATOM     27 CL   UNL     1      -0.556  14.363  19.624  0.00  0.00    +0.000 Cl
ATOM     28  C   UNL     1      -0.555  11.855  18.660  0.00  0.00    +0.000 A 
ATOM     29  C   UNL     1      -0.126  10.529  18.651  0.00  0.00    +0.000 A 
ATOM     30 CL   UNL     1      -0.811   9.498  17.448  0.00  0.00    +0.000 Cl
ENDBRANCH  20  23
ENDBRANCH   3  19
TORSDOF 3
ENDMDL
MODEL 7
REMARK VINA RESULT:      -9.1      3.033      4.238
REMARK  Name = 
REMARK  4 active torsions:
REMARK  status: ('A' for Active; 'I' for Inactive)
REMARK    1  A    between atoms: C_1  and  C_2
REMARK    2  A    between atoms: C_2  and  C_3
REMARK    3  A    between atoms: C_5  and  N_6
REMARK    4  A    between atoms: C_7  and  C_9
REMARK                            x       y       z     vdW  Elec       q    Type
REMARK                         _______ _______ _______ _____ _____    ______ ____
ROOT
ATOM      1  C   UNL     1       2.837   4.964  18.616  0.00  0.00    +0.000 A 
ATOM      2  C   UNL     1       2.275   6.117  19.208  0.00  0.00    +0.000 A 
ATOM      3  C   UNL     1       2.591   7.433  18.826  0.00  0.00    +0.000 A 
ATOM      4  C   UNL     1       3.498   7.610  17.785  0.00  0.00    +0.000 A 
ATOM      5  C   UNL     1       4.040   6.490  17.140  0.00  0.00    +0.000 A 
ATOM      6  C   UNL     1       3.689   5.195  17.537  0.00  0.00    +0.000 A 
ATOM      7  F   UNL     1       4.183   4.168  16.833  0.00  0.00    +0.000 F 
ENDROOT
BRANCH   1   9
ATOM      8  C   UNL     1       1.649   2.800  17.960  0.00  0.00    +0.000 C 
ATOM      9  C   UNL     1       2.440   3.540  19.080  0.00  0.00    +0.000 C 
ATOM     10  N   UNL     1       3.681   2.778  19.245  0.00  0.00    +0.000 NA
ATOM     11  C   UNL     1       4.038   2.286  20.364  0.00  0.00    +0.000 C 
ATOM     12  N   UNL     1       5.203   1.625  20.531  0.00  0.00    +0.000 N 
ATOM     13  O   UNL     1       3.354   2.321  21.514  0.00  0.00    +0.000 OA
ATOM     14  C   UNL     1       2.189   3.138  21.629  0.00  0.00    +0.000 C 
ATOM     15  C   UNL     1       1.516   3.528  20.329  0.00  0.00    +0.000 C 
ATOM     16  F   UNL     1       0.502   2.612  20.155  0.00  0.00    +0.000 F 
ATOM     17  H   UNL     1       5.618   1.280  19.676  0.00  0.00    +0.000 HD
ATOM     18  H   UNL     1       5.246   1.012  21.332  0.00  0.00    +0.000 HD
ENDBRANCH   1   9
BRANCH   3  19
ATOM     19  N   UNL     1       1.998   8.568  19.449  0.00  0.00    +0.000 N 
ATOM     20  C   UNL     1       1.102   9.429  18.820  0.00  0.00    +0.000 C 
ATOM     21  O   UNL     1       0.671   9.279  17.676  0.00  0.00    +0.000 OA
ATOM     22  H   UNL     1       2.223   8.758  20.421  0.00  0.00    +0.000 HD
BRANCH  20  23
ATOM     23  C   UNL     1       0.640  10.633  19.580  0.00  0.00    +0.000 A 
ATOM     24  N   UNL     1       0.903  11.838  18.990  0.00  0.00    +0.000 NA
ATOM     25  C   UNL     1       0.274  12.918  19.526  0.00  0.00    +0.000 A 
ATOM     26  C   UNL     1      -0.577  12.858  20.623  0.00  0.00    +0.000 A 
ATOM     27 CL   UNL     1      -1.378  14.255  21.208  0.00  0.00    +0.000 Cl
ATOM     28  C   UNL     1      -0.776  11.636  21.244  0.00  0.00    +0.000 A 
ATOM     29  C   UNL     1      -0.157  10.498  20.731  0.00  0.00    +0.000 A 
ATOM     30 CL   UNL     1      -0.396   9.025  21.598  0.00  0.00    +0.000 Cl
ENDBRANCH  20  23
ENDBRANCH   3  19
TORSDOF 3
ENDMDL
MODEL 8
REMARK VINA RESULT:      -9.0      1.417      1.697
REMARK  Name = 
REMARK  4 active torsions:
REMARK  status: ('A' for Active; 'I' for Inactive)
REMARK    1  A    between atoms: C_1  and  C_2
REMARK    2  A    between atoms: C_2  and  C_3
REMARK    3  A    between atoms: C_5  and  N_6
REMARK    4  A    between atoms: C_7  and  C_9
REMARK                            x       y       z     vdW  Elec       q    Type
REMARK                         _______ _______ _______ _____ _____    ______ ____
ROOT
ATOM      1  C   UNL     1       4.758   5.397  17.351  0.00  0.00    +0.000 A 
ATOM      2  C   UNL     1       4.015   6.438  17.949  0.00  0.00    +0.000 A 
ATOM      3  C   UNL     1       2.650   6.345  18.277  0.00  0.00    +0.000 A 
ATOM      4  C   UNL     1       1.997   5.143  18.017  0.00  0.00    +0.000 A 
ATOM      5  C   UNL     1       2.714   4.070  17.469  0.00  0.00    +0.000 A 
ATOM      6  C   UNL     1       4.075   4.195  17.170  0.00  0.00    +0.000 A 
ATOM      7  F   UNL     1       4.720   3.112  16.719  0.00  0.00    +0.000 F 
ENDROOT
BRANCH   1   9
ATOM      8  C   UNL     1       6.591   4.934  15.633  0.00  0.00    +0.000 C 
ATOM      9  C   UNL     1       6.262   5.563  17.020  0.00  0.00    +0.000 C 
ATOM     10  N   UNL     1       6.514   6.999  16.863  0.00  0.00    +0.000 NA
ATOM     11  C   UNL     1       7.323   7.637  17.610  0.00  0.00    +0.000 C 
ATOM     12  N   UNL     1       7.522   8.967  17.500  0.00  0.00    +0.000 N 
ATOM     13  O   UNL     1       8.095   7.130  18.579  0.00  0.00    +0.000 OA
ATOM     14  C   UNL     1       7.908   5.782  19.010  0.00  0.00    +0.000 C 
ATOM     15  C   UNL     1       7.204   4.861  18.037  0.00  0.00    +0.000 C 
ATOM     16  F   UNL     1       8.211   4.200  17.366  0.00  0.00    +0.000 F 
ATOM     17  H   UNL     1       7.236   9.364  16.615  0.00  0.00    +0.000 HD
ATOM     18  H   UNL     1       8.385   9.314  17.892  0.00  0.00    +0.000 HD
ENDBRANCH   1   9
BRANCH   3  19
ATOM     19  N   UNL     1       1.939   7.420  18.882  0.00  0.00    +0.000 N 
ATOM     20  C   UNL     1       1.719   8.655  18.277  0.00  0.00    +0.000 C 
ATOM     21  O   UNL     1       2.059   8.943  17.129  0.00  0.00    +0.000 OA
ATOM     22  H   UNL     1       1.546   7.279  19.808  0.00  0.00    +0.000 HD
BRANCH  20  23
ATOM     23  C   UNL     1       1.036   9.715  19.082  0.00  0.00    +0.000 A 
ATOM     24  N   UNL     1       1.714  10.141  20.191  0.00  0.00    +0.000 NA
ATOM     25  C   UNL     1       1.241  11.269  20.786  0.00  0.00    +0.000 A 
ATOM     26  C   UNL     1       0.126  11.971  20.347  0.00  0.00    +0.000 A 
ATOM     27 CL   UNL     1      -0.376  13.418  21.117  0.00  0.00    +0.000 Cl
ATOM     28  C   UNL     1      -0.583  11.485  19.262  0.00  0.00    +0.000 A 
ATOM     29  C   UNL     1      -0.138  10.334  18.614  0.00  0.00    +0.000 A 
ATOM     30 CL   UNL     1      -1.110   9.747  17.315  0.00  0.00    +0.000 Cl
ENDBRANCH  20  23
ENDBRANCH   3  19
TORSDOF 3
ENDMDL
MODEL 9
REMARK VINA RESULT:      -9.0      2.660      4.062
REMARK  Name = 
REMARK  4 active torsions:
REMARK  status: ('A' for Active; 'I' for Inactive)
REMARK    1  A    between atoms: C_1  and  C_2
REMARK    2  A    between atoms: C_2  and  C_3
REMARK    3  A    between atoms: C_5  and  N_6
REMARK    4  A    between atoms: C_7  and  C_9
REMARK                            x       y       z     vdW  Elec       q    Type
REMARK                         _______ _______ _______ _____ _____    ______ ____
ROOT
ATOM      1  C   UNL     1       3.064   4.750  18.443  0.00  0.00    +0.000 A 
ATOM      2  C   UNL     1       2.393   5.942  18.797  0.00  0.00    +0.000 A 
ATOM      3  C   UNL     1       2.755   7.219  18.329  0.00  0.00    +0.000 A 
ATOM      4  C   UNL     1       3.826   7.310  17.445  0.00  0.00    +0.000 A 
ATOM      5  C   UNL     1       4.485   6.144  17.032  0.00  0.00    +0.000 A 
ATOM      6  C   UNL     1       4.087   4.889  17.507  0.00  0.00    +0.000 A 
ATOM      7  F   UNL     1       4.708   3.808  17.017  0.00  0.00    +0.000 F 
ENDROOT
BRANCH   1   9
ATOM      8  C   UNL     1       1.859   2.567  17.888  0.00  0.00    +0.000 C 
ATOM      9  C   UNL     1       2.610   3.373  18.990  0.00  0.00    +0.000 C 
ATOM     10  N   UNL     1       3.823   2.600  19.275  0.00  0.00    +0.000 NA
ATOM     11  C   UNL     1       4.111   2.187  20.444  0.00  0.00    +0.000 C 
ATOM     12  N   UNL     1       5.250   1.516  20.719  0.00  0.00    +0.000 N 
ATOM     13  O   UNL     1       3.371   2.322  21.551  0.00  0.00    +0.000 OA
ATOM     14  C   UNL     1       2.222   3.168  21.544  0.00  0.00    +0.000 C 
ATOM     15  C   UNL     1       1.625   3.473  20.187  0.00  0.00    +0.000 C 
ATOM     16  F   UNL     1       0.598   2.567  20.028  0.00  0.00    +0.000 F 
ATOM     17  H   UNL     1       5.699   1.100  19.914  0.00  0.00    +0.000 HD
ATOM     18  H   UNL     1       5.238   0.965  21.564  0.00  0.00    +0.000 HD
ENDBRANCH   1   9
BRANCH   3  19
ATOM     19  N   UNL     1       2.049   8.395  18.710  0.00  0.00    +0.000 N 
ATOM     20  C   UNL     1       1.442   8.579  19.950  0.00  0.00    +0.000 C 
ATOM     21  O   UNL     1       1.495   7.776  20.882  0.00  0.00    +0.000 OA
ATOM     22  H   UNL     1       1.996   9.162  18.047  0.00  0.00    +0.000 HD
BRANCH  20  23
ATOM     23  C   UNL     1       0.656   9.834  20.163  0.00  0.00    +0.000 A 
ATOM     24  N   UNL     1       0.362  10.544  19.031  0.00  0.00    +0.000 NA
ATOM     25  C   UNL     1      -0.559  11.536  19.168  0.00  0.00    +0.000 A 
ATOM     26  C   UNL     1      -1.176  11.865  20.368  0.00  0.00    +0.000 A 
ATOM     27 CL   UNL     1      -2.370  13.092  20.450  0.00  0.00    +0.000 Cl
ATOM     28  C   UNL     1      -0.815  11.175  21.513  0.00  0.00    +0.000 A 
ATOM     29  C   UNL     1       0.122  10.147  21.426  0.00  0.00    +0.000 A 
ATOM     30 CL   UNL     1       0.574   9.380  22.904  0.00  0.00    +0.000 Cl
ENDBRANCH  20  23
ENDBRANCH   3  19
TORSDOF 3
ENDMDL
