MODEL 1
REMARK VINA RESULT:      -7.5      0.000      0.000
REMARK  Name = 
REMARK  13 active torsions:
REMARK  status: ('A' for Active; 'I' for Inactive)
REMARK    1  A    between atoms: C_1  and  C_2
REMARK    2  A    between atoms: C_2  and  O_3
REMARK    3  A    between atoms: O_3  and  C_4
REMARK    4  A    between atoms: N_6  and  N_7
REMARK    5  A    between atoms: N_7  and  C_13
REMARK    6  A    between atoms: C_8  and  O_10
REMARK    7  A    between atoms: O_10  and  C_11
REMARK    8  A    between atoms: C_11  and  C_12
REMARK    9  A    between atoms: C_16  and  N_17
REMARK   10  A    between atoms: N_18  and  C_19
REMARK   11  A    between atoms: C_22  and  O_23
REMARK   12  A    between atoms: O_23  and  C_24
REMARK   13  A    between atoms: N_27  and  C_28
REMARK                            x       y       z     vdW  Elec       q    Type
REMARK                         _______ _______ _______ _____ _____    ______ ____
ROOT
ATOM      1  C   UNL     1       3.747   5.668  18.880  0.00  0.00    +0.000 A 
ATOM      2  C   UNL     1       3.279   4.836  19.876  0.00  0.00    +0.000 A 
ATOM      3  C   UNL     1       2.284   5.553  20.578  0.00  0.00    +0.000 A 
ATOM      4  C   UNL     1       2.135   6.804  19.992  0.00  0.00    +0.000 A 
ATOM      5  N   UNL     1       3.035   6.849  18.940  0.00  0.00    +0.000 N 
ATOM      6  C   UNL     1       3.100   7.888  17.938  0.00  0.00    +0.000 C 
ENDROOT
BRANCH   1   7
ATOM      7  N   UNL     1       4.724   5.299  17.942  0.00  0.00    +0.000 N 
ATOM      8  C   UNL     1       4.366   4.271  16.974  0.00  0.00    +0.000 C 
ATOM      9  O   UNL     1       3.253   3.772  16.957  0.00  0.00    +0.000 OA
BRANCH   7  12
ATOM     10  C   UNL     1       6.886   5.791  18.860  0.00  0.00    +0.000 C 
ATOM     11  O   UNL     1       6.812   5.113  19.874  0.00  0.00    +0.000 OA
ATOM     12  N   UNL     1       5.921   5.907  17.881  0.00  0.00    +0.000 N 
ATOM     13  H   UNL     1       6.216   6.303  16.993  0.00  0.00    +0.000 HD
BRANCH  10  14
ATOM     14  O   UNL     1       7.958   6.562  18.533  0.00  0.00    +0.000 OA
BRANCH  14  16
ATOM     15  C   UNL     1       8.308   8.888  18.072  0.00  0.00    +0.000 C 
ATOM     16  C   UNL     1       7.683   7.598  17.571  0.00  0.00    +0.000 C 
ENDBRANCH  14  16
ENDBRANCH  10  14
ENDBRANCH   7  12
BRANCH   8  17
ATOM     17  O   UNL     1       5.416   3.911  16.186  0.00  0.00    +0.000 OA
BRANCH  17  18
ATOM     18  C   UNL     1       5.399   4.466  14.860  0.00  0.00    +0.000 C 
ATOM     19  C   UNL     1       6.798   4.723  14.338  0.00  0.00    +0.000 C 
ENDBRANCH  17  18
ENDBRANCH   8  17
ENDBRANCH   1   7
BRANCH   4  20
ATOM     20  N   UNL     1       1.304   7.850  20.270  0.00  0.00    +0.000 NA
ATOM     21  N   UNL     1       1.387   8.257  21.448  0.00  0.00    +0.000 NA
BRANCH  21  22
ATOM     22  C   UNL     1       0.537   9.334  21.768  0.00  0.00    +0.000 A 
ATOM     23  C   UNL     1       0.294  10.279  20.762  0.00  0.00    +0.000 A 
ATOM     24  C   UNL     1      -0.588  11.344  20.964  0.00  0.00    +0.000 A 
ATOM     25  C   UNL     1      -1.275  11.471  22.170  0.00  0.00    +0.000 A 
ATOM     26  C   UNL     1      -1.039  10.547  23.187  0.00  0.00    +0.000 A 
ATOM     27  C   UNL     1      -0.137   9.485  22.986  0.00  0.00    +0.000 A 
BRANCH  25  28
ATOM     28  O   UNL     1      -2.115  12.545  22.250  0.00  0.00    +0.000 OA
ATOM     29  C   UNL     1      -2.856  12.671  23.450  0.00  0.00    +0.000 C 
ENDBRANCH  25  28
ENDBRANCH  21  22
ENDBRANCH   4  20
TORSDOF 9
ENDMDL
MODEL 2
REMARK VINA RESULT:      -7.4      1.579      2.357
REMARK  Name = 
REMARK  13 active torsions:
REMARK  status: ('A' for Active; 'I' for Inactive)
REMARK    1  A    between atoms: C_1  and  C_2
REMARK    2  A    between atoms: C_2  and  O_3
REMARK    3  A    between atoms: O_3  and  C_4
REMARK    4  A    between atoms: N_6  and  N_7
REMARK    5  A    between atoms: N_7  and  C_13
REMARK    6  A    between atoms: C_8  and  O_10
REMARK    7  A    between atoms: O_10  and  C_11
REMARK    8  A    between atoms: C_11  and  C_12
REMARK    9  A    between atoms: C_16  and  N_17
REMARK   10  A    between atoms: N_18  and  C_19
REMARK   11  A    between atoms: C_22  and  O_23
REMARK   12  A    between atoms: O_23  and  C_24
REMARK   13  A    between atoms: N_27  and  C_28
REMARK                            x       y       z     vdW  Elec       q    Type
REMARK                         _______ _______ _______ _____ _____    ______ ____
ROOT
ATOM      1  C   UNL     1       3.172   6.241  18.089  0.00  0.00    +0.000 A 
ATOM      2  C   UNL     1       3.285   7.384  17.326  0.00  0.00    +0.000 A 
ATOM      3  C   UNL     1       2.566   8.399  17.995  0.00  0.00    +0.000 A 
ATOM      4  C   UNL     1       2.042   7.878  19.171  0.00  0.00    +0.000 A 
ATOM      5  N   UNL     1       2.439   6.552  19.217  0.00  0.00    +0.000 N 
ATOM      6  C   UNL     1       2.276   5.668  20.349  0.00  0.00    +0.000 C 
ENDROOT
BRANCH   1   7
ATOM      7  N   UNL     1       3.786   5.018  17.772  0.00  0.00    +0.000 N 
ATOM      8  C   UNL     1       2.914   3.902  17.434  0.00  0.00    +0.000 C 
ATOM      9  O   UNL     1       1.701   4.029  17.398  0.00  0.00    +0.000 OA
BRANCH   7  12
ATOM     10  C   UNL     1       5.932   4.797  18.822  0.00  0.00    +0.000 C 
ATOM     11  O   UNL     1       5.564   4.790  19.988  0.00  0.00    +0.000 OA
ATOM     12  N   UNL     1       5.122   4.885  17.709  0.00  0.00    +0.000 N 
ATOM     13  H   UNL     1       5.540   4.634  16.818  0.00  0.00    +0.000 HD
BRANCH  10  14
ATOM     14  O   UNL     1       7.232   4.721  18.431  0.00  0.00    +0.000 OA
BRANCH  14  16
ATOM     15  C   UNL     1       7.863   7.026  18.236  0.00  0.00    +0.000 C 
ATOM     16  C   UNL     1       8.090   5.730  18.995  0.00  0.00    +0.000 C 
ENDBRANCH  14  16
ENDBRANCH  10  14
ENDBRANCH   7  12
BRANCH   8  17
ATOM     17  O   UNL     1       3.602   2.742  17.252  0.00  0.00    +0.000 OA
BRANCH  17  18
ATOM     18  C   UNL     1       3.273   1.689  18.174  0.00  0.00    +0.000 C 
ATOM     19  C   UNL     1       3.566   2.083  19.608  0.00  0.00    +0.000 C 
ENDBRANCH  17  18
ENDBRANCH   8  17
ENDBRANCH   1   7
BRANCH   4  20
ATOM     20  N   UNL     1       1.301   8.440  20.170  0.00  0.00    +0.000 NA
ATOM     21  N   UNL     1       0.908   9.596  19.913  0.00  0.00    +0.000 NA
BRANCH  21  22
ATOM     22  C   UNL     1       0.145  10.207  20.929  0.00  0.00    +0.000 A 
ATOM     23  C   UNL     1      -0.635  11.313  20.565  0.00  0.00    +0.000 A 
ATOM     24  C   UNL     1      -1.476  11.943  21.487  0.00  0.00    +0.000 A 
ATOM     25  C   UNL     1      -1.582  11.458  22.789  0.00  0.00    +0.000 A 
ATOM     26  C   UNL     1      -0.806  10.365  23.173  0.00  0.00    +0.000 A 
ATOM     27  C   UNL     1       0.053   9.744  22.246  0.00  0.00    +0.000 A 
BRANCH  25  28
ATOM     28  O   UNL     1      -2.440  12.147  23.598  0.00  0.00    +0.000 OA
ATOM     29  C   UNL     1      -2.838  13.427  23.141  0.00  0.00    +0.000 C 
ENDBRANCH  25  28
ENDBRANCH  21  22
ENDBRANCH   4  20
TORSDOF 9
ENDMDL
MODEL 3
REMARK VINA RESULT:      -7.3      0.482      1.017
REMARK  Name = 
REMARK  13 active torsions:
REMARK  status: ('A' for Active; 'I' for Inactive)
REMARK    1  A    between atoms: C_1  and  C_2
REMARK    2  A    between atoms: C_2  and  O_3
REMARK    3  A    between atoms: O_3  and  C_4
REMARK    4  A    between atoms: N_6  and  N_7
REMARK    5  A    between atoms: N_7  and  C_13
REMARK    6  A    between atoms: C_8  and  O_10
REMARK    7  A    between atoms: O_10  and  C_11
REMARK    8  A    between atoms: C_11  and  C_12
REMARK    9  A    between atoms: C_16  and  N_17
REMARK   10  A    between atoms: N_18  and  C_19
REMARK   11  A    between atoms: C_22  and  O_23
REMARK   12  A    between atoms: O_23  and  C_24
REMARK   13  A    between atoms: N_27  and  C_28
REMARK                            x       y       z     vdW  Elec       q    Type
REMARK                         _______ _______ _______ _____ _____    ______ ____
ROOT
ATOM      1  C   UNL     1       3.965   5.635  18.829  0.00  0.00    +0.000 A 
ATOM      2  C   UNL     1       3.437   4.842  19.827  0.00  0.00    +0.000 A 
ATOM      3  C   UNL     1       2.391   5.577  20.429  0.00  0.00    +0.000 A 
ATOM      4  C   UNL     1       2.270   6.799  19.778  0.00  0.00    +0.000 A 
ATOM      5  N   UNL     1       3.239   6.809  18.789  0.00  0.00    +0.000 N 
ATOM      6  C   UNL     1       3.362   7.804  17.748  0.00  0.00    +0.000 C 
ENDROOT
BRANCH   1   7
ATOM      7  N   UNL     1       5.006   5.237  17.976  0.00  0.00    +0.000 N 
ATOM      8  C   UNL     1       4.765   4.082  17.122  0.00  0.00    +0.000 C 
ATOM      9  O   UNL     1       3.692   3.502  17.123  0.00  0.00    +0.000 OA
BRANCH   7  12
ATOM     10  C   UNL     1       7.132   5.908  18.865  0.00  0.00    +0.000 C 
ATOM     11  O   UNL     1       7.107   5.261  19.903  0.00  0.00    +0.000 OA
ATOM     12  N   UNL     1       6.158   5.923  17.888  0.00  0.00    +0.000 N 
ATOM     13  H   UNL     1       6.423   6.307  16.985  0.00  0.00    +0.000 HD
BRANCH  10  14
ATOM     14  O   UNL     1       8.147   6.738  18.506  0.00  0.00    +0.000 OA
BRANCH  14  16
ATOM     15  C   UNL     1       8.318   9.100  18.135  0.00  0.00    +0.000 C 
ATOM     16  C   UNL     1       7.772   7.789  17.597  0.00  0.00    +0.000 C 
ENDBRANCH  14  16
ENDBRANCH  10  14
ENDBRANCH   7  12
BRANCH   8  17
ATOM     17  O   UNL     1       5.871   3.716  16.419  0.00  0.00    +0.000 OA
BRANCH  17  18
ATOM     18  C   UNL     1       5.740   3.800  14.990  0.00  0.00    +0.000 C 
ATOM     19  C   UNL     1       6.207   5.140  14.459  0.00  0.00    +0.000 C 
ENDBRANCH  17  18
ENDBRANCH   8  17
ENDBRANCH   1   7
BRANCH   4  20
ATOM     20  N   UNL     1       1.414   7.847  19.953  0.00  0.00    +0.000 NA
ATOM     21  N   UNL     1       1.259   8.174  21.148  0.00  0.00    +0.000 NA
BRANCH  21  22
ATOM     22  C   UNL     1       0.374   9.250  21.363  0.00  0.00    +0.000 A 
ATOM     23  C   UNL     1      -0.000   9.516  22.687  0.00  0.00    +0.000 A 
ATOM     24  C   UNL     1      -0.819  10.602  23.006  0.00  0.00    +0.000 A 
ATOM     25  C   UNL     1      -1.257  11.471  22.008  0.00  0.00    +0.000 A 
ATOM     26  C   UNL     1      -0.904  11.217  20.683  0.00  0.00    +0.000 A 
ATOM     27  C   UNL     1      -0.093  10.112  20.364  0.00  0.00    +0.000 A 
BRANCH  25  28
ATOM     28  O   UNL     1      -2.044  12.501  22.437  0.00  0.00    +0.000 OA
ATOM     29  C   UNL     1      -1.448  13.404  23.351  0.00  0.00    +0.000 C 
ENDBRANCH  25  28
ENDBRANCH  21  22
ENDBRANCH   4  20
TORSDOF 9
ENDMDL
MODEL 4
REMARK VINA RESULT:      -7.2      1.669      2.871
REMARK  Name = 
REMARK  13 active torsions:
REMARK  status: ('A' for Active; 'I' for Inactive)
REMARK    1  A    between atoms: C_1  and  C_2
REMARK    2  A    between atoms: C_2  and  O_3
REMARK    3  A    between atoms: O_3  and  C_4
REMARK    4  A    between atoms: N_6  and  N_7
REMARK    5  A    between atoms: N_7  and  C_13
REMARK    6  A    between atoms: C_8  and  O_10
REMARK    7  A    between atoms: O_10  and  C_11
REMARK    8  A    between atoms: C_11  and  C_12
REMARK    9  A    between atoms: C_16  and  N_17
REMARK   10  A    between atoms: N_18  and  C_19
REMARK   11  A    between atoms: C_22  and  O_23
REMARK   12  A    between atoms: O_23  and  C_24
REMARK   13  A    between atoms: N_27  and  C_28
REMARK                            x       y       z     vdW  Elec       q    Type
REMARK                         _______ _______ _______ _____ _____    ______ ____
ROOT
ATOM      1  C   UNL     1       2.745   6.380  18.524  0.00  0.00    +0.000 A 
ATOM      2  C   UNL     1       3.045   7.415  17.662  0.00  0.00    +0.000 A 
ATOM      3  C   UNL     1       2.440   8.578  18.188  0.00  0.00    +0.000 A 
ATOM      4  C   UNL     1       1.799   8.252  19.377  0.00  0.00    +0.000 A 
ATOM      5  N   UNL     1       2.011   6.897  19.572  0.00  0.00    +0.000 N 
ATOM      6  C   UNL     1       1.681   6.163  20.773  0.00  0.00    +0.000 C 
ENDROOT
BRANCH   1   7
ATOM      7  N   UNL     1       3.201   5.062  18.360  0.00  0.00    +0.000 N 
ATOM      8  C   UNL     1       2.284   4.108  17.753  0.00  0.00    +0.000 C 
ATOM      9  O   UNL     1       1.174   4.445  17.372  0.00  0.00    +0.000 OA
BRANCH   7  12
ATOM     10  C   UNL     1       5.495   4.664  17.776  0.00  0.00    +0.000 C 
ATOM     11  O   UNL     1       5.442   4.989  16.599  0.00  0.00    +0.000 OA
ATOM     12  N   UNL     1       4.454   4.695  18.682  0.00  0.00    +0.000 N 
ATOM     13  H   UNL     1       4.701   4.634  19.665  0.00  0.00    +0.000 HD
BRANCH  10  14
ATOM     14  O   UNL     1       6.617   4.205  18.393  0.00  0.00    +0.000 OA
BRANCH  14  16
ATOM     15  C   UNL     1       7.830   6.208  18.907  0.00  0.00    +0.000 C 
ATOM     16  C   UNL     1       7.817   4.935  18.079  0.00  0.00    +0.000 C 
ENDBRANCH  14  16
ENDBRANCH  10  14
ENDBRANCH   7  12
BRANCH   8  17
ATOM     17  O   UNL     1       2.782   2.842  17.743  0.00  0.00    +0.000 OA
BRANCH  17  18
ATOM     18  C   UNL     1       2.027   1.885  18.505  0.00  0.00    +0.000 C 
ATOM     19  C   UNL     1       1.882   2.305  19.953  0.00  0.00    +0.000 C 
ENDBRANCH  17  18
ENDBRANCH   8  17
ENDBRANCH   1   7
BRANCH   4  20
ATOM     20  N   UNL     1       1.097   9.004  20.274  0.00  0.00    +0.000 NA
ATOM     21  N   UNL     1       0.340   9.841  19.741  0.00  0.00    +0.000 NA
BRANCH  21  22
ATOM     22  C   UNL     1      -0.395  10.639  20.641  0.00  0.00    +0.000 A 
ATOM     23  C   UNL     1      -1.196  11.651  20.093  0.00  0.00    +0.000 A 
ATOM     24  C   UNL     1      -2.012  12.449  20.900  0.00  0.00    +0.000 A 
ATOM     25  C   UNL     1      -2.071  12.231  22.275  0.00  0.00    +0.000 A 
ATOM     26  C   UNL     1      -1.274  11.236  22.841  0.00  0.00    +0.000 A 
ATOM     27  C   UNL     1      -0.440  10.446  22.026  0.00  0.00    +0.000 A 
BRANCH  25  28
ATOM     28  O   UNL     1      -2.908  13.064  22.960  0.00  0.00    +0.000 OA
ATOM     29  C   UNL     1      -3.562  12.507  24.085  0.00  0.00    +0.000 C 
ENDBRANCH  25  28
ENDBRANCH  21  22
ENDBRANCH   4  20
TORSDOF 9
ENDMDL
MODEL 5
REMARK VINA RESULT:      -7.2      1.730      3.064
REMARK  Name = 
REMARK  13 active torsions:
REMARK  status: ('A' for Active; 'I' for Inactive)
REMARK    1  A    between atoms: C_1  and  C_2
REMARK    2  A    between atoms: C_2  and  O_3
REMARK    3  A    between atoms: O_3  and  C_4
REMARK    4  A    between atoms: N_6  and  N_7
REMARK    5  A    between atoms: N_7  and  C_13
REMARK    6  A    between atoms: C_8  and  O_10
REMARK    7  A    between atoms: O_10  and  C_11
REMARK    8  A    between atoms: C_11  and  C_12
REMARK    9  A    between atoms: C_16  and  N_17
REMARK   10  A    between atoms: N_18  and  C_19
REMARK   11  A    between atoms: C_22  and  O_23
REMARK   12  A    between atoms: O_23  and  C_24
REMARK   13  A    between atoms: N_27  and  C_28
REMARK                            x       y       z     vdW  Elec       q    Type
REMARK                         _______ _______ _______ _____ _____    ______ ____
ROOT
ATOM      1  C   UNL     1       2.740   6.411  18.449  0.00  0.00    +0.000 A 
ATOM      2  C   UNL     1       3.049   7.387  17.525  0.00  0.00    +0.000 A 
ATOM      3  C   UNL     1       2.465   8.589  17.983  0.00  0.00    +0.000 A 
ATOM      4  C   UNL     1       1.828   8.345  19.194  0.00  0.00    +0.000 A 
ATOM      5  N   UNL     1       2.021   7.002  19.469  0.00  0.00    +0.000 N 
ATOM      6  C   UNL     1       1.689   6.347  20.714  0.00  0.00    +0.000 C 
ENDROOT
BRANCH   1   7
ATOM      7  N   UNL     1       3.176   5.079  18.363  0.00  0.00    +0.000 N 
ATOM      8  C   UNL     1       2.244   4.106  17.811  0.00  0.00    +0.000 C 
ATOM      9  O   UNL     1       1.140   4.437  17.411  0.00  0.00    +0.000 OA
BRANCH   7  12
ATOM     10  C   UNL     1       5.469   4.638  17.810  0.00  0.00    +0.000 C 
ATOM     11  O   UNL     1       5.427   4.920  16.621  0.00  0.00    +0.000 OA
ATOM     12  N   UNL     1       4.423   4.713  18.706  0.00  0.00    +0.000 N 
ATOM     13  H   UNL     1       4.663   4.685  19.692  0.00  0.00    +0.000 HD
BRANCH  10  14
ATOM     14  O   UNL     1       6.582   4.191  18.450  0.00  0.00    +0.000 OA
BRANCH  14  16
ATOM     15  C   UNL     1       7.858   6.186  18.826  0.00  0.00    +0.000 C 
ATOM     16  C   UNL     1       7.801   4.864  18.081  0.00  0.00    +0.000 C 
ENDBRANCH  14  16
ENDBRANCH  10  14
ENDBRANCH   7  12
BRANCH   8  17
ATOM     17  O   UNL     1       2.722   2.834  17.875  0.00  0.00    +0.000 OA
BRANCH  17  18
ATOM     18  C   UNL     1       1.970   1.942  18.715  0.00  0.00    +0.000 C 
ATOM     19  C   UNL     1       1.787   2.502  20.111  0.00  0.00    +0.000 C 
ENDBRANCH  17  18
ENDBRANCH   8  17
ENDBRANCH   1   7
BRANCH   4  20
ATOM     20  N   UNL     1       1.144   9.161  20.047  0.00  0.00    +0.000 NA
ATOM     21  N   UNL     1       0.235   9.815  19.495  0.00  0.00    +0.000 NA
BRANCH  21  22
ATOM     22  C   UNL     1      -0.487  10.673  20.350  0.00  0.00    +0.000 A 
ATOM     23  C   UNL     1      -0.213  10.587  21.722  0.00  0.00    +0.000 A 
ATOM     24  C   UNL     1      -0.828  11.442  22.640  0.00  0.00    +0.000 A 
ATOM     25  C   UNL     1      -1.711  12.428  22.202  0.00  0.00    +0.000 A 
ATOM     26  C   UNL     1      -2.004  12.522  20.842  0.00  0.00    +0.000 A 
ATOM     27  C   UNL     1      -1.395  11.647  19.922  0.00  0.00    +0.000 A 
BRANCH  25  28
ATOM     28  O   UNL     1      -2.244  13.210  23.186  0.00  0.00    +0.000 OA
ATOM     29  C   UNL     1      -1.372  14.158  23.774  0.00  0.00    +0.000 C 
ENDBRANCH  25  28
ENDBRANCH  21  22
ENDBRANCH   4  20
TORSDOF 9
ENDMDL
MODEL 6
REMARK VINA RESULT:      -7.0      5.890      7.251
REMARK  Name = 
REMARK  13 active torsions:
REMARK  status: ('A' for Active; 'I' for Inactive)
REMARK    1  A    between atoms: C_1  and  C_2
REMARK    2  A    between atoms: C_2  and  O_3
REMARK    3  A    between atoms: O_3  and  C_4
REMARK    4  A    between atoms: N_6  and  N_7
REMARK    5  A    between atoms: N_7  and  C_13
REMARK    6  A    between atoms: C_8  and  O_10
REMARK    7  A    between atoms: O_10  and  C_11
REMARK    8  A    between atoms: C_11  and  C_12
REMARK    9  A    between atoms: C_16  and  N_17
REMARK   10  A    between atoms: N_18  and  C_19
REMARK   11  A    between atoms: C_22  and  O_23
REMARK   12  A    between atoms: O_23  and  C_24
REMARK   13  A    between atoms: N_27  and  C_28
REMARK                            x       y       z     vdW  Elec       q    Type
REMARK                         _______ _______ _______ _____ _____    ______ ____
ROOT
ATOM      1  C   UNL     1       6.943   5.229  17.049  0.00  0.00    +0.000 A 
ATOM      2  C   UNL     1       7.716   4.858  18.131  0.00  0.00    +0.000 A 
ATOM      3  C   UNL     1       8.172   6.049  18.740  0.00  0.00    +0.000 A 
ATOM      4  C   UNL     1       7.655   7.135  18.044  0.00  0.00    +0.000 A 
ATOM      5  N   UNL     1       6.891   6.608  17.016  0.00  0.00    +0.000 N 
ATOM      6  C   UNL     1       6.019   7.367  16.149  0.00  0.00    +0.000 C 
ENDROOT
BRANCH   1   7
ATOM      7  N   UNL     1       6.280   4.322  16.208  0.00  0.00    +0.000 N 
ATOM      8  C   UNL     1       6.650   4.324  14.799  0.00  0.00    +0.000 C 
ATOM      9  O   UNL     1       7.523   5.062  14.371  0.00  0.00    +0.000 OA
BRANCH   7  12
ATOM     10  C   UNL     1       4.149   3.787  17.173  0.00  0.00    +0.000 C 
ATOM     11  O   UNL     1       3.682   4.915  17.221  0.00  0.00    +0.000 OA
ATOM     12  N   UNL     1       5.388   3.433  16.678  0.00  0.00    +0.000 N 
ATOM     13  H   UNL     1       5.537   2.449  16.479  0.00  0.00    +0.000 HD
BRANCH  10  14
ATOM     14  O   UNL     1       3.505   2.674  17.616  0.00  0.00    +0.000 OA
BRANCH  14  16
ATOM     15  C   UNL     1       1.912   2.140  19.326  0.00  0.00    +0.000 C 
ATOM     16  C   UNL     1       3.329   2.608  19.043  0.00  0.00    +0.000 C 
ENDBRANCH  14  16
ENDBRANCH  10  14
ENDBRANCH   7  12
BRANCH   8  17
ATOM     17  O   UNL     1       5.873   3.490  14.057  0.00  0.00    +0.000 OA
BRANCH  17  18
ATOM     18  C   UNL     1       6.162   3.482  12.649  0.00  0.00    +0.000 C 
ATOM     19  C   UNL     1       4.923   3.213  11.820  0.00  0.00    +0.000 C 
ENDBRANCH  17  18
ENDBRANCH   8  17
ENDBRANCH   1   7
BRANCH   4  20
ATOM     20  N   UNL     1       7.771   8.481  18.235  0.00  0.00    +0.000 NA
ATOM     21  N   UNL     1       8.864   8.825  18.729  0.00  0.00    +0.000 NA
BRANCH  21  22
ATOM     22  C   UNL     1       9.012  10.210  18.944  0.00  0.00    +0.000 A 
ATOM     23  C   UNL     1       9.470  10.617  20.205  0.00  0.00    +0.000 A 
ATOM     24  C   UNL     1       9.713  11.963  20.490  0.00  0.00    +0.000 A 
ATOM     25  C   UNL     1       9.533  12.935  19.507  0.00  0.00    +0.000 A 
ATOM     26  C   UNL     1       9.068  12.551  18.249  0.00  0.00    +0.000 A 
ATOM     27  C   UNL     1       8.809  11.196  17.971  0.00  0.00    +0.000 A 
BRANCH  25  28
ATOM     28  O   UNL     1       9.809  14.214  19.897  0.00  0.00    +0.000 OA
ATOM     29  C   UNL     1       9.454  14.553  21.225  0.00  0.00    +0.000 C 
ENDBRANCH  25  28
ENDBRANCH  21  22
ENDBRANCH   4  20
TORSDOF 9
ENDMDL
MODEL 7
REMARK VINA RESULT:      -7.0      5.470      7.498
REMARK  Name = 
REMARK  13 active torsions:
REMARK  status: ('A' for Active; 'I' for Inactive)
REMARK    1  A    between atoms: C_1  and  C_2
REMARK    2  A    between atoms: C_2  and  O_3
REMARK    3  A    between atoms: O_3  and  C_4
REMARK    4  A    between atoms: N_6  and  N_7
REMARK    5  A    between atoms: N_7  and  C_13
REMARK    6  A    between atoms: C_8  and  O_10
REMARK    7  A    between atoms: O_10  and  C_11
REMARK    8  A    between atoms: C_11  and  C_12
REMARK    9  A    between atoms: C_16  and  N_17
REMARK   10  A    between atoms: N_18  and  C_19
REMARK   11  A    between atoms: C_22  and  O_23
REMARK   12  A    between atoms: O_23  and  C_24
REMARK   13  A    between atoms: N_27  and  C_28
REMARK                            x       y       z     vdW  Elec       q    Type
REMARK                         _______ _______ _______ _____ _____    ______ ____
ROOT
ATOM      1  C   UNL     1       6.593   5.433  17.670  0.00  0.00    +0.000 A 
ATOM      2  C   UNL     1       7.586   5.125  18.577  0.00  0.00    +0.000 A 
ATOM      3  C   UNL     1       8.291   6.320  18.839  0.00  0.00    +0.000 A 
ATOM      4  C   UNL     1       7.709   7.353  18.113  0.00  0.00    +0.000 A 
ATOM      5  N   UNL     1       6.658   6.787  17.411  0.00  0.00    +0.000 N 
ATOM      6  C   UNL     1       5.660   7.520  16.665  0.00  0.00    +0.000 C 
ENDROOT
BRANCH   1   7
ATOM      7  N   UNL     1       5.654   4.508  17.187  0.00  0.00    +0.000 N 
ATOM      8  C   UNL     1       4.363   4.454  17.860  0.00  0.00    +0.000 C 
ATOM      9  O   UNL     1       4.096   5.203  18.786  0.00  0.00    +0.000 OA
BRANCH   7  12
ATOM     10  C   UNL     1       5.988   4.249  14.825  0.00  0.00    +0.000 C 
ATOM     11  O   UNL     1       5.909   5.424  14.499  0.00  0.00    +0.000 OA
ATOM     12  N   UNL     1       5.893   3.746  16.106  0.00  0.00    +0.000 N 
ATOM     13  H   UNL     1       6.219   2.795  16.250  0.00  0.00    +0.000 HD
BRANCH  10  14
ATOM     14  O   UNL     1       6.184   3.225  13.951  0.00  0.00    +0.000 OA
BRANCH  14  16
ATOM     15  C   UNL     1       5.057   3.192  11.835  0.00  0.00    +0.000 C 
ATOM     16  C   UNL     1       6.311   3.626  12.573  0.00  0.00    +0.000 C 
ENDBRANCH  14  16
ENDBRANCH  10  14
ENDBRANCH   7  12
BRANCH   8  17
ATOM     17  O   UNL     1       3.572   3.453  17.387  0.00  0.00    +0.000 OA
BRANCH  17  18
ATOM     18  C   UNL     1       2.822   2.746  18.388  0.00  0.00    +0.000 C 
ATOM     19  C   UNL     1       1.356   3.128  18.369  0.00  0.00    +0.000 C 
ENDBRANCH  17  18
ENDBRANCH   8  17
ENDBRANCH   1   7
BRANCH   4  20
ATOM     20  N   UNL     1       7.992   8.685  18.033  0.00  0.00    +0.000 NA
ATOM     21  N   UNL     1       8.849   9.067  18.857  0.00  0.00    +0.000 NA
BRANCH  21  22
ATOM     22  C   UNL     1       9.158  10.441  18.803  0.00  0.00    +0.000 A 
ATOM     23  C   UNL     1       8.535  11.198  17.801  0.00  0.00    +0.000 A 
ATOM     24  C   UNL     1       8.727  12.579  17.709  0.00  0.00    +0.000 A 
ATOM     25  C   UNL     1       9.522  13.243  18.642  0.00  0.00    +0.000 A 
ATOM     26  C   UNL     1      10.159  12.506  19.640  0.00  0.00    +0.000 A 
ATOM     27  C   UNL     1       9.977  11.112  19.718  0.00  0.00    +0.000 A 
BRANCH  25  28
ATOM     28  O   UNL     1       9.630  14.592  18.459  0.00  0.00    +0.000 OA
ATOM     29  C   UNL     1      10.794  15.042  17.790  0.00  0.00    +0.000 C 
ENDBRANCH  25  28
ENDBRANCH  21  22
ENDBRANCH   4  20
TORSDOF 9
ENDMDL
MODEL 8
REMARK VINA RESULT:      -6.9      5.284      7.735
REMARK  Name = 
REMARK  13 active torsions:
REMARK  status: ('A' for Active; 'I' for Inactive)
REMARK    1  A    between atoms: C_1  and  C_2
REMARK    2  A    between atoms: C_2  and  O_3
REMARK    3  A    between atoms: O_3  and  C_4
REMARK    4  A    between atoms: N_6  and  N_7
REMARK    5  A    between atoms: N_7  and  C_13
REMARK    6  A    between atoms: C_8  and  O_10
REMARK    7  A    between atoms: O_10  and  C_11
REMARK    8  A    between atoms: C_11  and  C_12
REMARK    9  A    between atoms: C_16  and  N_17
REMARK   10  A    between atoms: N_18  and  C_19
REMARK   11  A    between atoms: C_22  and  O_23
REMARK   12  A    between atoms: O_23  and  C_24
REMARK   13  A    between atoms: N_27  and  C_28
REMARK                            x       y       z     vdW  Elec       q    Type
REMARK                         _______ _______ _______ _____ _____    ______ ____
ROOT
ATOM      1  C   UNL     1       6.794   5.573  18.020  0.00  0.00    +0.000 A 
ATOM      2  C   UNL     1       7.772   5.374  18.973  0.00  0.00    +0.000 A 
ATOM      3  C   UNL     1       8.472   6.594  19.107  0.00  0.00    +0.000 A 
ATOM      4  C   UNL     1       7.901   7.534  18.259  0.00  0.00    +0.000 A 
ATOM      5  N   UNL     1       6.862   6.889  17.609  0.00  0.00    +0.000 N 
ATOM      6  C   UNL     1       5.876   7.529  16.768  0.00  0.00    +0.000 C 
ENDROOT
BRANCH   1   7
ATOM      7  N   UNL     1       5.863   4.597  17.632  0.00  0.00    +0.000 N 
ATOM      8  C   UNL     1       4.652   4.473  18.431  0.00  0.00    +0.000 C 
ATOM      9  O   UNL     1       4.439   5.208  19.382  0.00  0.00    +0.000 OA
BRANCH   7  12
ATOM     10  C   UNL     1       5.676   4.260  15.263  0.00  0.00    +0.000 C 
ATOM     11  O   UNL     1       5.202   5.345  14.961  0.00  0.00    +0.000 OA
ATOM     12  N   UNL     1       6.034   3.846  16.530  0.00  0.00    +0.000 N 
ATOM     13  H   UNL     1       6.633   3.028  16.592  0.00  0.00    +0.000 HD
BRANCH  10  14
ATOM     14  O   UNL     1       5.927   3.262  14.374  0.00  0.00    +0.000 OA
BRANCH  14  16
ATOM     15  C   UNL     1       5.412   3.136  12.035  0.00  0.00    +0.000 C 
ATOM     16  C   UNL     1       6.361   3.708  13.075  0.00  0.00    +0.000 C 
ENDBRANCH  14  16
ENDBRANCH  10  14
ENDBRANCH   7  12
BRANCH   8  17
ATOM     17  O   UNL     1       3.874   3.429  18.037  0.00  0.00    +0.000 OA
BRANCH  17  18
ATOM     18  C   UNL     1       2.536   3.435  18.562  0.00  0.00    +0.000 C 
ATOM     19  C   UNL     1       1.582   4.198  17.665  0.00  0.00    +0.000 C 
ENDBRANCH  17  18
ENDBRANCH   8  17
ENDBRANCH   1   7
BRANCH   4  20
ATOM     20  N   UNL     1       8.184   8.849  18.030  0.00  0.00    +0.000 NA
ATOM     21  N   UNL     1       8.950   9.352  18.878  0.00  0.00    +0.000 NA
BRANCH  21  22
ATOM     22  C   UNL     1       9.257  10.713  18.673  0.00  0.00    +0.000 A 
ATOM     23  C   UNL     1      10.458  11.187  19.216  0.00  0.00    +0.000 A 
ATOM     24  C   UNL     1      10.880  12.503  19.008  0.00  0.00    +0.000 A 
ATOM     25  C   UNL     1      10.123  13.369  18.222  0.00  0.00    +0.000 A 
ATOM     26  C   UNL     1       8.919  12.919  17.680  0.00  0.00    +0.000 A 
ATOM     27  C   UNL     1       8.489  11.598  17.907  0.00  0.00    +0.000 A 
BRANCH  25  28
ATOM     28  O   UNL     1      10.637  14.626  18.081  0.00  0.00    +0.000 OA
ATOM     29  C   UNL     1      11.767  14.933  18.878  0.00  0.00    +0.000 C 
ENDBRANCH  25  28
ENDBRANCH  21  22
ENDBRANCH   4  20
TORSDOF 9
ENDMDL
MODEL 9
REMARK VINA RESULT:      -6.9      5.668      7.520
REMARK  Name = 
REMARK  13 active torsions:
REMARK  status: ('A' for Active; 'I' for Inactive)
REMARK    1  A    between atoms: C_1  and  C_2
REMARK    2  A    between atoms: C_2  and  O_3
REMARK    3  A    between atoms: O_3  and  C_4
REMARK    4  A    between atoms: N_6  and  N_7
REMARK    5  A    between atoms: N_7  and  C_13
REMARK    6  A    between atoms: C_8  and  O_10
REMARK    7  A    between atoms: O_10  and  C_11
REMARK    8  A    between atoms: C_11  and  C_12
REMARK    9  A    between atoms: C_16  and  N_17
REMARK   10  A    between atoms: N_18  and  C_19
REMARK   11  A    between atoms: C_22  and  O_23
REMARK   12  A    between atoms: O_23  and  C_24
REMARK   13  A    between atoms: N_27  and  C_28
REMARK                            x       y       z     vdW  Elec       q    Type
REMARK                         _______ _______ _______ _____ _____    ______ ____
ROOT
ATOM      1  C   UNL     1       6.590   5.360  17.665  0.00  0.00    +0.000 A 
ATOM      2  C   UNL     1       7.482   4.998  18.655  0.00  0.00    +0.000 A 
ATOM      3  C   UNL     1       8.226   6.153  18.982  0.00  0.00    +0.000 A 
ATOM      4  C   UNL     1       7.769   7.215  18.211  0.00  0.00    +0.000 A 
ATOM      5  N   UNL     1       6.753   6.709  17.418  0.00  0.00    +0.000 N 
ATOM      6  C   UNL     1       5.866   7.495  16.590  0.00  0.00    +0.000 C 
ENDROOT
BRANCH   1   7
ATOM      7  N   UNL     1       5.646   4.489  17.099  0.00  0.00    +0.000 N 
ATOM      8  C   UNL     1       4.309   4.487  17.677  0.00  0.00    +0.000 C 
ATOM      9  O   UNL     1       4.010   5.233  18.594  0.00  0.00    +0.000 OA
BRANCH   7  12
ATOM     10  C   UNL     1       5.872   4.199  14.728  0.00  0.00    +0.000 C 
ATOM     11  O   UNL     1       5.604   5.339  14.379  0.00  0.00    +0.000 OA
ATOM     12  N   UNL     1       5.928   3.732  16.025  0.00  0.00    +0.000 N 
ATOM     13  H   UNL     1       6.396   2.843  16.171  0.00  0.00    +0.000 HD
BRANCH  10  14
ATOM     14  O   UNL     1       6.161   3.185  13.869  0.00  0.00    +0.000 OA
BRANCH  14  16
ATOM     15  C   UNL     1       5.321   2.756  11.665  0.00  0.00    +0.000 C 
ATOM     16  C   UNL     1       6.292   3.582  12.491  0.00  0.00    +0.000 C 
ENDBRANCH  14  16
ENDBRANCH  10  14
ENDBRANCH   7  12
BRANCH   8  17
ATOM     17  O   UNL     1       3.509   3.532  17.130  0.00  0.00    +0.000 OA
BRANCH  17  18
ATOM     18  C   UNL     1       2.797   2.719  18.078  0.00  0.00    +0.000 C 
ATOM     19  C   UNL     1       3.557   1.453  18.417  0.00  0.00    +0.000 C 
ENDBRANCH  17  18
ENDBRANCH   8  17
ENDBRANCH   1   7
BRANCH   4  20
ATOM     20  N   UNL     1       8.131   8.530  18.160  0.00  0.00    +0.000 NA
ATOM     21  N   UNL     1       8.853   8.889  19.114  0.00  0.00    +0.000 NA
BRANCH  21  22
ATOM     22  C   UNL     1       9.239  10.244  19.093  0.00  0.00    +0.000 A 
ATOM     23  C   UNL     1       9.517  10.849  20.326  0.00  0.00    +0.000 A 
ATOM     24  C   UNL     1       9.971  12.169  20.402  0.00  0.00    +0.000 A 
ATOM     25  C   UNL     1      10.191  12.905  19.239  0.00  0.00    +0.000 A 
ATOM     26  C   UNL     1       9.911  12.324  18.003  0.00  0.00    +0.000 A 
ATOM     27  C   UNL     1       9.436  11.001  17.932  0.00  0.00    +0.000 A 
BRANCH  25  28
ATOM     28  O   UNL     1      10.644  14.178  19.434  0.00  0.00    +0.000 OA
ATOM     29  C   UNL     1       9.826  15.018  20.230  0.00  0.00    +0.000 C 
ENDBRANCH  25  28
ENDBRANCH  21  22
ENDBRANCH   4  20
TORSDOF 9
ENDMDL
