MODEL 1
REMARK VINA RESULT:      -7.6      0.000      0.000
REMARK  Name = 
REMARK  1 active torsions:
REMARK  status: ('A' for Active; 'I' for Inactive)
REMARK    1  A    between atoms: N_3  and  C_4
REMARK                            x       y       z     vdW  Elec       q    Type
REMARK                         _______ _______ _______ _____ _____    ______ ____
ROOT
ATOM      1  O   UNL     1       5.682   3.793  19.241  0.00  0.00    +0.000 OA
ATOM      2  C   UNL     1       4.697   3.388  18.629  0.00  0.00    +0.000 C 
ATOM      3  N   UNL     1       4.519   3.531  17.269  0.00  0.00    +0.000 N 
ATOM      4  N   UNL     1       3.650   2.742  19.296  0.00  0.00    +0.000 N 
ATOM      5  C   UNL     1       2.518   2.072  18.659  0.00  0.00    +0.000 C 
ATOM      6  C   UNL     1       1.307   2.999  18.587  0.00  0.00    +0.000 C 
ATOM      7  C   UNL     1       0.574   3.170  19.918  0.00  0.00    +0.000 C 
ATOM      8  C   UNL     1       1.440   3.626  21.094  0.00  0.00    +0.000 C 
ATOM      9  C   UNL     1       2.459   2.572  21.528  0.00  0.00    +0.000 C 
ATOM     10  C   UNL     1       3.773   2.633  20.749  0.00  0.00    +0.000 C 
ATOM     11  H   UNL     1       3.581   3.413  16.928  0.00  0.00    +0.000 HD
ENDROOT
BRANCH   3  12
ATOM     12  C   UNL     1       5.447   4.037  16.332  0.00  0.00    +0.000 A 
ATOM     13  C   UNL     1       6.374   5.043  16.618  0.00  0.00    +0.000 A 
ATOM     14  C   UNL     1       7.243   5.514  15.628  0.00  0.00    +0.000 A 
ATOM     15  C   UNL     1       7.192   4.965  14.354  0.00  0.00    +0.000 A 
ATOM     16  F   UNL     1       8.016   5.423  13.403  0.00  0.00    +0.000 F 
ATOM     17  C   UNL     1       6.299   3.945  14.055  0.00  0.00    +0.000 A 
ATOM     18  C   UNL     1       5.428   3.479  15.045  0.00  0.00    +0.000 A 
ENDBRANCH   3  12
TORSDOF 1
ENDMDL
MODEL 2
REMARK VINA RESULT:      -7.4      1.475      1.764
REMARK  Name = 
REMARK  1 active torsions:
REMARK  status: ('A' for Active; 'I' for Inactive)
REMARK    1  A    between atoms: N_3  and  C_4
REMARK                            x       y       z     vdW  Elec       q    Type
REMARK                         _______ _______ _______ _____ _____    ______ ____
ROOT
ATOM      1  O   UNL     1       4.001   6.161  17.437  0.00  0.00    +0.000 OA
ATOM      2  C   UNL     1       4.200   5.013  17.827  0.00  0.00    +0.000 C 
ATOM      3  N   UNL     1       4.933   4.076  17.130  0.00  0.00    +0.000 N 
ATOM      4  N   UNL     1       3.669   4.563  19.041  0.00  0.00    +0.000 N 
ATOM      5  C   UNL     1       3.975   3.286  19.684  0.00  0.00    +0.000 C 
ATOM      6  C   UNL     1       2.919   2.238  19.344  0.00  0.00    +0.000 C 
ATOM      7  C   UNL     1       1.603   2.410  20.105  0.00  0.00    +0.000 C 
ATOM      8  C   UNL     1       0.948   3.787  19.987  0.00  0.00    +0.000 C 
ATOM      9  C   UNL     1       1.754   4.892  20.669  0.00  0.00    +0.000 C 
ATOM     10  C   UNL     1       2.830   5.508  19.775  0.00  0.00    +0.000 C 
ATOM     11  H   UNL     1       4.802   3.117  17.401  0.00  0.00    +0.000 HD
ENDROOT
BRANCH   3  12
ATOM     12  C   UNL     1       5.671   4.276  15.942  0.00  0.00    +0.000 A 
ATOM     13  C   UNL     1       6.896   4.947  15.889  0.00  0.00    +0.000 A 
ATOM     14  C   UNL     1       7.555   5.132  14.670  0.00  0.00    +0.000 A 
ATOM     15  C   UNL     1       6.993   4.631  13.504  0.00  0.00    +0.000 A 
ATOM     16  F   UNL     1       7.619   4.816  12.335  0.00  0.00    +0.000 F 
ATOM     17  C   UNL     1       5.791   3.936  13.537  0.00  0.00    +0.000 A 
ATOM     18  C   UNL     1       5.131   3.757  14.756  0.00  0.00    +0.000 A 
ENDBRANCH   3  12
TORSDOF 1
ENDMDL
MODEL 3
REMARK VINA RESULT:      -7.3      0.193      1.184
REMARK  Name = 
REMARK  1 active torsions:
REMARK  status: ('A' for Active; 'I' for Inactive)
REMARK    1  A    between atoms: N_3  and  C_4
REMARK                            x       y       z     vdW  Elec       q    Type
REMARK                         _______ _______ _______ _____ _____    ______ ____
ROOT
ATOM      1  O   UNL     1       5.631   3.733  19.015  0.00  0.00    +0.000 OA
ATOM      2  C   UNL     1       4.599   3.384  18.447  0.00  0.00    +0.000 C 
ATOM      3  N   UNL     1       4.365   3.550  17.098  0.00  0.00    +0.000 N 
ATOM      4  N   UNL     1       3.553   2.786  19.158  0.00  0.00    +0.000 N 
ATOM      5  C   UNL     1       2.359   2.182  18.570  0.00  0.00    +0.000 C 
ATOM      6  C   UNL     1       1.196   3.170  18.563  0.00  0.00    +0.000 C 
ATOM      7  C   UNL     1       0.536   3.365  19.928  0.00  0.00    +0.000 C 
ATOM      8  C   UNL     1       1.478   3.762  21.065  0.00  0.00    +0.000 C 
ATOM      9  C   UNL     1       2.461   2.654  21.442  0.00  0.00    +0.000 C 
ATOM     10  C   UNL     1       3.738   2.655  20.602  0.00  0.00    +0.000 C 
ATOM     11  H   UNL     1       3.408   3.484  16.801  0.00  0.00    +0.000 HD
ENDROOT
BRANCH   3  12
ATOM     12  C   UNL     1       5.273   4.019  16.122  0.00  0.00    +0.000 A 
ATOM     13  C   UNL     1       5.332   3.531  14.814  0.00  0.00    +0.000 A 
ATOM     14  C   UNL     1       6.279   4.025  13.911  0.00  0.00    +0.000 A 
ATOM     15  C   UNL     1       7.159   5.019  14.317  0.00  0.00    +0.000 A 
ATOM     16  F   UNL     1       8.074   5.485  13.456  0.00  0.00    +0.000 F 
ATOM     17  C   UNL     1       7.101   5.538  15.604  0.00  0.00    +0.000 A 
ATOM     18  C   UNL     1       6.156   5.039  16.505  0.00  0.00    +0.000 A 
ENDBRANCH   3  12
TORSDOF 1
ENDMDL
MODEL 4
REMARK VINA RESULT:      -7.3      1.445      2.045
REMARK  Name = 
REMARK  1 active torsions:
REMARK  status: ('A' for Active; 'I' for Inactive)
REMARK    1  A    between atoms: N_3  and  C_4
REMARK                            x       y       z     vdW  Elec       q    Type
REMARK                         _______ _______ _______ _____ _____    ______ ____
ROOT
ATOM      1  O   UNL     1       4.024   6.188  17.545  0.00  0.00    +0.000 OA
ATOM      2  C   UNL     1       4.177   5.018  17.887  0.00  0.00    +0.000 C 
ATOM      3  N   UNL     1       4.834   4.071  17.131  0.00  0.00    +0.000 N 
ATOM      4  N   UNL     1       3.666   4.552  19.103  0.00  0.00    +0.000 N 
ATOM      5  C   UNL     1       3.929   3.238  19.690  0.00  0.00    +0.000 C 
ATOM      6  C   UNL     1       2.808   2.258  19.354  0.00  0.00    +0.000 C 
ATOM      7  C   UNL     1       1.531   2.469  20.169  0.00  0.00    +0.000 C 
ATOM      8  C   UNL     1       0.945   3.881  20.123  0.00  0.00    +0.000 C 
ATOM      9  C   UNL     1       1.830   4.918  20.813  0.00  0.00    +0.000 C 
ATOM     10  C   UNL     1       2.904   5.511  19.901  0.00  0.00    +0.000 C 
ATOM     11  H   UNL     1       4.664   3.111  17.373  0.00  0.00    +0.000 HD
ENDROOT
BRANCH   3  12
ATOM     12  C   UNL     1       5.540   4.277  15.924  0.00  0.00    +0.000 A 
ATOM     13  C   UNL     1       5.101   3.824  14.677  0.00  0.00    +0.000 A 
ATOM     14  C   UNL     1       5.870   4.041  13.529  0.00  0.00    +0.000 A 
ATOM     15  C   UNL     1       7.073   4.726  13.630  0.00  0.00    +0.000 A 
ATOM     16  F   UNL     1       7.815   4.925  12.532  0.00  0.00    +0.000 F 
ATOM     17  C   UNL     1       7.515   5.210  14.854  0.00  0.00    +0.000 A 
ATOM     18  C   UNL     1       6.747   4.988  16.000  0.00  0.00    +0.000 A 
ENDBRANCH   3  12
TORSDOF 1
ENDMDL
MODEL 5
REMARK VINA RESULT:      -7.1      2.657      3.068
REMARK  Name = 
REMARK  1 active torsions:
REMARK  status: ('A' for Active; 'I' for Inactive)
REMARK    1  A    between atoms: N_3  and  C_4
REMARK                            x       y       z     vdW  Elec       q    Type
REMARK                         _______ _______ _______ _____ _____    ______ ____
ROOT
ATOM      1  O   UNL     1       3.421   6.137  19.907  0.00  0.00    +0.000 OA
ATOM      2  C   UNL     1       3.832   5.014  19.625  0.00  0.00    +0.000 C 
ATOM      3  N   UNL     1       4.999   4.768  18.935  0.00  0.00    +0.000 N 
ATOM      4  N   UNL     1       3.110   3.872  19.990  0.00  0.00    +0.000 N 
ATOM      5  C   UNL     1       3.576   2.492  19.862  0.00  0.00    +0.000 C 
ATOM      6  C   UNL     1       3.060   1.862  18.570  0.00  0.00    +0.000 C 
ATOM      7  C   UNL     1       1.587   1.456  18.620  0.00  0.00    +0.000 C 
ATOM      8  C   UNL     1       0.611   2.564  19.019  0.00  0.00    +0.000 C 
ATOM      9  C   UNL     1       0.775   3.009  20.472  0.00  0.00    +0.000 C 
ATOM     10  C   UNL     1       1.832   4.096  20.664  0.00  0.00    +0.000 C 
ATOM     11  H   UNL     1       5.093   3.852  18.530  0.00  0.00    +0.000 HD
ENDROOT
BRANCH   3  12
ATOM     12  C   UNL     1       5.976   5.709  18.540  0.00  0.00    +0.000 A 
ATOM     13  C   UNL     1       7.236   5.821  19.133  0.00  0.00    +0.000 A 
ATOM     14  C   UNL     1       8.140   6.799  18.706  0.00  0.00    +0.000 A 
ATOM     15  C   UNL     1       7.786   7.655  17.673  0.00  0.00    +0.000 A 
ATOM     16  F   UNL     1       8.647   8.599  17.271  0.00  0.00    +0.000 F 
ATOM     17  C   UNL     1       6.550   7.544  17.050  0.00  0.00    +0.000 A 
ATOM     18  C   UNL     1       5.646   6.569  17.481  0.00  0.00    +0.000 A 
ENDBRANCH   3  12
TORSDOF 1
ENDMDL
MODEL 6
REMARK VINA RESULT:      -6.8      1.314      1.644
REMARK  Name = 
REMARK  1 active torsions:
REMARK  status: ('A' for Active; 'I' for Inactive)
REMARK    1  A    between atoms: N_3  and  C_4
REMARK                            x       y       z     vdW  Elec       q    Type
REMARK                         _______ _______ _______ _____ _____    ______ ____
ROOT
ATOM      1  O   UNL     1       4.204   2.144  17.456  0.00  0.00    +0.000 OA
ATOM      2  C   UNL     1       3.693   3.249  17.620  0.00  0.00    +0.000 C 
ATOM      3  N   UNL     1       4.143   4.405  17.018  0.00  0.00    +0.000 N 
ATOM      4  N   UNL     1       2.591   3.414  18.466  0.00  0.00    +0.000 N 
ATOM      5  C   UNL     1       1.801   4.636  18.607  0.00  0.00    +0.000 C 
ATOM      6  C   UNL     1       2.279   5.458  19.802  0.00  0.00    +0.000 C 
ATOM      7  C   UNL     1       1.833   4.905  21.156  0.00  0.00    +0.000 C 
ATOM      8  C   UNL     1       2.195   3.443  21.422  0.00  0.00    +0.000 C 
ATOM      9  C   UNL     1       1.443   2.467  20.518  0.00  0.00    +0.000 C 
ATOM     10  C   UNL     1       2.129   2.222  19.175  0.00  0.00    +0.000 C 
ATOM     11  H   UNL     1       3.834   5.270  17.426  0.00  0.00    +0.000 HD
ENDROOT
BRANCH   3  12
ATOM     12  C   UNL     1       5.156   4.524  16.040  0.00  0.00    +0.000 A 
ATOM     13  C   UNL     1       6.436   5.021  16.300  0.00  0.00    +0.000 A 
ATOM     14  C   UNL     1       7.378   5.136  15.272  0.00  0.00    +0.000 A 
ATOM     15  C   UNL     1       7.040   4.739  13.986  0.00  0.00    +0.000 A 
ATOM     16  F   UNL     1       7.938   4.859  12.999  0.00  0.00    +0.000 F 
ATOM     17  C   UNL     1       5.784   4.216  13.710  0.00  0.00    +0.000 A 
ATOM     18  C   UNL     1       4.843   4.107  14.738  0.00  0.00    +0.000 A 
ENDBRANCH   3  12
TORSDOF 1
ENDMDL
MODEL 7
REMARK VINA RESULT:      -6.8      2.704      3.178
REMARK  Name = 
REMARK  1 active torsions:
REMARK  status: ('A' for Active; 'I' for Inactive)
REMARK    1  A    between atoms: N_3  and  C_4
REMARK                            x       y       z     vdW  Elec       q    Type
REMARK                         _______ _______ _______ _____ _____    ______ ____
ROOT
ATOM      1  O   UNL     1       3.288   6.195  19.837  0.00  0.00    +0.000 OA
ATOM      2  C   UNL     1       3.733   5.085  19.559  0.00  0.00    +0.000 C 
ATOM      3  N   UNL     1       4.892   4.874  18.843  0.00  0.00    +0.000 N 
ATOM      4  N   UNL     1       3.064   3.921  19.955  0.00  0.00    +0.000 N 
ATOM      5  C   UNL     1       3.579   2.558  19.831  0.00  0.00    +0.000 C 
ATOM      6  C   UNL     1       3.057   1.893  18.560  0.00  0.00    +0.000 C 
ATOM      7  C   UNL     1       1.601   1.433  18.651  0.00  0.00    +0.000 C 
ATOM      8  C   UNL     1       0.594   2.508  19.061  0.00  0.00    +0.000 C 
ATOM      9  C   UNL     1       0.776   2.978  20.504  0.00  0.00    +0.000 C 
ATOM     10  C   UNL     1       1.795   4.106  20.657  0.00  0.00    +0.000 C 
ATOM     11  H   UNL     1       5.011   3.958  18.447  0.00  0.00    +0.000 HD
ENDROOT
BRANCH   3  12
ATOM     12  C   UNL     1       5.823   5.846  18.413  0.00  0.00    +0.000 A 
ATOM     13  C   UNL     1       5.563   6.787  17.413  0.00  0.00    +0.000 A 
ATOM     14  C   UNL     1       6.546   7.701  17.021  0.00  0.00    +0.000 A 
ATOM     15  C   UNL     1       7.787   7.681  17.643  0.00  0.00    +0.000 A 
ATOM     16  F   UNL     1       8.732   8.549  17.260  0.00  0.00    +0.000 F 
ATOM     17  C   UNL     1       8.058   6.774  18.659  0.00  0.00    +0.000 A 
ATOM     18  C   UNL     1       7.075   5.859  19.046  0.00  0.00    +0.000 A 
ENDBRANCH   3  12
TORSDOF 1
ENDMDL
MODEL 8
REMARK VINA RESULT:      -6.7      5.179      7.070
REMARK  Name = 
REMARK  1 active torsions:
REMARK  status: ('A' for Active; 'I' for Inactive)
REMARK    1  A    between atoms: N_3  and  C_4
REMARK                            x       y       z     vdW  Elec       q    Type
REMARK                         _______ _______ _______ _____ _____    ______ ____
ROOT
ATOM      1  O   UNL     1       1.254   5.303  20.707  0.00  0.00    +0.000 OA
ATOM      2  C   UNL     1       2.251   5.780  20.171  0.00  0.00    +0.000 C 
ATOM      3  N   UNL     1       2.428   7.126  19.928  0.00  0.00    +0.000 N 
ATOM      4  N   UNL     1       3.301   4.960  19.746  0.00  0.00    +0.000 N 
ATOM      5  C   UNL     1       4.598   5.422  19.253  0.00  0.00    +0.000 C 
ATOM      6  C   UNL     1       4.614   5.476  17.728  0.00  0.00    +0.000 C 
ATOM      7  C   UNL     1       4.745   4.108  17.058  0.00  0.00    +0.000 C 
ATOM      8  C   UNL     1       3.706   3.066  17.476  0.00  0.00    +0.000 C 
ATOM      9  C   UNL     1       3.857   2.624  18.931  0.00  0.00    +0.000 C 
ATOM     10  C   UNL     1       3.118   3.521  19.925  0.00  0.00    +0.000 C 
ATOM     11  H   UNL     1       3.135   7.368  19.255  0.00  0.00    +0.000 HD
ENDROOT
BRANCH   3  12
ATOM     12  C   UNL     1       1.595   8.189  20.341  0.00  0.00    +0.000 A 
ATOM     13  C   UNL     1       1.163   8.375  21.657  0.00  0.00    +0.000 A 
ATOM     14  C   UNL     1       0.313   9.436  21.985  0.00  0.00    +0.000 A 
ATOM     15  C   UNL     1      -0.092  10.320  20.995  0.00  0.00    +0.000 A 
ATOM     16  F   UNL     1      -0.914  11.331  21.307  0.00  0.00    +0.000 F 
ATOM     17  C   UNL     1       0.347  10.172  19.686  0.00  0.00    +0.000 A 
ATOM     18  C   UNL     1       1.192   9.107  19.360  0.00  0.00    +0.000 A 
ENDBRANCH   3  12
TORSDOF 1
ENDMDL
MODEL 9
REMARK VINA RESULT:      -6.7      1.320      2.018
REMARK  Name = 
REMARK  1 active torsions:
REMARK  status: ('A' for Active; 'I' for Inactive)
REMARK    1  A    between atoms: N_3  and  C_4
REMARK                            x       y       z     vdW  Elec       q    Type
REMARK                         _______ _______ _______ _____ _____    ______ ____
ROOT
ATOM      1  O   UNL     1       4.100   2.147  17.459  0.00  0.00    +0.000 OA
ATOM      2  C   UNL     1       3.599   3.256  17.628  0.00  0.00    +0.000 C 
ATOM      3  N   UNL     1       4.037   4.405  17.004  0.00  0.00    +0.000 N 
ATOM      4  N   UNL     1       2.521   3.433  18.502  0.00  0.00    +0.000 N 
ATOM      5  C   UNL     1       1.740   4.660  18.654  0.00  0.00    +0.000 C 
ATOM      6  C   UNL     1       2.254   5.490  19.828  0.00  0.00    +0.000 C 
ATOM      7  C   UNL     1       1.843   4.950  21.199  0.00  0.00    +0.000 C 
ATOM      8  C   UNL     1       2.206   3.488  21.468  0.00  0.00    +0.000 C 
ATOM      9  C   UNL     1       1.425   2.509  20.592  0.00  0.00    +0.000 C 
ATOM     10  C   UNL     1       2.073   2.249  19.233  0.00  0.00    +0.000 C 
ATOM     11  H   UNL     1       3.742   5.274  17.413  0.00  0.00    +0.000 HD
ENDROOT
BRANCH   3  12
ATOM     12  C   UNL     1       5.023   4.511  15.998  0.00  0.00    +0.000 A 
ATOM     13  C   UNL     1       4.878   3.998  14.706  0.00  0.00    +0.000 A 
ATOM     14  C   UNL     1       5.912   4.117  13.772  0.00  0.00    +0.000 A 
ATOM     15  C   UNL     1       7.087   4.763  14.129  0.00  0.00    +0.000 A 
ATOM     16  F   UNL     1       8.082   4.868  13.238  0.00  0.00    +0.000 F 
ATOM     17  C   UNL     1       7.243   5.305  15.398  0.00  0.00    +0.000 A 
ATOM     18  C   UNL     1       6.210   5.181  16.331  0.00  0.00    +0.000 A 
ENDBRANCH   3  12
TORSDOF 1
ENDMDL
