MODEL 1
REMARK VINA RESULT:      -7.6      0.000      0.000
REMARK  Name = 
REMARK  4 active torsions:
REMARK  status: ('A' for Active; 'I' for Inactive)
REMARK    1  A    between atoms: C_1  and  N_2
REMARK    2  A    between atoms: C_3  and  C_4
REMARK    3  A    between atoms: C_14  and  C_15
REMARK    4  A    between atoms: C_20  and  C_21
REMARK                            x       y       z     vdW  Elec       q    Type
REMARK                         _______ _______ _______ _____ _____    ______ ____
ROOT
ATOM      1  C   UNL     1       1.766   5.988  20.870  0.00  0.00    +0.000 C 
ATOM      2  N   UNL     1       2.014   6.854  19.745  0.00  0.00    +0.000 N 
ATOM      3  C   UNL     1       1.701   8.204  19.651  0.00  0.00    +0.000 A 
ATOM      4  N   UNL     1       2.282   8.660  18.560  0.00  0.00    +0.000 NA
ATOM      5  N   UNL     1       2.919   7.634  17.928  0.00  0.00    +0.000 NA
ATOM      6  C   UNL     1       2.680   6.512  18.569  0.00  0.00    +0.000 A 
ENDROOT
BRANCH   3   7
ATOM      7  C   UNL     1       0.902   9.023  20.590  0.00  0.00    +0.000 A 
ATOM      8  C   UNL     1       1.059   8.870  21.984  0.00  0.00    +0.000 A 
ATOM      9  C   UNL     1       0.376   9.682  22.894  0.00  0.00    +0.000 A 
ATOM     10  C   UNL     1      -0.542  10.607  22.424  0.00  0.00    +0.000 A 
ATOM     11  F   UNL     1      -1.205  11.381  23.293  0.00  0.00    +0.000 F 
ATOM     12  C   UNL     1      -0.784  10.736  21.066  0.00  0.00    +0.000 A 
ATOM     13  C   UNL     1      -0.065   9.955  20.150  0.00  0.00    +0.000 A 
ATOM     14 CL   UNL     1      -0.422  10.241  18.480  0.00  0.00    +0.000 Cl
ENDBRANCH   3   7
BRANCH   6  15
ATOM     15  C   UNL     1       3.069   5.167  18.080  0.00  0.00    +0.000 A 
ATOM     16  C   UNL     1       2.077   4.225  17.729  0.00  0.00    +0.000 A 
ATOM     17  C   UNL     1       2.375   2.958  17.220  0.00  0.00    +0.000 A 
ATOM     18  C   UNL     1       3.691   2.561  17.093  0.00  0.00    +0.000 A 
ATOM     19  C   UNL     1       4.698   3.440  17.475  0.00  0.00    +0.000 A 
ATOM     20  C   UNL     1       4.420   4.748  17.961  0.00  0.00    +0.000 A 
BRANCH  20  21
ATOM     21  C   UNL     1       5.662   5.539  18.334  0.00  0.00    +0.000 C 
ATOM     22  F   UNL     1       5.852   6.747  17.760  0.00  0.00    +0.000 F 
ATOM     23  F   UNL     1       5.751   5.727  19.684  0.00  0.00    +0.000 F 
ATOM     24  F   UNL     1       6.794   4.835  18.010  0.00  0.00    +0.000 F 
ENDBRANCH  20  21
ENDBRANCH   6  15
TORSDOF 3
ENDMDL
MODEL 2
REMARK VINA RESULT:      -7.5      2.324      7.516
REMARK  Name = 
REMARK  4 active torsions:
REMARK  status: ('A' for Active; 'I' for Inactive)
REMARK    1  A    between atoms: C_1  and  N_2
REMARK    2  A    between atoms: C_3  and  C_4
REMARK    3  A    between atoms: C_14  and  C_15
REMARK    4  A    between atoms: C_20  and  C_21
REMARK                            x       y       z     vdW  Elec       q    Type
REMARK                         _______ _______ _______ _____ _____    ______ ____
ROOT
ATOM      1  C   UNL     1       2.087   6.465  20.337  0.00  0.00    +0.000 C 
ATOM      2  N   UNL     1       2.129   7.537  19.375  0.00  0.00    +0.000 N 
ATOM      3  C   UNL     1       2.803   7.539  18.160  0.00  0.00    +0.000 A 
ATOM      4  N   UNL     1       2.412   8.611  17.503  0.00  0.00    +0.000 NA
ATOM      5  N   UNL     1       1.543   9.321  18.278  0.00  0.00    +0.000 NA
ATOM      6  C   UNL     1       1.441   8.747  19.455  0.00  0.00    +0.000 A 
ENDROOT
BRANCH   3   7
ATOM      7  C   UNL     1       3.759   6.532  17.646  0.00  0.00    +0.000 A 
ATOM      8  C   UNL     1       5.092   6.894  17.355  0.00  0.00    +0.000 A 
ATOM      9  C   UNL     1       6.036   5.949  16.943  0.00  0.00    +0.000 A 
ATOM     10  C   UNL     1       5.640   4.638  16.735  0.00  0.00    +0.000 A 
ATOM     11  F   UNL     1       6.541   3.733  16.332  0.00  0.00    +0.000 F 
ATOM     12  C   UNL     1       4.324   4.257  16.933  0.00  0.00    +0.000 A 
ATOM     13  C   UNL     1       3.386   5.193  17.393  0.00  0.00    +0.000 A 
ATOM     14 CL   UNL     1       1.786   4.585  17.649  0.00  0.00    +0.000 Cl
ENDBRANCH   3   7
BRANCH   6  15
ATOM     15  C   UNL     1       0.718   9.329  20.612  0.00  0.00    +0.000 A 
ATOM     16  C   UNL     1       1.050   8.936  21.927  0.00  0.00    +0.000 A 
ATOM     17  C   UNL     1       0.440   9.478  23.062  0.00  0.00    +0.000 A 
ATOM     18  C   UNL     1      -0.575  10.404  22.920  0.00  0.00    +0.000 A 
ATOM     19  C   UNL     1      -0.967  10.780  21.640  0.00  0.00    +0.000 A 
ATOM     20  C   UNL     1      -0.336  10.270  20.472  0.00  0.00    +0.000 A 
BRANCH  20  21
ATOM     21  C   UNL     1      -0.926  10.800  19.177  0.00  0.00    +0.000 C 
ATOM     22  F   UNL     1      -0.140  11.547  18.370  0.00  0.00    +0.000 F 
ATOM     23  F   UNL     1      -1.435   9.793  18.408  0.00  0.00    +0.000 F 
ATOM     24  F   UNL     1      -2.001  11.612  19.436  0.00  0.00    +0.000 F 
ENDBRANCH  20  21
ENDBRANCH   6  15
TORSDOF 3
ENDMDL
MODEL 3
REMARK VINA RESULT:      -7.5      1.592      1.857
REMARK  Name = 
REMARK  4 active torsions:
REMARK  status: ('A' for Active; 'I' for Inactive)
REMARK    1  A    between atoms: C_1  and  N_2
REMARK    2  A    between atoms: C_3  and  C_4
REMARK    3  A    between atoms: C_14  and  C_15
REMARK    4  A    between atoms: C_20  and  C_21
REMARK                            x       y       z     vdW  Elec       q    Type
REMARK                         _______ _______ _______ _____ _____    ______ ____
ROOT
ATOM      1  C   UNL     1       1.654   7.498  20.491  0.00  0.00    +0.000 C 
ATOM      2  N   UNL     1       1.828   8.035  19.165  0.00  0.00    +0.000 N 
ATOM      3  C   UNL     1       1.437   9.291  18.718  0.00  0.00    +0.000 A 
ATOM      4  N   UNL     1       1.968   9.459  17.524  0.00  0.00    +0.000 NA
ATOM      5  N   UNL     1       2.649   8.331  17.173  0.00  0.00    +0.000 NA
ATOM      6  C   UNL     1       2.488   7.418  18.103  0.00  0.00    +0.000 A 
ENDROOT
BRANCH   3   7
ATOM      7  C   UNL     1       0.613  10.295  19.427  0.00  0.00    +0.000 A 
ATOM      8  C   UNL     1       1.096  10.918  20.599  0.00  0.00    +0.000 A 
ATOM      9  C   UNL     1       0.373  11.925  21.246  0.00  0.00    +0.000 A 
ATOM     10  C   UNL     1      -0.885  12.267  20.778  0.00  0.00    +0.000 A 
ATOM     11  F   UNL     1      -1.583  13.225  21.400  0.00  0.00    +0.000 F 
ATOM     12  C   UNL     1      -1.429  11.626  19.677  0.00  0.00    +0.000 A 
ATOM     13  C   UNL     1      -0.686  10.649  18.999  0.00  0.00    +0.000 A 
ATOM     14 CL   UNL     1      -1.454   9.955  17.611  0.00  0.00    +0.000 Cl
ENDBRANCH   3   7
BRANCH   6  15
ATOM     15  C   UNL     1       2.943   6.010  17.984  0.00  0.00    +0.000 A 
ATOM     16  C   UNL     1       2.143   4.961  18.489  0.00  0.00    +0.000 A 
ATOM     17  C   UNL     1       2.490   3.613  18.369  0.00  0.00    +0.000 A 
ATOM     18  C   UNL     1       3.690   3.262  17.784  0.00  0.00    +0.000 A 
ATOM     19  C   UNL     1       4.530   4.268  17.320  0.00  0.00    +0.000 A 
ATOM     20  C   UNL     1       4.181   5.645  17.396  0.00  0.00    +0.000 A 
BRANCH  20  21
ATOM     21  C   UNL     1       5.246   6.577  16.845  0.00  0.00    +0.000 C 
ATOM     22  F   UNL     1       5.586   7.665  17.570  0.00  0.00    +0.000 F 
ATOM     23  F   UNL     1       6.405   5.909  16.571  0.00  0.00    +0.000 F 
ATOM     24  F   UNL     1       4.853   7.093  15.636  0.00  0.00    +0.000 F 
ENDBRANCH  20  21
ENDBRANCH   6  15
TORSDOF 3
ENDMDL
MODEL 4
REMARK VINA RESULT:      -7.5      2.497      3.286
REMARK  Name = 
REMARK  4 active torsions:
REMARK  status: ('A' for Active; 'I' for Inactive)
REMARK    1  A    between atoms: C_1  and  N_2
REMARK    2  A    between atoms: C_3  and  C_4
REMARK    3  A    between atoms: C_14  and  C_15
REMARK    4  A    between atoms: C_20  and  C_21
REMARK                            x       y       z     vdW  Elec       q    Type
REMARK                         _______ _______ _______ _____ _____    ______ ____
ROOT
ATOM      1  C   UNL     1       2.511   8.521  17.757  0.00  0.00    +0.000 C 
ATOM      2  N   UNL     1       2.104   8.051  19.057  0.00  0.00    +0.000 N 
ATOM      3  C   UNL     1       1.283   8.713  19.962  0.00  0.00    +0.000 A 
ATOM      4  N   UNL     1       0.993   7.856  20.919  0.00  0.00    +0.000 NA
ATOM      5  N   UNL     1       1.640   6.680  20.680  0.00  0.00    +0.000 NA
ATOM      6  C   UNL     1       2.402   6.809  19.618  0.00  0.00    +0.000 A 
ENDROOT
BRANCH   3   7
ATOM      7  C   UNL     1       0.778  10.101  19.886  0.00  0.00    +0.000 A 
ATOM      8  C   UNL     1       1.176  11.060  20.843  0.00  0.00    +0.000 A 
ATOM      9  C   UNL     1       0.777  12.397  20.752  0.00  0.00    +0.000 A 
ATOM     10  C   UNL     1      -0.097  12.780  19.748  0.00  0.00    +0.000 A 
ATOM     11  F   UNL     1      -0.488  14.058  19.664  0.00  0.00    +0.000 F 
ATOM     12  C   UNL     1      -0.573  11.854  18.835  0.00  0.00    +0.000 A 
ATOM     13  C   UNL     1      -0.137  10.523  18.895  0.00  0.00    +0.000 A 
ATOM     14 CL   UNL     1      -0.766   9.473  17.671  0.00  0.00    +0.000 Cl
ENDBRANCH   3   7
BRANCH   6  15
ATOM     15  C   UNL     1       3.379   5.792  19.156  0.00  0.00    +0.000 A 
ATOM     16  C   UNL     1       4.765   6.043  19.255  0.00  0.00    +0.000 A 
ATOM     17  C   UNL     1       5.737   5.111  18.882  0.00  0.00    +0.000 A 
ATOM     18  C   UNL     1       5.354   3.901  18.337  0.00  0.00    +0.000 A 
ATOM     19  C   UNL     1       4.000   3.635  18.176  0.00  0.00    +0.000 A 
ATOM     20  C   UNL     1       2.992   4.553  18.584  0.00  0.00    +0.000 A 
BRANCH  20  21
ATOM     21  C   UNL     1       1.578   4.072  18.305  0.00  0.00    +0.000 C 
ATOM     22  F   UNL     1       0.710   3.995  19.337  0.00  0.00    +0.000 F 
ATOM     23  F   UNL     1       0.974   4.824  17.338  0.00  0.00    +0.000 F 
ATOM     24  F   UNL     1       1.596   2.801  17.790  0.00  0.00    +0.000 F 
ENDBRANCH  20  21
ENDBRANCH   6  15
TORSDOF 3
ENDMDL
MODEL 5
REMARK VINA RESULT:      -7.4      2.334      3.205
REMARK  Name = 
REMARK  4 active torsions:
REMARK  status: ('A' for Active; 'I' for Inactive)
REMARK    1  A    between atoms: C_1  and  N_2
REMARK    2  A    between atoms: C_3  and  C_4
REMARK    3  A    between atoms: C_14  and  C_15
REMARK    4  A    between atoms: C_20  and  C_21
REMARK                            x       y       z     vdW  Elec       q    Type
REMARK                         _______ _______ _______ _____ _____    ______ ____
ROOT
ATOM      1  C   UNL     1       2.150   8.645  17.564  0.00  0.00    +0.000 C 
ATOM      2  N   UNL     1       2.120   7.885  18.788  0.00  0.00    +0.000 N 
ATOM      3  C   UNL     1       1.420   8.199  19.946  0.00  0.00    +0.000 A 
ATOM      4  N   UNL     1       1.492   7.149  20.738  0.00  0.00    +0.000 NA
ATOM      5  N   UNL     1       2.255   6.189  20.143  0.00  0.00    +0.000 NA
ATOM      6  C   UNL     1       2.734   6.653  19.011  0.00  0.00    +0.000 A 
ENDROOT
BRANCH   3   7
ATOM      7  C   UNL     1       0.689   9.447  20.259  0.00  0.00    +0.000 A 
ATOM      8  C   UNL     1      -0.043  10.118  19.255  0.00  0.00    +0.000 A 
ATOM      9  C   UNL     1      -0.805  11.255  19.538  0.00  0.00    +0.000 A 
ATOM     10  C   UNL     1      -0.782  11.789  20.816  0.00  0.00    +0.000 A 
ATOM     11  F   UNL     1      -1.505  12.883  21.088  0.00  0.00    +0.000 F 
ATOM     12  C   UNL     1      -0.016  11.207  21.812  0.00  0.00    +0.000 A 
ATOM     13  C   UNL     1       0.712  10.039  21.542  0.00  0.00    +0.000 A 
ATOM     14 CL   UNL     1       1.592   9.380  22.879  0.00  0.00    +0.000 Cl
ENDBRANCH   3   7
BRANCH   6  15
ATOM     15  C   UNL     1       3.740   5.952  18.175  0.00  0.00    +0.000 A 
ATOM     16  C   UNL     1       4.989   6.556  17.911  0.00  0.00    +0.000 A 
ATOM     17  C   UNL     1       5.996   5.932  17.171  0.00  0.00    +0.000 A 
ATOM     18  C   UNL     1       5.769   4.689  16.614  0.00  0.00    +0.000 A 
ATOM     19  C   UNL     1       4.534   4.082  16.808  0.00  0.00    +0.000 A 
ATOM     20  C   UNL     1       3.507   4.681  17.589  0.00  0.00    +0.000 A 
BRANCH  20  21
ATOM     21  C   UNL     1       2.234   3.856  17.662  0.00  0.00    +0.000 C 
ATOM     22  F   UNL     1       1.884   3.318  18.850  0.00  0.00    +0.000 F 
ATOM     23  F   UNL     1       1.152   4.561  17.216  0.00  0.00    +0.000 F 
ATOM     24  F   UNL     1       2.312   2.777  16.818  0.00  0.00    +0.000 F 
ENDBRANCH  20  21
ENDBRANCH   6  15
TORSDOF 3
ENDMDL
MODEL 6
REMARK VINA RESULT:      -7.4      2.009      2.516
REMARK  Name = 
REMARK  4 active torsions:
REMARK  status: ('A' for Active; 'I' for Inactive)
REMARK    1  A    between atoms: C_1  and  N_2
REMARK    2  A    between atoms: C_3  and  C_4
REMARK    3  A    between atoms: C_14  and  C_15
REMARK    4  A    between atoms: C_20  and  C_21
REMARK                            x       y       z     vdW  Elec       q    Type
REMARK                         _______ _______ _______ _____ _____    ______ ____
ROOT
ATOM      1  C   UNL     1       2.682   6.536  20.551  0.00  0.00    +0.000 C 
ATOM      2  N   UNL     1       2.435   7.358  19.393  0.00  0.00    +0.000 N 
ATOM      3  C   UNL     1       1.692   8.532  19.349  0.00  0.00    +0.000 A 
ATOM      4  N   UNL     1       1.893   9.071  18.164  0.00  0.00    +0.000 NA
ATOM      5  N   UNL     1       2.704   8.257  17.431  0.00  0.00    +0.000 NA
ATOM      6  C   UNL     1       2.957   7.164  18.115  0.00  0.00    +0.000 A 
ENDROOT
BRANCH   3   7
ATOM      7  C   UNL     1       0.852   9.119  20.416  0.00  0.00    +0.000 A 
ATOM      8  C   UNL     1       1.111   8.828  21.773  0.00  0.00    +0.000 A 
ATOM      9  C   UNL     1       0.384   9.428  22.805  0.00  0.00    +0.000 A 
ATOM     10  C   UNL     1      -0.672  10.268  22.493  0.00  0.00    +0.000 A 
ATOM     11  F   UNL     1      -1.376  10.838  23.480  0.00  0.00    +0.000 F 
ATOM     12  C   UNL     1      -1.010  10.520  21.174  0.00  0.00    +0.000 A 
ATOM     13  C   UNL     1      -0.252   9.956  20.138  0.00  0.00    +0.000 A 
ATOM     14 CL   UNL     1      -0.743  10.383  18.534  0.00  0.00    +0.000 Cl
ENDBRANCH   3   7
BRANCH   6  15
ATOM     15  C   UNL     1       3.665   5.979  17.571  0.00  0.00    +0.000 A 
ATOM     16  C   UNL     1       4.985   6.103  17.084  0.00  0.00    +0.000 A 
ATOM     17  C   UNL     1       5.724   5.020  16.601  0.00  0.00    +0.000 A 
ATOM     18  C   UNL     1       5.145   3.768  16.535  0.00  0.00    +0.000 A 
ATOM     19  C   UNL     1       3.830   3.614  16.957  0.00  0.00    +0.000 A 
ATOM     20  C   UNL     1       3.070   4.694  17.488  0.00  0.00    +0.000 A 
BRANCH  20  21
ATOM     21  C   UNL     1       1.653   4.311  17.876  0.00  0.00    +0.000 C 
ATOM     22  F   UNL     1       1.257   4.520  19.151  0.00  0.00    +0.000 F 
ATOM     23  F   UNL     1       0.730   4.921  17.074  0.00  0.00    +0.000 F 
ATOM     24  F   UNL     1       1.446   2.970  17.679  0.00  0.00    +0.000 F 
ENDBRANCH  20  21
ENDBRANCH   6  15
TORSDOF 3
ENDMDL
MODEL 7
REMARK VINA RESULT:      -7.4      2.429      7.408
REMARK  Name = 
REMARK  4 active torsions:
REMARK  status: ('A' for Active; 'I' for Inactive)
REMARK    1  A    between atoms: C_1  and  N_2
REMARK    2  A    between atoms: C_3  and  C_4
REMARK    3  A    between atoms: C_14  and  C_15
REMARK    4  A    between atoms: C_20  and  C_21
REMARK                            x       y       z     vdW  Elec       q    Type
REMARK                         _______ _______ _______ _____ _____    ______ ____
ROOT
ATOM      1  C   UNL     1       2.214   6.815  20.500  0.00  0.00    +0.000 C 
ATOM      2  N   UNL     1       2.089   7.752  19.412  0.00  0.00    +0.000 N 
ATOM      3  C   UNL     1       2.666   7.648  18.153  0.00  0.00    +0.000 A 
ATOM      4  N   UNL     1       2.132   8.592  17.405  0.00  0.00    +0.000 NA
ATOM      5  N   UNL     1       1.266   9.327  18.158  0.00  0.00    +0.000 NA
ATOM      6  C   UNL     1       1.304   8.905  19.402  0.00  0.00    +0.000 A 
ENDROOT
BRANCH   3   7
ATOM      7  C   UNL     1       3.664   6.661  17.687  0.00  0.00    +0.000 A 
ATOM      8  C   UNL     1       4.984   7.064  17.388  0.00  0.00    +0.000 A 
ATOM      9  C   UNL     1       5.968   6.141  17.021  0.00  0.00    +0.000 A 
ATOM     10  C   UNL     1       5.627   4.808  16.865  0.00  0.00    +0.000 A 
ATOM     11  F   UNL     1       6.565   3.924  16.505  0.00  0.00    +0.000 F 
ATOM     12  C   UNL     1       4.325   4.383  17.072  0.00  0.00    +0.000 A 
ATOM     13  C   UNL     1       3.347   5.298  17.487  0.00  0.00    +0.000 A 
ATOM     14 CL   UNL     1       1.771   4.637  17.759  0.00  0.00    +0.000 Cl
ENDBRANCH   3   7
BRANCH   6  15
ATOM     15  C   UNL     1       0.622   9.575  20.536  0.00  0.00    +0.000 A 
ATOM     16  C   UNL     1       0.063   8.808  21.581  0.00  0.00    +0.000 A 
ATOM     17  C   UNL     1      -0.552   9.376  22.700  0.00  0.00    +0.000 A 
ATOM     18  C   UNL     1      -0.681  10.748  22.789  0.00  0.00    +0.000 A 
ATOM     19  C   UNL     1      -0.189  11.538  21.757  0.00  0.00    +0.000 A 
ATOM     20  C   UNL     1       0.474  10.984  20.627  0.00  0.00    +0.000 A 
BRANCH  20  21
ATOM     21  C   UNL     1       0.922  12.020  19.611  0.00  0.00    +0.000 C 
ATOM     22  F   UNL     1       2.191  11.965  19.152  0.00  0.00    +0.000 F 
ATOM     23  F   UNL     1       0.108  12.033  18.514  0.00  0.00    +0.000 F 
ATOM     24  F   UNL     1       0.812  13.284  20.134  0.00  0.00    +0.000 F 
ENDBRANCH  20  21
ENDBRANCH   6  15
TORSDOF 3
ENDMDL
MODEL 8
REMARK VINA RESULT:      -7.3      1.530      1.855
REMARK  Name = 
REMARK  4 active torsions:
REMARK  status: ('A' for Active; 'I' for Inactive)
REMARK    1  A    between atoms: C_1  and  N_2
REMARK    2  A    between atoms: C_3  and  C_4
REMARK    3  A    between atoms: C_14  and  C_15
REMARK    4  A    between atoms: C_20  and  C_21
REMARK                            x       y       z     vdW  Elec       q    Type
REMARK                         _______ _______ _______ _____ _____    ______ ____
ROOT
ATOM      1  C   UNL     1       2.007   7.426  20.576  0.00  0.00    +0.000 C 
ATOM      2  N   UNL     1       1.955   7.996  19.254  0.00  0.00    +0.000 N 
ATOM      3  C   UNL     1       1.542   9.278  18.916  0.00  0.00    +0.000 A 
ATOM      4  N   UNL     1       1.849   9.462  17.648  0.00  0.00    +0.000 NA
ATOM      5  N   UNL     1       2.404   8.320  17.151  0.00  0.00    +0.000 NA
ATOM      6  C   UNL     1       2.380   7.386  18.074  0.00  0.00    +0.000 A 
ENDROOT
BRANCH   3   7
ATOM      7  C   UNL     1       0.907  10.291  19.788  0.00  0.00    +0.000 A 
ATOM      8  C   UNL     1      -0.058   9.907  20.745  0.00  0.00    +0.000 A 
ATOM      9  C   UNL     1      -0.617  10.829  21.635  0.00  0.00    +0.000 A 
ATOM     10  C   UNL     1      -0.281  12.168  21.526  0.00  0.00    +0.000 A 
ATOM     11  F   UNL     1      -0.822  13.055  22.371  0.00  0.00    +0.000 F 
ATOM     12  C   UNL     1       0.602  12.599  20.551  0.00  0.00    +0.000 A 
ATOM     13  C   UNL     1       1.200  11.669  19.689  0.00  0.00    +0.000 A 
ATOM     14 CL   UNL     1       2.322  12.324  18.544  0.00  0.00    +0.000 Cl
ENDBRANCH   3   7
BRANCH   6  15
ATOM     15  C   UNL     1       2.744   5.967  17.841  0.00  0.00    +0.000 A 
ATOM     16  C   UNL     1       1.857   4.935  18.218  0.00  0.00    +0.000 A 
ATOM     17  C   UNL     1       2.118   3.582  17.987  0.00  0.00    +0.000 A 
ATOM     18  C   UNL     1       3.315   3.202  17.413  0.00  0.00    +0.000 A 
ATOM     19  C   UNL     1       4.239   4.185  17.073  0.00  0.00    +0.000 A 
ATOM     20  C   UNL     1       3.979   5.570  17.265  0.00  0.00    +0.000 A 
BRANCH  20  21
ATOM     21  C   UNL     1       5.125   6.472  16.839  0.00  0.00    +0.000 C 
ATOM     22  F   UNL     1       5.444   7.522  17.627  0.00  0.00    +0.000 F 
ATOM     23  F   UNL     1       6.276   5.763  16.644  0.00  0.00    +0.000 F 
ATOM     24  F   UNL     1       4.860   7.040  15.619  0.00  0.00    +0.000 F 
ENDBRANCH  20  21
ENDBRANCH   6  15
TORSDOF 3
ENDMDL
MODEL 9
REMARK VINA RESULT:      -7.2      3.166      7.407
REMARK  Name = 
REMARK  4 active torsions:
REMARK  status: ('A' for Active; 'I' for Inactive)
REMARK    1  A    between atoms: C_1  and  N_2
REMARK    2  A    between atoms: C_3  and  C_4
REMARK    3  A    between atoms: C_14  and  C_15
REMARK    4  A    between atoms: C_20  and  C_21
REMARK                            x       y       z     vdW  Elec       q    Type
REMARK                         _______ _______ _______ _____ _____    ______ ____
ROOT
ATOM      1  C   UNL     1       0.840   8.708  20.764  0.00  0.00    +0.000 C 
ATOM      2  N   UNL     1       1.474   8.767  19.471  0.00  0.00    +0.000 N 
ATOM      3  C   UNL     1       2.167   7.743  18.838  0.00  0.00    +0.000 A 
ATOM      4  N   UNL     1       2.397   8.139  17.602  0.00  0.00    +0.000 NA
ATOM      5  N   UNL     1       1.913   9.403  17.439  0.00  0.00    +0.000 NA
ATOM      6  C   UNL     1       1.447   9.843  18.585  0.00  0.00    +0.000 A 
ENDROOT
BRANCH   3   7
ATOM      7  C   UNL     1       2.562   6.430  19.393  0.00  0.00    +0.000 A 
ATOM      8  C   UNL     1       1.792   5.821  20.407  0.00  0.00    +0.000 A 
ATOM      9  C   UNL     1       2.096   4.547  20.896  0.00  0.00    +0.000 A 
ATOM     10  C   UNL     1       3.228   3.895  20.436  0.00  0.00    +0.000 A 
ATOM     11  F   UNL     1       3.527   2.678  20.909  0.00  0.00    +0.000 F 
ATOM     12  C   UNL     1       4.055   4.490  19.498  0.00  0.00    +0.000 A 
ATOM     13  C   UNL     1       3.725   5.747  18.972  0.00  0.00    +0.000 A 
ATOM     14 CL   UNL     1       4.811   6.364  17.773  0.00  0.00    +0.000 Cl
ENDBRANCH   3   7
BRANCH   6  15
ATOM     15  C   UNL     1       0.996  11.236  18.829  0.00  0.00    +0.000 A 
ATOM     16  C   UNL     1       1.901  12.198  19.328  0.00  0.00    +0.000 A 
ATOM     17  C   UNL     1       1.554  13.535  19.537  0.00  0.00    +0.000 A 
ATOM     18  C   UNL     1       0.259  13.952  19.304  0.00  0.00    +0.000 A 
ATOM     19  C   UNL     1      -0.676  13.025  18.860  0.00  0.00    +0.000 A 
ATOM     20  C   UNL     1      -0.337  11.667  18.605  0.00  0.00    +0.000 A 
BRANCH  20  21
ATOM     21  C   UNL     1      -1.510  10.821  18.140  0.00  0.00    +0.000 C 
ATOM     22  F   UNL     1      -1.425  10.210  16.938  0.00  0.00    +0.000 F 
ATOM     23  F   UNL     1      -1.823   9.853  19.052  0.00  0.00    +0.000 F 
ATOM     24  F   UNL     1      -2.645  11.584  18.045  0.00  0.00    +0.000 F 
ENDBRANCH  20  21
ENDBRANCH   6  15
TORSDOF 3
ENDMDL
