MODEL 1
REMARK VINA RESULT:      -7.8      0.000      0.000
REMARK  Name = 
REMARK  18 active torsions:
REMARK  status: ('A' for Active; 'I' for Inactive)
REMARK    1  A    between atoms: C_1  and  C_2
REMARK    2  A    between atoms: C_2  and  C_3
REMARK    3  A    between atoms: C_3  and  C_4
REMARK    4  A    between atoms: C_4  and  C_5
REMARK    5  A    between atoms: C_5  and  C_6
REMARK    6  A    between atoms: C_6  and  C_7
REMARK    7  A    between atoms: C_7  and  C_8
REMARK    8  A    between atoms: C_8  and  C_9
REMARK    9  A    between atoms: C_9  and  C_10
REMARK   10  A    between atoms: C_10  and  C_11
REMARK   11  A    between atoms: C_11  and  C_12
REMARK   12  A    between atoms: C_12  and  O_14
REMARK   13  A    between atoms: O_14  and  C_15
REMARK   14  A    between atoms: C_16  and  C_17
REMARK   15  A    between atoms: C_20  and  O_21
REMARK   16  A    between atoms: C_22  and  O_23
REMARK   17  A    between atoms: C_28  and  O_29
REMARK   18  A    between atoms: C_31  and  O_32
REMARK                            x       y       z     vdW  Elec       q    Type
REMARK                         _______ _______ _______ _____ _____    ______ ____
ROOT
ATOM      1  C   UNL     1       2.458   7.057  18.136  0.00  0.00    +0.000 A 
ATOM      2  C   UNL     1       2.211   6.185  19.127  0.00  0.00    +0.000 A 
ATOM      3  O   UNL     1       1.639   6.517  20.335  0.00  0.00    +0.000 OA
ATOM      4  C   UNL     1       1.407   7.842  20.605  0.00  0.00    +0.000 A 
ATOM      5  C   UNL     1       0.941   8.115  21.893  0.00  0.00    +0.000 A 
ATOM      6  C   UNL     1       0.691   9.432  22.255  0.00  0.00    +0.000 A 
ATOM      7  C   UNL     1       0.901  10.471  21.355  0.00  0.00    +0.000 A 
ATOM      8  C   UNL     1       1.362  10.188  20.067  0.00  0.00    +0.000 A 
ATOM      9  C   UNL     1       1.610   8.866  19.677  0.00  0.00    +0.000 A 
ATOM     10  C   UNL     1       2.069   8.485  18.321  0.00  0.00    +0.000 A 
ATOM     11  O   UNL     1       2.107   9.260  17.372  0.00  0.00    +0.000 OA
ENDROOT
BRANCH   2  12
ATOM     12  C   UNL     1       2.540   4.756  19.040  0.00  0.00    +0.000 A 
ATOM     13  C   UNL     1       1.773   3.902  18.231  0.00  0.00    +0.000 A 
ATOM     14  C   UNL     1       2.155   2.569  18.037  0.00  0.00    +0.000 A 
ATOM     15  C   UNL     1       3.310   2.102  18.653  0.00  0.00    +0.000 A 
ATOM     16  C   UNL     1       4.058   2.940  19.476  0.00  0.00    +0.000 A 
ATOM     17  C   UNL     1       3.683   4.260  19.680  0.00  0.00    +0.000 A 
BRANCH  16  18
ATOM     18  O   UNL     1       5.199   2.475  20.068  0.00  0.00    +0.000 OA
ATOM     19  H   UNL     1       5.621   1.906  19.391  0.00  0.00    +0.000 HD
ENDBRANCH  16  18
BRANCH  15  20
ATOM     20  O   UNL     1       3.761   0.823  18.470  0.00  0.00    +0.000 OA
ATOM     21  H   UNL     1       2.990   0.231  18.443  0.00  0.00    +0.000 HD
ENDBRANCH  15  20
ENDBRANCH   2  12
BRANCH   8  22
ATOM     22  O   UNL     1       1.574  11.225  19.205  0.00  0.00    +0.000 OA
ATOM     23  H   UNL     1       1.473  12.073  19.667  0.00  0.00    +0.000 HD
ENDBRANCH   8  22
BRANCH   6  24
ATOM     24  O   UNL     1       0.235   9.749  23.498  0.00  0.00    +0.000 OA
ATOM     25  H   UNL     1       0.624  10.599  23.765  0.00  0.00    +0.000 HD
ENDBRANCH   6  24
BRANCH   1  26
ATOM     26  O   UNL     1       3.022   6.675  16.912  0.00  0.00    +0.000 OA
BRANCH  26  27
ATOM     27  C   UNL     1       4.380   6.512  17.027  0.00  0.00    +0.000 C 
ATOM     28  O   UNL     1       5.151   7.230  17.653  0.00  0.00    +0.000 OA
BRANCH  27  29
ATOM     29  C   UNL     1       4.768   5.225  16.331  0.00  0.00    +0.000 C 
BRANCH  29  30
ATOM     30  C   UNL     1       6.079   4.677  16.883  0.00  0.00    +0.000 C 
BRANCH  30  31
ATOM     31  C   UNL     1       7.122   4.463  15.788  0.00  0.00    +0.000 C 
BRANCH  31  32
ATOM     32  C   UNL     1       6.569   4.912  14.436  0.00  0.00    +0.000 C 
BRANCH  32  33
ATOM     33  C   UNL     1       7.496   4.517  13.291  0.00  0.00    +0.000 C 
BRANCH  33  34
ATOM     34  C   UNL     1       6.692   4.051  12.077  0.00  0.00    +0.000 C 
BRANCH  34  35
ATOM     35  C   UNL     1       5.415   3.332  12.510  0.00  0.00    +0.000 C 
BRANCH  35  36
ATOM     36  C   UNL     1       4.694   2.718  11.312  0.00  0.00    +0.000 C 
BRANCH  36  37
ATOM     37  C   UNL     1       3.419   3.497  10.987  0.00  0.00    +0.000 C 
BRANCH  37  39
ATOM     38  C   UNL     1       2.185   4.814   9.237  0.00  0.00    +0.000 C 
ATOM     39  C   UNL     1       3.495   4.134   9.602  0.00  0.00    +0.000 C 
ENDBRANCH  37  39
ENDBRANCH  36  37
ENDBRANCH  35  36
ENDBRANCH  34  35
ENDBRANCH  33  34
ENDBRANCH  32  33
ENDBRANCH  31  32
ENDBRANCH  30  31
ENDBRANCH  29  30
ENDBRANCH  27  29
ENDBRANCH  26  27
ENDBRANCH   1  26
TORSDOF 17
ENDMDL
MODEL 2
REMARK VINA RESULT:      -7.4      2.373      4.445
REMARK  Name = 
REMARK  18 active torsions:
REMARK  status: ('A' for Active; 'I' for Inactive)
REMARK    1  A    between atoms: C_1  and  C_2
REMARK    2  A    between atoms: C_2  and  C_3
REMARK    3  A    between atoms: C_3  and  C_4
REMARK    4  A    between atoms: C_4  and  C_5
REMARK    5  A    between atoms: C_5  and  C_6
REMARK    6  A    between atoms: C_6  and  C_7
REMARK    7  A    between atoms: C_7  and  C_8
REMARK    8  A    between atoms: C_8  and  C_9
REMARK    9  A    between atoms: C_9  and  C_10
REMARK   10  A    between atoms: C_10  and  C_11
REMARK   11  A    between atoms: C_11  and  C_12
REMARK   12  A    between atoms: C_12  and  O_14
REMARK   13  A    between atoms: O_14  and  C_15
REMARK   14  A    between atoms: C_16  and  C_17
REMARK   15  A    between atoms: C_20  and  O_21
REMARK   16  A    between atoms: C_22  and  O_23
REMARK   17  A    between atoms: C_28  and  O_29
REMARK   18  A    between atoms: C_31  and  O_32
REMARK                            x       y       z     vdW  Elec       q    Type
REMARK                         _______ _______ _______ _____ _____    ______ ____
ROOT
ATOM      1  C   UNL     1       2.385   7.285  18.170  0.00  0.00    +0.000 A 
ATOM      2  C   UNL     1       2.158   6.397  19.151  0.00  0.00    +0.000 A 
ATOM      3  O   UNL     1       1.579   6.702  20.363  0.00  0.00    +0.000 OA
ATOM      4  C   UNL     1       1.318   8.018  20.647  0.00  0.00    +0.000 A 
ATOM      5  C   UNL     1       0.846   8.266  21.939  0.00  0.00    +0.000 A 
ATOM      6  C   UNL     1       0.566   9.573  22.316  0.00  0.00    +0.000 A 
ATOM      7  C   UNL     1       0.752  10.626  21.427  0.00  0.00    +0.000 A 
ATOM      8  C   UNL     1       1.218  10.369  20.136  0.00  0.00    +0.000 A 
ATOM      9  C   UNL     1       1.497   9.057  19.731  0.00  0.00    +0.000 A 
ATOM     10  C   UNL     1       1.963   8.702  18.371  0.00  0.00    +0.000 A 
ATOM     11  O   UNL     1       1.983   9.487  17.430  0.00  0.00    +0.000 OA
ENDROOT
BRANCH   2  12
ATOM     12  C   UNL     1       2.520   4.977  19.048  0.00  0.00    +0.000 A 
ATOM     13  C   UNL     1       1.699   4.087  18.335  0.00  0.00    +0.000 A 
ATOM     14  C   UNL     1       2.099   2.763  18.118  0.00  0.00    +0.000 A 
ATOM     15  C   UNL     1       3.325   2.340  18.616  0.00  0.00    +0.000 A 
ATOM     16  C   UNL     1       4.130   3.212  19.346  0.00  0.00    +0.000 A 
ATOM     17  C   UNL     1       3.738   4.524  19.571  0.00  0.00    +0.000 A 
BRANCH  16  18
ATOM     18  O   UNL     1       5.340   2.790  19.821  0.00  0.00    +0.000 OA
ATOM     19  H   UNL     1       5.915   3.581  19.787  0.00  0.00    +0.000 HD
ENDBRANCH  16  18
BRANCH  15  20
ATOM     20  O   UNL     1       3.794   1.072  18.403  0.00  0.00    +0.000 OA
ATOM     21  H   UNL     1       4.291   1.069  17.567  0.00  0.00    +0.000 HD
ENDBRANCH  15  20
ENDBRANCH   2  12
BRANCH   8  22
ATOM     22  O   UNL     1       1.406  11.420  19.285  0.00  0.00    +0.000 OA
ATOM     23  H   UNL     1       1.870  12.141  19.739  0.00  0.00    +0.000 HD
ENDBRANCH   8  22
BRANCH   6  24
ATOM     24  O   UNL     1       0.103   9.865  23.562  0.00  0.00    +0.000 OA
ATOM     25  H   UNL     1       0.382   9.160  24.171  0.00  0.00    +0.000 HD
ENDBRANCH   6  24
BRANCH   1  26
ATOM     26  O   UNL     1       2.956   6.929  16.941  0.00  0.00    +0.000 OA
BRANCH  26  27
ATOM     27  C   UNL     1       4.327   6.931  17.019  0.00  0.00    +0.000 C 
ATOM     28  O   UNL     1       5.007   7.425  17.911  0.00  0.00    +0.000 OA
BRANCH  27  29
ATOM     29  C   UNL     1       4.873   6.122  15.862  0.00  0.00    +0.000 C 
BRANCH  29  30
ATOM     30  C   UNL     1       4.848   4.631  16.175  0.00  0.00    +0.000 C 
BRANCH  30  31
ATOM     31  C   UNL     1       6.199   3.966  15.926  0.00  0.00    +0.000 C 
BRANCH  31  32
ATOM     32  C   UNL     1       7.334   4.897  16.351  0.00  0.00    +0.000 C 
BRANCH  32  33
ATOM     33  C   UNL     1       7.784   4.618  17.782  0.00  0.00    +0.000 C 
BRANCH  33  34
ATOM     34  C   UNL     1       7.681   5.880  18.639  0.00  0.00    +0.000 C 
BRANCH  34  35
ATOM     35  C   UNL     1       7.903   7.134  17.795  0.00  0.00    +0.000 C 
BRANCH  35  36
ATOM     36  C   UNL     1       8.629   8.215  18.593  0.00  0.00    +0.000 C 
BRANCH  36  37
ATOM     37  C   UNL     1       8.278   9.607  18.067  0.00  0.00    +0.000 C 
BRANCH  37  39
ATOM     38  C   UNL     1      10.298  10.835  18.923  0.00  0.00    +0.000 C 
ATOM     39  C   UNL     1       8.786  10.699  19.004  0.00  0.00    +0.000 C 
ENDBRANCH  37  39
ENDBRANCH  36  37
ENDBRANCH  35  36
ENDBRANCH  34  35
ENDBRANCH  33  34
ENDBRANCH  32  33
ENDBRANCH  31  32
ENDBRANCH  30  31
ENDBRANCH  29  30
ENDBRANCH  27  29
ENDBRANCH  26  27
ENDBRANCH   1  26
TORSDOF 17
ENDMDL
MODEL 3
REMARK VINA RESULT:      -7.0      1.024      1.073
REMARK  Name = 
REMARK  18 active torsions:
REMARK  status: ('A' for Active; 'I' for Inactive)
REMARK    1  A    between atoms: C_1  and  C_2
REMARK    2  A    between atoms: C_2  and  C_3
REMARK    3  A    between atoms: C_3  and  C_4
REMARK    4  A    between atoms: C_4  and  C_5
REMARK    5  A    between atoms: C_5  and  C_6
REMARK    6  A    between atoms: C_6  and  C_7
REMARK    7  A    between atoms: C_7  and  C_8
REMARK    8  A    between atoms: C_8  and  C_9
REMARK    9  A    between atoms: C_9  and  C_10
REMARK   10  A    between atoms: C_10  and  C_11
REMARK   11  A    between atoms: C_11  and  C_12
REMARK   12  A    between atoms: C_12  and  O_14
REMARK   13  A    between atoms: O_14  and  C_15
REMARK   14  A    between atoms: C_16  and  C_17
REMARK   15  A    between atoms: C_20  and  O_21
REMARK   16  A    between atoms: C_22  and  O_23
REMARK   17  A    between atoms: C_28  and  O_29
REMARK   18  A    between atoms: C_31  and  O_32
REMARK                            x       y       z     vdW  Elec       q    Type
REMARK                         _______ _______ _______ _____ _____    ______ ____
ROOT
ATOM      1  C   UNL     1       2.498   7.244  18.407  0.00  0.00    +0.000 A 
ATOM      2  C   UNL     1       2.347   6.603  19.577  0.00  0.00    +0.000 A 
ATOM      3  O   UNL     1       1.713   7.130  20.681  0.00  0.00    +0.000 OA
ATOM      4  C   UNL     1       1.307   8.438  20.636  0.00  0.00    +0.000 A 
ATOM      5  C   UNL     1       0.784   8.942  21.829  0.00  0.00    +0.000 A 
ATOM      6  C   UNL     1       0.357  10.262  21.876  0.00  0.00    +0.000 A 
ATOM      7  C   UNL     1       0.448  11.081  20.756  0.00  0.00    +0.000 A 
ATOM      8  C   UNL     1       0.967  10.568  19.564  0.00  0.00    +0.000 A 
ATOM      9  C   UNL     1       1.393   9.235  19.492  0.00  0.00    +0.000 A 
ATOM     10  C   UNL     1       1.923   8.612  18.257  0.00  0.00    +0.000 A 
ATOM     11  O   UNL     1       1.878   9.141  17.153  0.00  0.00    +0.000 OA
ENDROOT
BRANCH   2  12
ATOM     12  C   UNL     1       2.861   5.249  19.824  0.00  0.00    +0.000 A 
ATOM     13  C   UNL     1       2.019   4.258  20.356  0.00  0.00    +0.000 A 
ATOM     14  C   UNL     1       2.458   2.934  20.472  0.00  0.00    +0.000 A 
ATOM     15  C   UNL     1       3.741   2.609  20.047  0.00  0.00    +0.000 A 
ATOM     16  C   UNL     1       4.587   3.594  19.542  0.00  0.00    +0.000 A 
ATOM     17  C   UNL     1       4.163   4.911  19.431  0.00  0.00    +0.000 A 
BRANCH  16  18
ATOM     18  O   UNL     1       5.842   3.263  19.115  0.00  0.00    +0.000 OA
ATOM     19  H   UNL     1       6.118   4.006  18.540  0.00  0.00    +0.000 HD
ENDBRANCH  16  18
BRANCH  15  20
ATOM     20  O   UNL     1       4.215   1.327  20.093  0.00  0.00    +0.000 OA
ATOM     21  H   UNL     1       4.235   0.978  19.185  0.00  0.00    +0.000 HD
ENDBRANCH  15  20
ENDBRANCH   2  12
BRANCH   8  22
ATOM     22  O   UNL     1       1.058  11.393  18.481  0.00  0.00    +0.000 OA
ATOM     23  H   UNL     1       1.563  12.191  18.707  0.00  0.00    +0.000 HD
ENDBRANCH   8  22
BRANCH   6  24
ATOM     24  O   UNL     1      -0.160  10.798  23.016  0.00  0.00    +0.000 OA
ATOM     25  H   UNL     1      -0.597  11.638  22.794  0.00  0.00    +0.000 HD
ENDBRANCH   6  24
BRANCH   1  26
ATOM     26  O   UNL     1       3.131   6.663  17.300  0.00  0.00    +0.000 OA
BRANCH  26  27
ATOM     27  C   UNL     1       4.415   7.129  17.168  0.00  0.00    +0.000 C 
ATOM     28  O   UNL     1       5.012   7.857  17.953  0.00  0.00    +0.000 OA
BRANCH  27  29
ATOM     29  C   UNL     1       5.025   6.507  15.931  0.00  0.00    +0.000 C 
BRANCH  29  30
ATOM     30  C   UNL     1       6.378   5.879  16.242  0.00  0.00    +0.000 C 
BRANCH  30  31
ATOM     31  C   UNL     1       6.339   4.355  16.163  0.00  0.00    +0.000 C 
BRANCH  31  32
ATOM     32  C   UNL     1       5.758   3.910  14.821  0.00  0.00    +0.000 C 
BRANCH  32  33
ATOM     33  C   UNL     1       6.793   3.999  13.704  0.00  0.00    +0.000 C 
BRANCH  33  34
ATOM     34  C   UNL     1       6.128   3.855  12.335  0.00  0.00    +0.000 C 
BRANCH  34  35
ATOM     35  C   UNL     1       4.666   3.436  12.478  0.00  0.00    +0.000 C 
BRANCH  35  36
ATOM     36  C   UNL     1       4.111   2.906  11.157  0.00  0.00    +0.000 C 
BRANCH  36  37
ATOM     37  C   UNL     1       3.864   4.051  10.174  0.00  0.00    +0.000 C 
BRANCH  37  39
ATOM     38  C   UNL     1       2.138   5.214   8.764  0.00  0.00    +0.000 C 
ATOM     39  C   UNL     1       2.475   3.956   9.549  0.00  0.00    +0.000 C 
ENDBRANCH  37  39
ENDBRANCH  36  37
ENDBRANCH  35  36
ENDBRANCH  34  35
ENDBRANCH  33  34
ENDBRANCH  32  33
ENDBRANCH  31  32
ENDBRANCH  30  31
ENDBRANCH  29  30
ENDBRANCH  27  29
ENDBRANCH  26  27
ENDBRANCH   1  26
TORSDOF 17
ENDMDL
MODEL 4
REMARK VINA RESULT:      -6.9      1.193      1.476
REMARK  Name = 
REMARK  18 active torsions:
REMARK  status: ('A' for Active; 'I' for Inactive)
REMARK    1  A    between atoms: C_1  and  C_2
REMARK    2  A    between atoms: C_2  and  C_3
REMARK    3  A    between atoms: C_3  and  C_4
REMARK    4  A    between atoms: C_4  and  C_5
REMARK    5  A    between atoms: C_5  and  C_6
REMARK    6  A    between atoms: C_6  and  C_7
REMARK    7  A    between atoms: C_7  and  C_8
REMARK    8  A    between atoms: C_8  and  C_9
REMARK    9  A    between atoms: C_9  and  C_10
REMARK   10  A    between atoms: C_10  and  C_11
REMARK   11  A    between atoms: C_11  and  C_12
REMARK   12  A    between atoms: C_12  and  O_14
REMARK   13  A    between atoms: O_14  and  C_15
REMARK   14  A    between atoms: C_16  and  C_17
REMARK   15  A    between atoms: C_20  and  O_21
REMARK   16  A    between atoms: C_22  and  O_23
REMARK   17  A    between atoms: C_28  and  O_29
REMARK   18  A    between atoms: C_31  and  O_32
REMARK                            x       y       z     vdW  Elec       q    Type
REMARK                         _______ _______ _______ _____ _____    ______ ____
ROOT
ATOM      1  C   UNL     1       2.425   7.148  18.519  0.00  0.00    +0.000 A 
ATOM      2  C   UNL     1       2.223   6.573  19.716  0.00  0.00    +0.000 A 
ATOM      3  O   UNL     1       1.584   7.178  20.776  0.00  0.00    +0.000 OA
ATOM      4  C   UNL     1       1.229   8.497  20.656  0.00  0.00    +0.000 A 
ATOM      5  C   UNL     1       0.699   9.079  21.810  0.00  0.00    +0.000 A 
ATOM      6  C   UNL     1       0.322  10.415  21.781  0.00  0.00    +0.000 A 
ATOM      7  C   UNL     1       0.471  11.172  20.624  0.00  0.00    +0.000 A 
ATOM      8  C   UNL     1       0.997  10.581  19.472  0.00  0.00    +0.000 A 
ATOM      9  C   UNL     1       1.372   9.232  19.476  0.00  0.00    +0.000 A 
ATOM     10  C   UNL     1       1.907   8.528  18.288  0.00  0.00    +0.000 A 
ATOM     11  O   UNL     1       1.908   9.002  17.158  0.00  0.00    +0.000 OA
ENDROOT
BRANCH   2  12
ATOM     12  C   UNL     1       2.678   5.215  20.041  0.00  0.00    +0.000 A 
ATOM     13  C   UNL     1       3.940   4.770  19.612  0.00  0.00    +0.000 A 
ATOM     14  C   UNL     1       4.439   3.529  20.026  0.00  0.00    +0.000 A 
ATOM     15  C   UNL     1       3.669   2.743  20.875  0.00  0.00    +0.000 A 
ATOM     16  C   UNL     1       2.407   3.170  21.281  0.00  0.00    +0.000 A 
ATOM     17  C   UNL     1       1.901   4.395  20.870  0.00  0.00    +0.000 A 
BRANCH  16  18
ATOM     18  O   UNL     1       1.662   2.395  22.126  0.00  0.00    +0.000 OA
ATOM     19  H   UNL     1       0.876   2.135  21.603  0.00  0.00    +0.000 HD
ENDBRANCH  16  18
BRANCH  15  20
ATOM     20  O   UNL     1       4.116   1.540  21.351  0.00  0.00    +0.000 OA
ATOM     21  H   UNL     1       3.801   1.440  22.265  0.00  0.00    +0.000 HD
ENDBRANCH  15  20
ENDBRANCH   2  12
BRANCH   8  22
ATOM     22  O   UNL     1       1.145  11.347  18.353  0.00  0.00    +0.000 OA
ATOM     23  H   UNL     1       1.412  12.249  18.594  0.00  0.00    +0.000 HD
ENDBRANCH   8  22
BRANCH   6  24
ATOM     24  O   UNL     1      -0.200  11.026  22.879  0.00  0.00    +0.000 OA
ATOM     25  H   UNL     1       0.459  11.648  23.233  0.00  0.00    +0.000 HD
ENDBRANCH   6  24
BRANCH   1  26
ATOM     26  O   UNL     1       3.060   6.489  17.458  0.00  0.00    +0.000 OA
BRANCH  26  27
ATOM     27  C   UNL     1       4.351   6.932  17.308  0.00  0.00    +0.000 C 
ATOM     28  O   UNL     1       4.914   7.785  17.985  0.00  0.00    +0.000 OA
BRANCH  27  29
ATOM     29  C   UNL     1       5.015   6.111  16.224  0.00  0.00    +0.000 C 
BRANCH  29  30
ATOM     30  C   UNL     1       5.898   5.023  16.822  0.00  0.00    +0.000 C 
BRANCH  30  31
ATOM     31  C   UNL     1       6.995   4.575  15.859  0.00  0.00    +0.000 C 
BRANCH  31  32
ATOM     32  C   UNL     1       6.378   3.941  14.613  0.00  0.00    +0.000 C 
BRANCH  32  33
ATOM     33  C   UNL     1       7.056   4.435  13.338  0.00  0.00    +0.000 C 
BRANCH  33  34
ATOM     34  C   UNL     1       6.263   4.010  12.102  0.00  0.00    +0.000 C 
BRANCH  34  35
ATOM     35  C   UNL     1       4.923   3.391  12.498  0.00  0.00    +0.000 C 
BRANCH  35  36
ATOM     36  C   UNL     1       4.156   2.904  11.270  0.00  0.00    +0.000 C 
BRANCH  36  37
ATOM     37  C   UNL     1       3.876   4.060  10.310  0.00  0.00    +0.000 C 
BRANCH  37  39
ATOM     38  C   UNL     1       2.110   5.150   8.891  0.00  0.00    +0.000 C 
ATOM     39  C   UNL     1       2.547   3.869   9.584  0.00  0.00    +0.000 C 
ENDBRANCH  37  39
ENDBRANCH  36  37
ENDBRANCH  35  36
ENDBRANCH  34  35
ENDBRANCH  33  34
ENDBRANCH  32  33
ENDBRANCH  31  32
ENDBRANCH  30  31
ENDBRANCH  29  30
ENDBRANCH  27  29
ENDBRANCH  26  27
ENDBRANCH   1  26
TORSDOF 17
ENDMDL
MODEL 5
REMARK VINA RESULT:      -6.9      3.499      5.331
REMARK  Name = 
REMARK  18 active torsions:
REMARK  status: ('A' for Active; 'I' for Inactive)
REMARK    1  A    between atoms: C_1  and  C_2
REMARK    2  A    between atoms: C_2  and  C_3
REMARK    3  A    between atoms: C_3  and  C_4
REMARK    4  A    between atoms: C_4  and  C_5
REMARK    5  A    between atoms: C_5  and  C_6
REMARK    6  A    between atoms: C_6  and  C_7
REMARK    7  A    between atoms: C_7  and  C_8
REMARK    8  A    between atoms: C_8  and  C_9
REMARK    9  A    between atoms: C_9  and  C_10
REMARK   10  A    between atoms: C_10  and  C_11
REMARK   11  A    between atoms: C_11  and  C_12
REMARK   12  A    between atoms: C_12  and  O_14
REMARK   13  A    between atoms: O_14  and  C_15
REMARK   14  A    between atoms: C_16  and  C_17
REMARK   15  A    between atoms: C_20  and  O_21
REMARK   16  A    between atoms: C_22  and  O_23
REMARK   17  A    between atoms: C_28  and  O_29
REMARK   18  A    between atoms: C_31  and  O_32
REMARK                            x       y       z     vdW  Elec       q    Type
REMARK                         _______ _______ _______ _____ _____    ______ ____
ROOT
ATOM      1  C   UNL     1       2.323   7.265  18.296  0.00  0.00    +0.000 A 
ATOM      2  C   UNL     1       2.052   6.399  19.286  0.00  0.00    +0.000 A 
ATOM      3  O   UNL     1       1.443   6.738  20.475  0.00  0.00    +0.000 OA
ATOM      4  C   UNL     1       1.198   8.064  20.727  0.00  0.00    +0.000 A 
ATOM      5  C   UNL     1       0.693   8.345  21.999  0.00  0.00    +0.000 A 
ATOM      6  C   UNL     1       0.426   9.663  22.343  0.00  0.00    +0.000 A 
ATOM      7  C   UNL     1       0.658  10.696  21.441  0.00  0.00    +0.000 A 
ATOM      8  C   UNL     1       1.157  10.406  20.169  0.00  0.00    +0.000 A 
ATOM      9  C   UNL     1       1.423   9.081  19.797  0.00  0.00    +0.000 A 
ATOM     10  C   UNL     1       1.922   8.692  18.458  0.00  0.00    +0.000 A 
ATOM     11  O   UNL     1       1.984   9.459  17.504  0.00  0.00    +0.000 OA
ENDROOT
BRANCH   2  12
ATOM     12  C   UNL     1       2.390   4.972  19.221  0.00  0.00    +0.000 A 
ATOM     13  C   UNL     1       1.503   4.061  18.623  0.00  0.00    +0.000 A 
ATOM     14  C   UNL     1       1.871   2.723  18.436  0.00  0.00    +0.000 A 
ATOM     15  C   UNL     1       3.131   2.307  18.848  0.00  0.00    +0.000 A 
ATOM     16  C   UNL     1       4.003   3.201  19.464  0.00  0.00    +0.000 A 
ATOM     17  C   UNL     1       3.644   4.528  19.660  0.00  0.00    +0.000 A 
BRANCH  16  18
ATOM     18  O   UNL     1       5.245   2.786  19.855  0.00  0.00    +0.000 OA
ATOM     19  H   UNL     1       5.128   1.848  20.112  0.00  0.00    +0.000 HD
ENDBRANCH  16  18
BRANCH  15  20
ATOM     20  O   UNL     1       3.568   1.025  18.656  0.00  0.00    +0.000 OA
ATOM     21  H   UNL     1       2.813   0.425  18.783  0.00  0.00    +0.000 HD
ENDBRANCH  15  20
ENDBRANCH   2  12
BRANCH   8  22
ATOM     22  O   UNL     1       1.388  11.437  19.305  0.00  0.00    +0.000 OA
ATOM     23  H   UNL     1       0.678  11.490  18.646  0.00  0.00    +0.000 HD
ENDBRANCH   8  22
BRANCH   6  24
ATOM     24  O   UNL     1      -0.068   9.988  23.569  0.00  0.00    +0.000 OA
ATOM     25  H   UNL     1       0.276   9.354  24.221  0.00  0.00    +0.000 HD
ENDBRANCH   6  24
BRANCH   1  26
ATOM     26  O   UNL     1       2.924   6.875  17.092  0.00  0.00    +0.000 OA
BRANCH  26  27
ATOM     27  C   UNL     1       4.272   7.138  17.108  0.00  0.00    +0.000 C 
ATOM     28  O   UNL     1       4.820   8.109  17.618  0.00  0.00    +0.000 OA
BRANCH  27  29
ATOM     29  C   UNL     1       4.995   5.969  16.476  0.00  0.00    +0.000 C 
BRANCH  29  30
ATOM     30  C   UNL     1       6.151   5.501  17.353  0.00  0.00    +0.000 C 
BRANCH  30  31
ATOM     31  C   UNL     1       7.461   6.204  17.005  0.00  0.00    +0.000 C 
BRANCH  31  32
ATOM     32  C   UNL     1       7.890   7.120  18.150  0.00  0.00    +0.000 C 
BRANCH  32  33
ATOM     33  C   UNL     1       8.100   8.554  17.674  0.00  0.00    +0.000 C 
BRANCH  33  34
ATOM     34  C   UNL     1       8.717   9.409  18.781  0.00  0.00    +0.000 C 
BRANCH  34  35
ATOM     35  C   UNL     1       9.606  10.504  18.195  0.00  0.00    +0.000 C 
BRANCH  35  36
ATOM     36  C   UNL     1       8.954  11.879  18.335  0.00  0.00    +0.000 C 
BRANCH  36  37
ATOM     37  C   UNL     1       9.734  12.933  17.549  0.00  0.00    +0.000 C 
BRANCH  37  39
ATOM     38  C   UNL     1      12.058  13.705  16.978  0.00  0.00    +0.000 C 
ATOM     39  C   UNL     1      11.188  12.514  17.349  0.00  0.00    +0.000 C 
ENDBRANCH  37  39
ENDBRANCH  36  37
ENDBRANCH  35  36
ENDBRANCH  34  35
ENDBRANCH  33  34
ENDBRANCH  32  33
ENDBRANCH  31  32
ENDBRANCH  30  31
ENDBRANCH  29  30
ENDBRANCH  27  29
ENDBRANCH  26  27
ENDBRANCH   1  26
TORSDOF 17
ENDMDL
MODEL 6
REMARK VINA RESULT:      -6.9      5.153      8.182
REMARK  Name = 
REMARK  18 active torsions:
REMARK  status: ('A' for Active; 'I' for Inactive)
REMARK    1  A    between atoms: C_1  and  C_2
REMARK    2  A    between atoms: C_2  and  C_3
REMARK    3  A    between atoms: C_3  and  C_4
REMARK    4  A    between atoms: C_4  and  C_5
REMARK    5  A    between atoms: C_5  and  C_6
REMARK    6  A    between atoms: C_6  and  C_7
REMARK    7  A    between atoms: C_7  and  C_8
REMARK    8  A    between atoms: C_8  and  C_9
REMARK    9  A    between atoms: C_9  and  C_10
REMARK   10  A    between atoms: C_10  and  C_11
REMARK   11  A    between atoms: C_11  and  C_12
REMARK   12  A    between atoms: C_12  and  O_14
REMARK   13  A    between atoms: O_14  and  C_15
REMARK   14  A    between atoms: C_16  and  C_17
REMARK   15  A    between atoms: C_20  and  O_21
REMARK   16  A    between atoms: C_22  and  O_23
REMARK   17  A    between atoms: C_28  and  O_29
REMARK   18  A    between atoms: C_31  and  O_32
REMARK                            x       y       z     vdW  Elec       q    Type
REMARK                         _______ _______ _______ _____ _____    ______ ____
ROOT
ATOM      1  C   UNL     1       5.264   5.387  17.338  0.00  0.00    +0.000 A 
ATOM      2  C   UNL     1       4.916   4.531  16.364  0.00  0.00    +0.000 A 
ATOM      3  O   UNL     1       3.832   3.682  16.420  0.00  0.00    +0.000 OA
ATOM      4  C   UNL     1       3.119   3.613  17.590  0.00  0.00    +0.000 A 
ATOM      5  C   UNL     1       2.111   2.645  17.617  0.00  0.00    +0.000 A 
ATOM      6  C   UNL     1       1.347   2.499  18.767  0.00  0.00    +0.000 A 
ATOM      7  C   UNL     1       1.576   3.298  19.882  0.00  0.00    +0.000 A 
ATOM      8  C   UNL     1       2.581   4.267  19.844  0.00  0.00    +0.000 A 
ATOM      9  C   UNL     1       3.357   4.440  18.690  0.00  0.00    +0.000 A 
ATOM     10  C   UNL     1       4.418   5.466  18.564  0.00  0.00    +0.000 A 
ATOM     11  O   UNL     1       4.599   6.363  19.378  0.00  0.00    +0.000 OA
ENDROOT
BRANCH   2  12
ATOM     12  C   UNL     1       5.671   4.387  15.112  0.00  0.00    +0.000 A 
ATOM     13  C   UNL     1       5.159   3.607  14.063  0.00  0.00    +0.000 A 
ATOM     14  C   UNL     1       5.803   3.569  12.820  0.00  0.00    +0.000 A 
ATOM     15  C   UNL     1       6.957   4.321  12.636  0.00  0.00    +0.000 A 
ATOM     16  C   UNL     1       7.481   5.075  13.683  0.00  0.00    +0.000 A 
ATOM     17  C   UNL     1       6.853   5.113  14.920  0.00  0.00    +0.000 A 
BRANCH  16  18
ATOM     18  O   UNL     1       8.610   5.821  13.489  0.00  0.00    +0.000 OA
ATOM     19  H   UNL     1       8.287   6.691  13.177  0.00  0.00    +0.000 HD
ENDBRANCH  16  18
BRANCH  15  20
ATOM     20  O   UNL     1       7.610   4.361  11.435  0.00  0.00    +0.000 OA
ATOM     21  H   UNL     1       7.895   3.458  11.214  0.00  0.00    +0.000 HD
ENDBRANCH  15  20
ENDBRANCH   2  12
BRANCH   8  22
ATOM     22  O   UNL     1       2.796   5.031  20.955  0.00  0.00    +0.000 OA
ATOM     23  H   UNL     1       3.612   4.753  21.401  0.00  0.00    +0.000 HD
ENDBRANCH   8  22
BRANCH   6  24
ATOM     24  O   UNL     1       0.353   1.571  18.842  0.00  0.00    +0.000 OA
ATOM     25  H   UNL     1       0.748   0.686  18.767  0.00  0.00    +0.000 HD
ENDBRANCH   6  24
BRANCH   1  26
ATOM     26  O   UNL     1       6.363   6.250  17.231  0.00  0.00    +0.000 OA
BRANCH  26  27
ATOM     27  C   UNL     1       7.359   5.886  18.104  0.00  0.00    +0.000 C 
ATOM     28  O   UNL     1       7.644   4.746  18.451  0.00  0.00    +0.000 OA
BRANCH  27  29
ATOM     29  C   UNL     1       8.129   7.128  18.496  0.00  0.00    +0.000 C 
BRANCH  29  30
ATOM     30  C   UNL     1       7.594   8.357  17.770  0.00  0.00    +0.000 C 
BRANCH  30  31
ATOM     31  C   UNL     1       8.587   9.516  17.789  0.00  0.00    +0.000 C 
BRANCH  31  32
ATOM     32  C   UNL     1       8.961   9.868  19.228  0.00  0.00    +0.000 C 
BRANCH  32  33
ATOM     33  C   UNL     1      10.055  10.930  19.280  0.00  0.00    +0.000 C 
BRANCH  33  34
ATOM     34  C   UNL     1       9.485  12.313  18.965  0.00  0.00    +0.000 C 
BRANCH  34  35
ATOM     35  C   UNL     1      10.215  12.951  17.784  0.00  0.00    +0.000 C 
BRANCH  35  36
ATOM     36  C   UNL     1      10.807  14.306  18.167  0.00  0.00    +0.000 C 
BRANCH  36  37
ATOM     37  C   UNL     1      11.397  15.007  16.943  0.00  0.00    +0.000 C 
BRANCH  37  39
ATOM     38  C   UNL     1       9.723  16.762  17.605  0.00  0.00    +0.000 C 
ATOM     39  C   UNL     1      11.066  16.496  16.943  0.00  0.00    +0.000 C 
ENDBRANCH  37  39
ENDBRANCH  36  37
ENDBRANCH  35  36
ENDBRANCH  34  35
ENDBRANCH  33  34
ENDBRANCH  32  33
ENDBRANCH  31  32
ENDBRANCH  30  31
ENDBRANCH  29  30
ENDBRANCH  27  29
ENDBRANCH  26  27
ENDBRANCH   1  26
TORSDOF 17
ENDMDL
MODEL 7
REMARK VINA RESULT:      -6.8      4.538      8.447
REMARK  Name = 
REMARK  18 active torsions:
REMARK  status: ('A' for Active; 'I' for Inactive)
REMARK    1  A    between atoms: C_1  and  C_2
REMARK    2  A    between atoms: C_2  and  C_3
REMARK    3  A    between atoms: C_3  and  C_4
REMARK    4  A    between atoms: C_4  and  C_5
REMARK    5  A    between atoms: C_5  and  C_6
REMARK    6  A    between atoms: C_6  and  C_7
REMARK    7  A    between atoms: C_7  and  C_8
REMARK    8  A    between atoms: C_8  and  C_9
REMARK    9  A    between atoms: C_9  and  C_10
REMARK   10  A    between atoms: C_10  and  C_11
REMARK   11  A    between atoms: C_11  and  C_12
REMARK   12  A    between atoms: C_12  and  O_14
REMARK   13  A    between atoms: O_14  and  C_15
REMARK   14  A    between atoms: C_16  and  C_17
REMARK   15  A    between atoms: C_20  and  O_21
REMARK   16  A    between atoms: C_22  and  O_23
REMARK   17  A    between atoms: C_28  and  O_29
REMARK   18  A    between atoms: C_31  and  O_32
REMARK                            x       y       z     vdW  Elec       q    Type
REMARK                         _______ _______ _______ _____ _____    ______ ____
ROOT
ATOM      1  C   UNL     1       5.758   5.421  16.811  0.00  0.00    +0.000 A 
ATOM      2  C   UNL     1       4.795   4.499  16.652  0.00  0.00    +0.000 A 
ATOM      3  O   UNL     1       4.674   3.675  15.555  0.00  0.00    +0.000 OA
ATOM      4  C   UNL     1       5.518   3.878  14.493  0.00  0.00    +0.000 A 
ATOM      5  C   UNL     1       5.260   3.090  13.368  0.00  0.00    +0.000 A 
ATOM      6  C   UNL     1       6.059   3.238  12.242  0.00  0.00    +0.000 A 
ATOM      7  C   UNL     1       7.102   4.157  12.225  0.00  0.00    +0.000 A 
ATOM      8  C   UNL     1       7.358   4.937  13.355  0.00  0.00    +0.000 A 
ATOM      9  C   UNL     1       6.571   4.796  14.506  0.00  0.00    +0.000 A 
ATOM     10  C   UNL     1       6.800   5.563  15.752  0.00  0.00    +0.000 A 
ATOM     11  O   UNL     1       7.790   6.255  15.954  0.00  0.00    +0.000 OA
ENDROOT
BRANCH   2  12
ATOM     12  C   UNL     1       3.733   4.269  17.641  0.00  0.00    +0.000 A 
ATOM     13  C   UNL     1       3.036   5.354  18.197  0.00  0.00    +0.000 A 
ATOM     14  C   UNL     1       1.937   5.143  19.038  0.00  0.00    +0.000 A 
ATOM     15  C   UNL     1       1.540   3.840  19.312  0.00  0.00    +0.000 A 
ATOM     16  C   UNL     1       2.244   2.761  18.783  0.00  0.00    +0.000 A 
ATOM     17  C   UNL     1       3.339   2.961  17.955  0.00  0.00    +0.000 A 
BRANCH  16  18
ATOM     18  O   UNL     1       1.838   1.483  19.049  0.00  0.00    +0.000 OA
ATOM     19  H   UNL     1       1.646   1.092  18.172  0.00  0.00    +0.000 HD
ENDBRANCH  16  18
BRANCH  15  20
ATOM     20  O   UNL     1       0.449   3.565  20.091  0.00  0.00    +0.000 OA
ATOM     21  H   UNL     1       0.530   2.651  20.414  0.00  0.00    +0.000 HD
ENDBRANCH  15  20
ENDBRANCH   2  12
BRANCH   8  22
ATOM     22  O   UNL     1       8.379   5.841  13.310  0.00  0.00    +0.000 OA
ATOM     23  H   UNL     1       8.804   5.825  12.438  0.00  0.00    +0.000 HD
ENDBRANCH   8  22
BRANCH   6  24
ATOM     24  O   UNL     1       5.848   2.493  11.123  0.00  0.00    +0.000 OA
ATOM     25  H   UNL     1       5.033   2.803  10.691  0.00  0.00    +0.000 HD
ENDBRANCH   6  24
BRANCH   1  26
ATOM     26  O   UNL     1       5.859   6.224  17.954  0.00  0.00    +0.000 OA
BRANCH  26  27
ATOM     27  C   UNL     1       6.705   5.661  18.878  0.00  0.00    +0.000 C 
ATOM     28  O   UNL     1       6.429   4.769  19.672  0.00  0.00    +0.000 OA
BRANCH  27  29
ATOM     29  C   UNL     1       8.084   6.254  18.686  0.00  0.00    +0.000 C 
BRANCH  29  30
ATOM     30  C   UNL     1       8.077   7.755  18.951  0.00  0.00    +0.000 C 
BRANCH  30  31
ATOM     31  C   UNL     1       8.062   8.569  17.660  0.00  0.00    +0.000 C 
BRANCH  31  32
ATOM     32  C   UNL     1       8.527   9.999  17.930  0.00  0.00    +0.000 C 
BRANCH  32  33
ATOM     33  C   UNL     1       9.273  10.106  19.256  0.00  0.00    +0.000 C 
BRANCH  33  34
ATOM     34  C   UNL     1      10.236  11.293  19.243  0.00  0.00    +0.000 C 
BRANCH  34  35
ATOM     35  C   UNL     1      10.741  11.573  17.828  0.00  0.00    +0.000 C 
BRANCH  35  36
ATOM     36  C   UNL     1      10.750  13.071  17.531  0.00  0.00    +0.000 C 
BRANCH  36  37
ATOM     37  C   UNL     1      10.194  13.863  18.714  0.00  0.00    +0.000 C 
BRANCH  37  39
ATOM     38  C   UNL     1       7.823  13.839  17.879  0.00  0.00    +0.000 C 
ATOM     39  C   UNL     1       8.995  14.712  18.301  0.00  0.00    +0.000 C 
ENDBRANCH  37  39
ENDBRANCH  36  37
ENDBRANCH  35  36
ENDBRANCH  34  35
ENDBRANCH  33  34
ENDBRANCH  32  33
ENDBRANCH  31  32
ENDBRANCH  30  31
ENDBRANCH  29  30
ENDBRANCH  27  29
ENDBRANCH  26  27
ENDBRANCH   1  26
TORSDOF 17
ENDMDL
MODEL 8
REMARK VINA RESULT:      -6.8      5.364      8.336
REMARK  Name = 
REMARK  18 active torsions:
REMARK  status: ('A' for Active; 'I' for Inactive)
REMARK    1  A    between atoms: C_1  and  C_2
REMARK    2  A    between atoms: C_2  and  C_3
REMARK    3  A    between atoms: C_3  and  C_4
REMARK    4  A    between atoms: C_4  and  C_5
REMARK    5  A    between atoms: C_5  and  C_6
REMARK    6  A    between atoms: C_6  and  C_7
REMARK    7  A    between atoms: C_7  and  C_8
REMARK    8  A    between atoms: C_8  and  C_9
REMARK    9  A    between atoms: C_9  and  C_10
REMARK   10  A    between atoms: C_10  and  C_11
REMARK   11  A    between atoms: C_11  and  C_12
REMARK   12  A    between atoms: C_12  and  O_14
REMARK   13  A    between atoms: O_14  and  C_15
REMARK   14  A    between atoms: C_16  and  C_17
REMARK   15  A    between atoms: C_20  and  O_21
REMARK   16  A    between atoms: C_22  and  O_23
REMARK   17  A    between atoms: C_28  and  O_29
REMARK   18  A    between atoms: C_31  and  O_32
REMARK                            x       y       z     vdW  Elec       q    Type
REMARK                         _______ _______ _______ _____ _____    ______ ____
ROOT
ATOM      1  C   UNL     1       5.776   4.932  17.480  0.00  0.00    +0.000 A 
ATOM      2  C   UNL     1       5.220   4.371  16.394  0.00  0.00    +0.000 A 
ATOM      3  O   UNL     1       3.966   3.799  16.365  0.00  0.00    +0.000 OA
ATOM      4  C   UNL     1       3.275   3.684  17.543  0.00  0.00    +0.000 A 
ATOM      5  C   UNL     1       2.068   2.986  17.461  0.00  0.00    +0.000 A 
ATOM      6  C   UNL     1       1.308   2.813  18.610  0.00  0.00    +0.000 A 
ATOM      7  C   UNL     1       1.737   3.320  19.831  0.00  0.00    +0.000 A 
ATOM      8  C   UNL     1       2.943   4.022  19.904  0.00  0.00    +0.000 A 
ATOM      9  C   UNL     1       3.720   4.219  18.755  0.00  0.00    +0.000 A 
ATOM     10  C   UNL     1       4.991   4.978  18.747  0.00  0.00    +0.000 A 
ATOM     11  O   UNL     1       5.392   5.646  19.693  0.00  0.00    +0.000 OA
ENDROOT
BRANCH   2  12
ATOM     12  C   UNL     1       5.900   4.288  15.095  0.00  0.00    +0.000 A 
ATOM     13  C   UNL     1       5.344   3.528  14.052  0.00  0.00    +0.000 A 
ATOM     14  C   UNL     1       5.912   3.547  12.772  0.00  0.00    +0.000 A 
ATOM     15  C   UNL     1       7.034   4.335  12.545  0.00  0.00    +0.000 A 
ATOM     16  C   UNL     1       7.602   5.070  13.583  0.00  0.00    +0.000 A 
ATOM     17  C   UNL     1       7.050   5.051  14.856  0.00  0.00    +0.000 A 
BRANCH  16  18
ATOM     18  O   UNL     1       8.698   5.851  13.346  0.00  0.00    +0.000 OA
ATOM     19  H   UNL     1       9.456   5.231  13.348  0.00  0.00    +0.000 HD
ENDBRANCH  16  18
BRANCH  15  20
ATOM     20  O   UNL     1       7.611   4.432  11.308  0.00  0.00    +0.000 OA
ATOM     21  H   UNL     1       8.576   4.380  11.419  0.00  0.00    +0.000 HD
ENDBRANCH  15  20
ENDBRANCH   2  12
BRANCH   8  22
ATOM     22  O   UNL     1       3.350   4.500  21.116  0.00  0.00    +0.000 OA
ATOM     23  H   UNL     1       2.782   4.153  21.823  0.00  0.00    +0.000 HD
ENDBRANCH   8  22
BRANCH   6  24
ATOM     24  O   UNL     1       0.124   2.141  18.580  0.00  0.00    +0.000 OA
ATOM     25  H   UNL     1       0.040   1.622  19.398  0.00  0.00    +0.000 HD
ENDBRANCH   6  24
BRANCH   1  26
ATOM     26  O   UNL     1       7.046   5.523  17.461  0.00  0.00    +0.000 OA
BRANCH  26  27
ATOM     27  C   UNL     1       6.950   6.890  17.387  0.00  0.00    +0.000 C 
ATOM     28  O   UNL     1       6.086   7.530  16.799  0.00  0.00    +0.000 OA
BRANCH  27  29
ATOM     29  C   UNL     1       8.041   7.494  18.246  0.00  0.00    +0.000 C 
BRANCH  29  30
ATOM     30  C   UNL     1       8.187   8.987  17.977  0.00  0.00    +0.000 C 
BRANCH  30  31
ATOM     31  C   UNL     1       9.120   9.664  18.977  0.00  0.00    +0.000 C 
BRANCH  31  32
ATOM     32  C   UNL     1       9.227  11.158  18.674  0.00  0.00    +0.000 C 
BRANCH  32  33
ATOM     33  C   UNL     1      10.574  11.725  19.110  0.00  0.00    +0.000 C 
BRANCH  33  34
ATOM     34  C   UNL     1      11.544  11.789  17.930  0.00  0.00    +0.000 C 
BRANCH  34  35
ATOM     35  C   UNL     1      11.267  13.014  17.060  0.00  0.00    +0.000 C 
BRANCH  35  36
ATOM     36  C   UNL     1      11.253  14.293  17.896  0.00  0.00    +0.000 C 
BRANCH  36  37
ATOM     37  C   UNL     1       9.924  15.031  17.737  0.00  0.00    +0.000 C 
BRANCH  37  39
ATOM     38  C   UNL     1      11.617  16.830  17.271  0.00  0.00    +0.000 C 
ATOM     39  C   UNL     1      10.142  16.518  17.468  0.00  0.00    +0.000 C 
ENDBRANCH  37  39
ENDBRANCH  36  37
ENDBRANCH  35  36
ENDBRANCH  34  35
ENDBRANCH  33  34
ENDBRANCH  32  33
ENDBRANCH  31  32
ENDBRANCH  30  31
ENDBRANCH  29  30
ENDBRANCH  27  29
ENDBRANCH  26  27
ENDBRANCH   1  26
TORSDOF 17
ENDMDL
MODEL 9
REMARK VINA RESULT:      -6.8      0.756      1.351
REMARK  Name = 
REMARK  18 active torsions:
REMARK  status: ('A' for Active; 'I' for Inactive)
REMARK    1  A    between atoms: C_1  and  C_2
REMARK    2  A    between atoms: C_2  and  C_3
REMARK    3  A    between atoms: C_3  and  C_4
REMARK    4  A    between atoms: C_4  and  C_5
REMARK    5  A    between atoms: C_5  and  C_6
REMARK    6  A    between atoms: C_6  and  C_7
REMARK    7  A    between atoms: C_7  and  C_8
REMARK    8  A    between atoms: C_8  and  C_9
REMARK    9  A    between atoms: C_9  and  C_10
REMARK   10  A    between atoms: C_10  and  C_11
REMARK   11  A    between atoms: C_11  and  C_12
REMARK   12  A    between atoms: C_12  and  O_14
REMARK   13  A    between atoms: O_14  and  C_15
REMARK   14  A    between atoms: C_16  and  C_17
REMARK   15  A    between atoms: C_20  and  O_21
REMARK   16  A    between atoms: C_22  and  O_23
REMARK   17  A    between atoms: C_28  and  O_29
REMARK   18  A    between atoms: C_31  and  O_32
REMARK                            x       y       z     vdW  Elec       q    Type
REMARK                         _______ _______ _______ _____ _____    ______ ____
ROOT
ATOM      1  C   UNL     1       2.810   7.103  18.145  0.00  0.00    +0.000 A 
ATOM      2  C   UNL     1       2.535   6.164  19.064  0.00  0.00    +0.000 A 
ATOM      3  O   UNL     1       1.787   6.378  20.201  0.00  0.00    +0.000 OA
ATOM      4  C   UNL     1       1.387   7.658  20.486  0.00  0.00    +0.000 A 
ATOM      5  C   UNL     1       0.739   7.821  21.713  0.00  0.00    +0.000 A 
ATOM      6  C   UNL     1       0.309   9.087  22.087  0.00  0.00    +0.000 A 
ATOM      7  C   UNL     1       0.519  10.184  21.259  0.00  0.00    +0.000 A 
ATOM      8  C   UNL     1       1.162  10.012  20.031  0.00  0.00    +0.000 A 
ATOM      9  C   UNL     1       1.594   8.741  19.629  0.00  0.00    +0.000 A 
ATOM     10  C   UNL     1       2.253   8.475  18.329  0.00  0.00    +0.000 A 
ATOM     11  O   UNL     1       2.326   9.294  17.422  0.00  0.00    +0.000 OA
ENDROOT
BRANCH   2  12
ATOM     12  C   UNL     1       3.021   4.781  18.969  0.00  0.00    +0.000 A 
ATOM     13  C   UNL     1       4.044   4.330  19.819  0.00  0.00    +0.000 A 
ATOM     14  C   UNL     1       4.424   2.982  19.829  0.00  0.00    +0.000 A 
ATOM     15  C   UNL     1       3.768   2.092  18.987  0.00  0.00    +0.000 A 
ATOM     16  C   UNL     1       2.771   2.540  18.125  0.00  0.00    +0.000 A 
ATOM     17  C   UNL     1       2.393   3.876  18.103  0.00  0.00    +0.000 A 
BRANCH  16  18
ATOM     18  O   UNL     1       2.124   1.655  17.309  0.00  0.00    +0.000 OA
ATOM     19  H   UNL     1       1.366   1.331  17.838  0.00  0.00    +0.000 HD
ENDBRANCH  16  18
BRANCH  15  20
ATOM     20  O   UNL     1       4.061   0.755  18.978  0.00  0.00    +0.000 OA
ATOM     21  H   UNL     1       4.684   0.586  18.250  0.00  0.00    +0.000 HD
ENDBRANCH  15  20
ENDBRANCH   2  12
BRANCH   8  22
ATOM     22  O   UNL     1       1.368  11.105  19.241  0.00  0.00    +0.000 OA
ATOM     23  H   UNL     1       2.058  11.671  19.623  0.00  0.00    +0.000 HD
ENDBRANCH   8  22
BRANCH   6  24
ATOM     24  O   UNL     1      -0.327   9.296  23.272  0.00  0.00    +0.000 OA
ATOM     25  H   UNL     1      -1.268   9.465  23.095  0.00  0.00    +0.000 HD
ENDBRANCH   6  24
BRANCH   1  26
ATOM     26  O   UNL     1       3.557   6.839  16.990  0.00  0.00    +0.000 OA
BRANCH  26  27
ATOM     27  C   UNL     1       4.901   6.990  17.229  0.00  0.00    +0.000 C 
ATOM     28  O   UNL     1       5.488   8.042  17.457  0.00  0.00    +0.000 OA
BRANCH  27  29
ATOM     29  C   UNL     1       5.537   5.618  17.270  0.00  0.00    +0.000 C 
BRANCH  29  30
ATOM     30  C   UNL     1       5.211   4.824  16.010  0.00  0.00    +0.000 C 
BRANCH  30  31
ATOM     31  C   UNL     1       5.941   5.365  14.783  0.00  0.00    +0.000 C 
BRANCH  31  32
ATOM     32  C   UNL     1       6.842   4.285  14.185  0.00  0.00    +0.000 C 
BRANCH  32  33
ATOM     33  C   UNL     1       6.580   4.098  12.694  0.00  0.00    +0.000 C 
BRANCH  33  34
ATOM     34  C   UNL     1       5.101   3.810  12.434  0.00  0.00    +0.000 C 
BRANCH  34  35
ATOM     35  C   UNL     1       4.928   2.526  11.623  0.00  0.00    +0.000 C 
BRANCH  35  36
ATOM     36  C   UNL     1       3.699   2.604  10.720  0.00  0.00    +0.000 C 
BRANCH  36  37
ATOM     37  C   UNL     1       3.465   4.038  10.244  0.00  0.00    +0.000 C 
BRANCH  37  39
ATOM     38  C   UNL     1       2.208   5.435   8.574  0.00  0.00    +0.000 C 
ATOM     39  C   UNL     1       2.224   4.134   9.361  0.00  0.00    +0.000 C 
ENDBRANCH  37  39
ENDBRANCH  36  37
ENDBRANCH  35  36
ENDBRANCH  34  35
ENDBRANCH  33  34
ENDBRANCH  32  33
ENDBRANCH  31  32
ENDBRANCH  30  31
ENDBRANCH  29  30
ENDBRANCH  27  29
ENDBRANCH  26  27
ENDBRANCH   1  26
TORSDOF 17
ENDMDL
