MODEL 1
REMARK VINA RESULT:      -8.2      0.000      0.000
REMARK  Name = 
REMARK  2 active torsions:
REMARK  status: ('A' for Active; 'I' for Inactive)
REMARK    1  A    between atoms: N_11  and  C_12
REMARK    2  A    between atoms: C_12  and  C_13
REMARK                            x       y       z     vdW  Elec       q    Type
REMARK                         _______ _______ _______ _____ _____    ______ ____
ROOT
ATOM      1  C   UNL     1       1.882   2.026  20.575  0.00  0.00    +0.000 A 
ATOM      2  C   UNL     1       2.208   2.865  21.639  0.00  0.00    +0.000 A 
ATOM      3  C   UNL     1       2.385   4.235  21.425  0.00  0.00    +0.000 A 
ATOM      4  C   UNL     1       2.237   4.787  20.139  0.00  0.00    +0.000 A 
ATOM      5  C   UNL     1       1.888   3.928  19.065  0.00  0.00    +0.000 A 
ATOM      6  C   UNL     1       1.721   2.553  19.294  0.00  0.00    +0.000 A 
ATOM      7  C   UNL     1       1.673   4.452  17.660  0.00  0.00    +0.000 C 
ATOM      8  C   UNL     1       1.517   5.982  17.593  0.00  0.00    +0.000 C 
ATOM      9  C   UNL     1       2.586   6.673  18.444  0.00  0.00    +0.000 C 
ATOM     10  C   UNL     1       2.559   8.212  18.294  0.00  0.00    +0.000 C 
ATOM     11  N   UNL     1       1.350   8.792  18.925  0.00  0.00    +0.000 NA
ATOM     12  C   UNL     1       1.381   8.569  20.380  0.00  0.00    +0.000 C 
ATOM     13  C   UNL     1       1.334   7.060  20.666  0.00  0.00    +0.000 C 
ATOM     14  C   UNL     1       2.462   6.285  19.946  0.00  0.00    +0.000 C 
ENDROOT
BRANCH  11  15
ATOM     15  C   UNL     1       1.130  10.221  18.563  0.00  0.00    +0.000 C 
BRANCH  15  16
ATOM     16  C   UNL     1      -0.356  10.476  18.594  0.00  0.00    +0.000 A 
ATOM     17  C   UNL     1      -1.111   9.887  17.572  0.00  0.00    +0.000 A 
ATOM     18  C   UNL     1      -2.439  10.223  17.388  0.00  0.00    +0.000 A 
ATOM     19  C   UNL     1      -3.054  11.140  18.234  0.00  0.00    +0.000 A 
ATOM     20  C   UNL     1      -4.372  11.537  17.985  0.00  0.00    +0.000 A 
ATOM     21  C   UNL     1      -5.012  12.440  18.834  0.00  0.00    +0.000 A 
ATOM     22  C   UNL     1      -4.343  12.935  19.957  0.00  0.00    +0.000 A 
ATOM     23  C   UNL     1      -3.011  12.566  20.210  0.00  0.00    +0.000 A 
ATOM     24  C   UNL     1      -2.347  11.684  19.338  0.00  0.00    +0.000 A 
ATOM     25  C   UNL     1      -0.982  11.354  19.509  0.00  0.00    +0.000 A 
ENDBRANCH  15  16
ENDBRANCH  11  15
TORSDOF 2
ENDMDL
MODEL 2
REMARK VINA RESULT:      -8.0      0.709      1.566
REMARK  Name = 
REMARK  2 active torsions:
REMARK  status: ('A' for Active; 'I' for Inactive)
REMARK    1  A    between atoms: N_11  and  C_12
REMARK    2  A    between atoms: C_12  and  C_13
REMARK                            x       y       z     vdW  Elec       q    Type
REMARK                         _______ _______ _______ _____ _____    ______ ____
ROOT
ATOM      1  C   UNL     1       1.349   2.218  20.744  0.00  0.00    +0.000 A 
ATOM      2  C   UNL     1       1.793   3.073  21.751  0.00  0.00    +0.000 A 
ATOM      3  C   UNL     1       2.162   4.386  21.445  0.00  0.00    +0.000 A 
ATOM      4  C   UNL     1       2.092   4.865  20.124  0.00  0.00    +0.000 A 
ATOM      5  C   UNL     1       1.622   3.992  19.108  0.00  0.00    +0.000 A 
ATOM      6  C   UNL     1       1.262   2.674  19.429  0.00  0.00    +0.000 A 
ATOM      7  C   UNL     1       1.481   4.445  17.669  0.00  0.00    +0.000 C 
ATOM      8  C   UNL     1       1.543   5.972  17.497  0.00  0.00    +0.000 C 
ATOM      9  C   UNL     1       2.701   6.562  18.308  0.00  0.00    +0.000 C 
ATOM     10  C   UNL     1       2.893   8.076  18.053  0.00  0.00    +0.000 C 
ATOM     11  N   UNL     1       1.779   8.862  18.634  0.00  0.00    +0.000 NA
ATOM     12  C   UNL     1       1.781   8.737  20.101  0.00  0.00    +0.000 C 
ATOM     13  C   UNL     1       1.521   7.273  20.489  0.00  0.00    +0.000 C 
ATOM     14  C   UNL     1       2.526   6.299  19.831  0.00  0.00    +0.000 C 
ENDROOT
BRANCH  11  15
ATOM     15  C   UNL     1       1.764  10.280  18.174  0.00  0.00    +0.000 C 
BRANCH  15  16
ATOM     16  C   UNL     1       0.334  10.760  18.223  0.00  0.00    +0.000 A 
ATOM     17  C   UNL     1       0.094  11.932  18.950  0.00  0.00    +0.000 A 
ATOM     18  C   UNL     1      -1.196  12.340  19.230  0.00  0.00    +0.000 A 
ATOM     19  C   UNL     1      -2.281  11.601  18.771  0.00  0.00    +0.000 A 
ATOM     20  C   UNL     1      -3.579  11.977  19.133  0.00  0.00    +0.000 A 
ATOM     21  C   UNL     1      -4.680  11.259  18.666  0.00  0.00    +0.000 A 
ATOM     22  C   UNL     1      -4.491  10.171  17.808  0.00  0.00    +0.000 A 
ATOM     23  C   UNL     1      -3.193   9.765  17.453  0.00  0.00    +0.000 A 
ATOM     24  C   UNL     1      -2.076  10.461  17.949  0.00  0.00    +0.000 A 
ATOM     25  C   UNL     1      -0.754  10.034  17.685  0.00  0.00    +0.000 A 
ENDBRANCH  15  16
ENDBRANCH  11  15
TORSDOF 2
ENDMDL
MODEL 3
REMARK VINA RESULT:      -8.0      4.070      6.291
REMARK  Name = 
REMARK  2 active torsions:
REMARK  status: ('A' for Active; 'I' for Inactive)
REMARK    1  A    between atoms: N_11  and  C_12
REMARK    2  A    between atoms: C_12  and  C_13
REMARK                            x       y       z     vdW  Elec       q    Type
REMARK                         _______ _______ _______ _____ _____    ______ ____
ROOT
ATOM      1  C   UNL     1       7.093   4.329  12.116  0.00  0.00    +0.000 A 
ATOM      2  C   UNL     1       6.128   3.353  12.351  0.00  0.00    +0.000 A 
ATOM      3  C   UNL     1       5.602   3.180  13.634  0.00  0.00    +0.000 A 
ATOM      4  C   UNL     1       6.035   3.984  14.704  0.00  0.00    +0.000 A 
ATOM      5  C   UNL     1       7.006   4.989  14.451  0.00  0.00    +0.000 A 
ATOM      6  C   UNL     1       7.531   5.145  13.159  0.00  0.00    +0.000 A 
ATOM      7  C   UNL     1       7.494   5.920  15.542  0.00  0.00    +0.000 C 
ATOM      8  C   UNL     1       6.607   5.911  16.799  0.00  0.00    +0.000 C 
ATOM      9  C   UNL     1       6.257   4.477  17.206  0.00  0.00    +0.000 C 
ATOM     10  C   UNL     1       5.487   4.412  18.545  0.00  0.00    +0.000 C 
ATOM     11  N   UNL     1       4.115   4.953  18.402  0.00  0.00    +0.000 NA
ATOM     12  C   UNL     1       3.329   4.106  17.489  0.00  0.00    +0.000 C 
ATOM     13  C   UNL     1       3.956   4.148  16.087  0.00  0.00    +0.000 C 
ATOM     14  C   UNL     1       5.450   3.747  16.094  0.00  0.00    +0.000 C 
ENDROOT
BRANCH  11  15
ATOM     15  C   UNL     1       3.436   5.178  19.710  0.00  0.00    +0.000 C 
BRANCH  15  16
ATOM     16  C   UNL     1       2.612   6.435  19.585  0.00  0.00    +0.000 A 
ATOM     17  C   UNL     1       2.713   7.130  18.373  0.00  0.00    +0.000 A 
ATOM     18  C   UNL     1       2.168   8.391  18.232  0.00  0.00    +0.000 A 
ATOM     19  C   UNL     1       1.485   8.983  19.290  0.00  0.00    +0.000 A 
ATOM     20  C   UNL     1       1.012  10.293  19.163  0.00  0.00    +0.000 A 
ATOM     21  C   UNL     1       0.309  10.896  20.206  0.00  0.00    +0.000 A 
ATOM     22  C   UNL     1       0.050  10.180  21.379  0.00  0.00    +0.000 A 
ATOM     23  C   UNL     1       0.538   8.871  21.533  0.00  0.00    +0.000 A 
ATOM     24  C   UNL     1       1.280   8.269  20.500  0.00  0.00    +0.000 A 
ATOM     25  C   UNL     1       1.860   6.988  20.648  0.00  0.00    +0.000 A 
ENDBRANCH  15  16
ENDBRANCH  11  15
TORSDOF 2
ENDMDL
MODEL 4
REMARK VINA RESULT:      -8.0      1.483      8.296
REMARK  Name = 
REMARK  2 active torsions:
REMARK  status: ('A' for Active; 'I' for Inactive)
REMARK    1  A    between atoms: N_11  and  C_12
REMARK    2  A    between atoms: C_12  and  C_13
REMARK                            x       y       z     vdW  Elec       q    Type
REMARK                         _______ _______ _______ _____ _____    ______ ____
ROOT
ATOM      1  C   UNL     1      -3.937  12.855  22.265  0.00  0.00    +0.000 A 
ATOM      2  C   UNL     1      -3.966  13.070  20.888  0.00  0.00    +0.000 A 
ATOM      3  C   UNL     1      -2.892  12.663  20.092  0.00  0.00    +0.000 A 
ATOM      4  C   UNL     1      -1.771  12.033  20.662  0.00  0.00    +0.000 A 
ATOM      5  C   UNL     1      -1.758  11.802  22.063  0.00  0.00    +0.000 A 
ATOM      6  C   UNL     1      -2.840  12.223  22.851  0.00  0.00    +0.000 A 
ATOM      7  C   UNL     1      -0.605  11.095  22.745  0.00  0.00    +0.000 C 
ATOM      8  C   UNL     1       0.330  10.362  21.767  0.00  0.00    +0.000 C 
ATOM      9  C   UNL     1       0.665  11.252  20.567  0.00  0.00    +0.000 C 
ATOM     10  C   UNL     1       1.716  10.612  19.630  0.00  0.00    +0.000 C 
ATOM     11  N   UNL     1       1.151   9.449  18.905  0.00  0.00    +0.000 NA
ATOM     12  C   UNL     1       0.076   9.888  18.001  0.00  0.00    +0.000 C 
ATOM     13  C   UNL     1      -1.076  10.481  18.827  0.00  0.00    +0.000 C 
ATOM     14  C   UNL     1      -0.611  11.625  19.757  0.00  0.00    +0.000 C 
ENDROOT
BRANCH  11  15
ATOM     15  C   UNL     1       2.189   8.630  18.216  0.00  0.00    +0.000 C 
BRANCH  15  16
ATOM     16  C   UNL     1       2.025   7.203  18.679  0.00  0.00    +0.000 A 
ATOM     17  C   UNL     1       1.900   7.006  20.059  0.00  0.00    +0.000 A 
ATOM     18  C   UNL     1       1.954   5.736  20.601  0.00  0.00    +0.000 A 
ATOM     19  C   UNL     1       2.110   4.627  19.776  0.00  0.00    +0.000 A 
ATOM     20  C   UNL     1       2.250   3.355  20.341  0.00  0.00    +0.000 A 
ATOM     21  C   UNL     1       2.388   2.230  19.529  0.00  0.00    +0.000 A 
ATOM     22  C   UNL     1       2.362   2.366  18.138  0.00  0.00    +0.000 A 
ATOM     23  C   UNL     1       2.247   3.638  17.552  0.00  0.00    +0.000 A 
ATOM     24  C   UNL     1       2.144   4.782  18.364  0.00  0.00    +0.000 A 
ATOM     25  C   UNL     1       2.112   6.085  17.816  0.00  0.00    +0.000 A 
ENDBRANCH  15  16
ENDBRANCH  11  15
TORSDOF 2
ENDMDL
MODEL 5
REMARK VINA RESULT:      -7.9      4.017      6.509
REMARK  Name = 
REMARK  2 active torsions:
REMARK  status: ('A' for Active; 'I' for Inactive)
REMARK    1  A    between atoms: N_11  and  C_12
REMARK    2  A    between atoms: C_12  and  C_13
REMARK                            x       y       z     vdW  Elec       q    Type
REMARK                         _______ _______ _______ _____ _____    ______ ____
ROOT
ATOM      1  C   UNL     1       7.448   4.697  12.360  0.00  0.00    +0.000 A 
ATOM      2  C   UNL     1       6.524   3.654  12.405  0.00  0.00    +0.000 A 
ATOM      3  C   UNL     1       5.880   3.339  13.604  0.00  0.00    +0.000 A 
ATOM      4  C   UNL     1       6.148   4.064  14.779  0.00  0.00    +0.000 A 
ATOM      5  C   UNL     1       7.077   5.136  14.720  0.00  0.00    +0.000 A 
ATOM      6  C   UNL     1       7.723   5.436  13.510  0.00  0.00    +0.000 A 
ATOM      7  C   UNL     1       7.390   5.989  15.932  0.00  0.00    +0.000 C 
ATOM      8  C   UNL     1       6.379   5.820  17.079  0.00  0.00    +0.000 C 
ATOM      9  C   UNL     1       6.078   4.338  17.323  0.00  0.00    +0.000 C 
ATOM     10  C   UNL     1       5.178   4.111  18.560  0.00  0.00    +0.000 C 
ATOM     11  N   UNL     1       3.797   4.591  18.314  0.00  0.00    +0.000 NA
ATOM     12  C   UNL     1       3.165   3.791  17.252  0.00  0.00    +0.000 C 
ATOM     13  C   UNL     1       3.931   3.993  15.935  0.00  0.00    +0.000 C 
ATOM     14  C   UNL     1       5.437   3.671  16.071  0.00  0.00    +0.000 C 
ENDROOT
BRANCH  11  15
ATOM     15  C   UNL     1       2.974   4.661  19.554  0.00  0.00    +0.000 C 
BRANCH  15  16
ATOM     16  C   UNL     1       2.520   6.091  19.720  0.00  0.00    +0.000 A 
ATOM     17  C   UNL     1       1.826   6.392  20.898  0.00  0.00    +0.000 A 
ATOM     18  C   UNL     1       1.190   7.609  21.054  0.00  0.00    +0.000 A 
ATOM     19  C   UNL     1       1.253   8.567  20.048  0.00  0.00    +0.000 A 
ATOM     20  C   UNL     1       0.535   9.760  20.182  0.00  0.00    +0.000 A 
ATOM     21  C   UNL     1       0.601  10.741  19.192  0.00  0.00    +0.000 A 
ATOM     22  C   UNL     1       1.409  10.545  18.068  0.00  0.00    +0.000 A 
ATOM     23  C   UNL     1       2.117   9.342  17.905  0.00  0.00    +0.000 A 
ATOM     24  C   UNL     1       2.028   8.333  18.882  0.00  0.00    +0.000 A 
ATOM     25  C   UNL     1       2.657   7.078  18.716  0.00  0.00    +0.000 A 
ENDBRANCH  15  16
ENDBRANCH  11  15
TORSDOF 2
ENDMDL
MODEL 6
REMARK VINA RESULT:      -7.7      1.330      8.464
REMARK  Name = 
REMARK  2 active torsions:
REMARK  status: ('A' for Active; 'I' for Inactive)
REMARK    1  A    between atoms: N_11  and  C_12
REMARK    2  A    between atoms: C_12  and  C_13
REMARK                            x       y       z     vdW  Elec       q    Type
REMARK                         _______ _______ _______ _____ _____    ______ ____
ROOT
ATOM      1  C   UNL     1      -5.493  12.822  21.576  0.00  0.00    +0.000 A 
ATOM      2  C   UNL     1      -5.562  12.672  20.193  0.00  0.00    +0.000 A 
ATOM      3  C   UNL     1      -4.398  12.459  19.450  0.00  0.00    +0.000 A 
ATOM      4  C   UNL     1      -3.143  12.391  20.083  0.00  0.00    +0.000 A 
ATOM      5  C   UNL     1      -3.083  12.527  21.495  0.00  0.00    +0.000 A 
ATOM      6  C   UNL     1      -4.261  12.750  22.226  0.00  0.00    +0.000 A 
ATOM      7  C   UNL     1      -1.775  12.428  22.252  0.00  0.00    +0.000 C 
ATOM      8  C   UNL     1      -0.629  11.827  21.421  0.00  0.00    +0.000 C 
ATOM      9  C   UNL     1      -0.584  12.455  20.025  0.00  0.00    +0.000 C 
ATOM     10  C   UNL     1       0.639  11.988  19.203  0.00  0.00    +0.000 C 
ATOM     11  N   UNL     1       0.511  10.564  18.812  0.00  0.00    +0.000 NA
ATOM     12  C   UNL     1      -0.630  10.390  17.897  0.00  0.00    +0.000 C 
ATOM     13  C   UNL     1      -1.931  10.754  18.629  0.00  0.00    +0.000 C 
ATOM     14  C   UNL     1      -1.894  12.179  19.231  0.00  0.00    +0.000 C 
ENDROOT
BRANCH  11  15
ATOM     15  C   UNL     1       1.776   9.989  18.274  0.00  0.00    +0.000 C 
BRANCH  15  16
ATOM     16  C   UNL     1       1.855   8.553  18.731  0.00  0.00    +0.000 A 
ATOM     17  C   UNL     1       1.499   8.301  20.061  0.00  0.00    +0.000 A 
ATOM     18  C   UNL     1       1.732   7.067  20.636  0.00  0.00    +0.000 A 
ATOM     19  C   UNL     1       2.307   6.043  19.890  0.00  0.00    +0.000 A 
ATOM     20  C   UNL     1       2.617   4.826  20.506  0.00  0.00    +0.000 A 
ATOM     21  C   UNL     1       3.175   3.782  19.769  0.00  0.00    +0.000 A 
ATOM     22  C   UNL     1       3.405   3.939  18.399  0.00  0.00    +0.000 A 
ATOM     23  C   UNL     1       3.122   5.163  17.768  0.00  0.00    +0.000 A 
ATOM     24  C   UNL     1       2.592   6.233  18.512  0.00  0.00    +0.000 A 
ATOM     25  C   UNL     1       2.373   7.505  17.934  0.00  0.00    +0.000 A 
ENDBRANCH  15  16
ENDBRANCH  11  15
TORSDOF 2
ENDMDL
MODEL 7
REMARK VINA RESULT:      -7.6      3.378      5.453
REMARK  Name = 
REMARK  2 active torsions:
REMARK  status: ('A' for Active; 'I' for Inactive)
REMARK    1  A    between atoms: N_11  and  C_12
REMARK    2  A    between atoms: C_12  and  C_13
REMARK                            x       y       z     vdW  Elec       q    Type
REMARK                         _______ _______ _______ _____ _____    ______ ____
ROOT
ATOM      1  C   UNL     1       7.177   4.623  14.021  0.00  0.00    +0.000 A 
ATOM      2  C   UNL     1       5.978   3.932  13.859  0.00  0.00    +0.000 A 
ATOM      3  C   UNL     1       5.126   3.738  14.949  0.00  0.00    +0.000 A 
ATOM      4  C   UNL     1       5.461   4.235  16.222  0.00  0.00    +0.000 A 
ATOM      5  C   UNL     1       6.676   4.953  16.374  0.00  0.00    +0.000 A 
ATOM      6  C   UNL     1       7.526   5.133  15.271  0.00  0.00    +0.000 A 
ATOM      7  C   UNL     1       7.089   5.552  17.703  0.00  0.00    +0.000 C 
ATOM      8  C   UNL     1       5.943   5.619  18.728  0.00  0.00    +0.000 C 
ATOM      9  C   UNL     1       5.170   4.297  18.764  0.00  0.00    +0.000 C 
ATOM     10  C   UNL     1       4.101   4.266  19.881  0.00  0.00    +0.000 C 
ATOM     11  N   UNL     1       2.977   5.182  19.574  0.00  0.00    +0.000 NA
ATOM     12  C   UNL     1       2.262   4.722  18.372  0.00  0.00    +0.000 C 
ATOM     13  C   UNL     1       3.207   4.780  17.162  0.00  0.00    +0.000 C 
ATOM     14  C   UNL     1       4.512   3.981  17.390  0.00  0.00    +0.000 C 
ENDROOT
BRANCH  11  15
ATOM     15  C   UNL     1       2.072   5.406  20.736  0.00  0.00    +0.000 C 
BRANCH  15  16
ATOM     16  C   UNL     1       1.523   6.807  20.623  0.00  0.00    +0.000 A 
ATOM     17  C   UNL     1       1.965   7.564  19.531  0.00  0.00    +0.000 A 
ATOM     18  C   UNL     1       1.690   8.915  19.448  0.00  0.00    +0.000 A 
ATOM     19  C   UNL     1       0.945   9.542  20.441  0.00  0.00    +0.000 A 
ATOM     20  C   UNL     1       0.746  10.926  20.390  0.00  0.00    +0.000 A 
ATOM     21  C   UNL     1      -0.014  11.568  21.367  0.00  0.00    +0.000 A 
ATOM     22  C   UNL     1      -0.605  10.825  22.393  0.00  0.00    +0.000 A 
ATOM     23  C   UNL     1      -0.396   9.437  22.474  0.00  0.00    +0.000 A 
ATOM     24  C   UNL     1       0.399   8.787  21.513  0.00  0.00    +0.000 A 
ATOM     25  C   UNL     1       0.703   7.409  21.606  0.00  0.00    +0.000 A 
ENDBRANCH  15  16
ENDBRANCH  11  15
TORSDOF 2
ENDMDL
MODEL 8
REMARK VINA RESULT:      -7.5      3.286      5.508
REMARK  Name = 
REMARK  2 active torsions:
REMARK  status: ('A' for Active; 'I' for Inactive)
REMARK    1  A    between atoms: N_11  and  C_12
REMARK    2  A    between atoms: C_12  and  C_13
REMARK                            x       y       z     vdW  Elec       q    Type
REMARK                         _______ _______ _______ _____ _____    ______ ____
ROOT
ATOM      1  C   UNL     1       7.191   4.659  13.859  0.00  0.00    +0.000 A 
ATOM      2  C   UNL     1       6.071   3.833  13.783  0.00  0.00    +0.000 A 
ATOM      3  C   UNL     1       5.254   3.655  14.902  0.00  0.00    +0.000 A 
ATOM      4  C   UNL     1       5.545   4.301  16.117  0.00  0.00    +0.000 A 
ATOM      5  C   UNL     1       6.678   5.154  16.180  0.00  0.00    +0.000 A 
ATOM      6  C   UNL     1       7.495   5.318  15.050  0.00  0.00    +0.000 A 
ATOM      7  C   UNL     1       7.036   5.915  17.440  0.00  0.00    +0.000 C 
ATOM      8  C   UNL     1       5.898   5.957  18.475  0.00  0.00    +0.000 C 
ATOM      9  C   UNL     1       5.271   4.571  18.648  0.00  0.00    +0.000 C 
ATOM     10  C   UNL     1       4.220   4.533  19.782  0.00  0.00    +0.000 C 
ATOM     11  N   UNL     1       3.003   5.293  19.412  0.00  0.00    +0.000 NA
ATOM     12  C   UNL     1       2.331   4.650  18.271  0.00  0.00    +0.000 C 
ATOM     13  C   UNL     1       3.254   4.693  17.044  0.00  0.00    +0.000 C 
ATOM     14  C   UNL     1       4.638   4.060  17.321  0.00  0.00    +0.000 C 
ENDROOT
BRANCH  11  15
ATOM     15  C   UNL     1       2.089   5.529  20.565  0.00  0.00    +0.000 C 
BRANCH  15  16
ATOM     16  C   UNL     1       1.661   6.975  20.520  0.00  0.00    +0.000 A 
ATOM     17  C   UNL     1       0.790   7.400  21.530  0.00  0.00    +0.000 A 
ATOM     18  C   UNL     1       0.178   8.637  21.464  0.00  0.00    +0.000 A 
ATOM     19  C   UNL     1       0.438   9.493  20.399  0.00  0.00    +0.000 A 
ATOM     20  C   UNL     1      -0.252  10.705  20.299  0.00  0.00    +0.000 A 
ATOM     21  C   UNL     1       0.011  11.585  19.249  0.00  0.00    +0.000 A 
ATOM     22  C   UNL     1       0.988  11.268  18.301  0.00  0.00    +0.000 A 
ATOM     23  C   UNL     1       1.674  10.043  18.372  0.00  0.00    +0.000 A 
ATOM     24  C   UNL     1       1.390   9.135  19.407  0.00  0.00    +0.000 A 
ATOM     25  C   UNL     1       1.996   7.859  19.467  0.00  0.00    +0.000 A 
ENDBRANCH  15  16
ENDBRANCH  11  15
TORSDOF 2
ENDMDL
MODEL 9
REMARK VINA RESULT:      -7.5      0.960      8.397
REMARK  Name = 
REMARK  2 active torsions:
REMARK  status: ('A' for Active; 'I' for Inactive)
REMARK    1  A    between atoms: N_11  and  C_12
REMARK    2  A    between atoms: C_12  and  C_13
REMARK                            x       y       z     vdW  Elec       q    Type
REMARK                         _______ _______ _______ _____ _____    ______ ____
ROOT
ATOM      1  C   UNL     1      -5.186  12.470  18.975  0.00  0.00    +0.000 A 
ATOM      2  C   UNL     1      -4.908  11.964  17.707  0.00  0.00    +0.000 A 
ATOM      3  C   UNL     1      -3.613  11.547  17.387  0.00  0.00    +0.000 A 
ATOM      4  C   UNL     1      -2.575  11.629  18.333  0.00  0.00    +0.000 A 
ATOM      5  C   UNL     1      -2.872  12.130  19.628  0.00  0.00    +0.000 A 
ATOM      6  C   UNL     1      -4.176  12.553  19.933  0.00  0.00    +0.000 A 
ATOM      7  C   UNL     1      -1.819  12.214  20.713  0.00  0.00    +0.000 C 
ATOM      8  C   UNL     1      -0.551  11.399  20.401  0.00  0.00    +0.000 C 
ATOM      9  C   UNL     1      -0.093  11.639  18.959  0.00  0.00    +0.000 C 
ATOM     10  C   UNL     1       1.257  10.955  18.644  0.00  0.00    +0.000 C 
ATOM     11  N   UNL     1       1.114   9.480  18.600  0.00  0.00    +0.000 NA
ATOM     12  C   UNL     1       0.239   9.090  17.482  0.00  0.00    +0.000 C 
ATOM     13  C   UNL     1      -1.172   9.651  17.718  0.00  0.00    +0.000 C 
ATOM     14  C   UNL     1      -1.171  11.183  17.934  0.00  0.00    +0.000 C 
ENDROOT
BRANCH  11  15
ATOM     15  C   UNL     1       2.423   8.767  18.587  0.00  0.00    +0.000 C 
BRANCH  15  16
ATOM     16  C   UNL     1       2.153   7.314  18.892  0.00  0.00    +0.000 A 
ATOM     17  C   UNL     1       1.846   7.003  20.223  0.00  0.00    +0.000 A 
ATOM     18  C   UNL     1       1.788   5.690  20.648  0.00  0.00    +0.000 A 
ATOM     19  C   UNL     1       2.010   4.651  19.749  0.00  0.00    +0.000 A 
ATOM     20  C   UNL     1       2.033   3.330  20.208  0.00  0.00    +0.000 A 
ATOM     21  C   UNL     1       2.235   2.275  19.319  0.00  0.00    +0.000 A 
ATOM     22  C   UNL     1       2.390   2.532  17.954  0.00  0.00    +0.000 A 
ATOM     23  C   UNL     1       2.395   3.855  17.478  0.00  0.00    +0.000 A 
ATOM     24  C   UNL     1       2.228   4.927  18.373  0.00  0.00    +0.000 A 
ATOM     25  C   UNL     1       2.310   6.273  17.948  0.00  0.00    +0.000 A 
ENDBRANCH  15  16
ENDBRANCH  11  15
TORSDOF 2
ENDMDL
