MODEL 1
REMARK VINA RESULT:      -8.2      0.000      0.000
REMARK  Name = 
REMARK  4 active torsions:
REMARK  status: ('A' for Active; 'I' for Inactive)
REMARK    1  A    between atoms: O_1  and  C_2
REMARK    2  A    between atoms: C_2  and  C_3
REMARK    3  A    between atoms: C_2  and  C_11
REMARK    4  A    between atoms: C_13  and  C_14
REMARK                            x       y       z     vdW  Elec       q    Type
REMARK                         _______ _______ _______ _____ _____    ______ ____
ROOT
ATOM      1  C   UNL     1       1.588   9.108  19.209  0.00  0.00    +0.000 A 
ATOM      2  N   UNL     1       2.166   8.197  18.448  0.00  0.00    +0.000 NA
ATOM      3  C   UNL     1       2.334   7.019  19.153  0.00  0.00    +0.000 A 
ATOM      4  C   UNL     1       1.914   7.059  20.465  0.00  0.00    +0.000 A 
ATOM      5  S   UNL     1       1.259   8.598  20.825  0.00  0.00    +0.000 S 
ENDROOT
BRANCH   3   6
ATOM      6  C   UNL     1       2.886   5.841  18.459  0.00  0.00    +0.000 A 
ATOM      7  C   UNL     1       3.980   5.895  17.621  0.00  0.00    +0.000 A 
ATOM      8  S   UNL     1       4.406   4.366  17.008  0.00  0.00    +0.000 S 
ATOM      9  C   UNL     1       3.117   3.591  17.844  0.00  0.00    +0.000 A 
ATOM     10  C   UNL     1       2.813   2.214  17.820  0.00  0.00    +0.000 A 
ATOM     11  C   UNL     1       1.719   1.745  18.546  0.00  0.00    +0.000 A 
ATOM     12  C   UNL     1       0.937   2.622  19.281  0.00  0.00    +0.000 A 
ATOM     13  C   UNL     1       1.246   3.985  19.307  0.00  0.00    +0.000 A 
ATOM     14  C   UNL     1       2.358   4.503  18.589  0.00  0.00    +0.000 A 
ENDBRANCH   3   6
BRANCH   1  15
ATOM     15  C   UNL     1       1.232  10.498  18.735  0.00  0.00    +0.000 C 
BRANCH  15  16
ATOM     16  C   UNL     1      -0.262  10.733  18.586  0.00  0.00    +0.000 A 
ATOM     17  C   UNL     1      -0.916  11.767  19.286  0.00  0.00    +0.000 A 
ATOM     18  C   UNL     1      -2.280  12.005  19.103  0.00  0.00    +0.000 A 
ATOM     19  C   UNL     1      -2.999  11.217  18.215  0.00  0.00    +0.000 A 
ATOM     20  F   UNL     1      -4.306  11.454  18.035  0.00  0.00    +0.000 F 
ATOM     21  C   UNL     1      -2.370  10.194  17.514  0.00  0.00    +0.000 A 
ATOM     22  F   UNL     1      -3.067   9.438  16.655  0.00  0.00    +0.000 F 
ATOM     23  C   UNL     1      -1.010   9.949  17.691  0.00  0.00    +0.000 A 
ENDBRANCH  15  16
BRANCH  15  24
ATOM     24  O   UNL     1       1.922  10.748  17.507  0.00  0.00    +0.000 OA
ATOM     25  H   UNL     1       1.251  10.750  16.805  0.00  0.00    +0.000 HD
ENDBRANCH  15  24
ENDBRANCH   1  15
TORSDOF 4
ENDMDL
MODEL 2
REMARK VINA RESULT:      -8.1      4.487      7.985
REMARK  Name = 
REMARK  4 active torsions:
REMARK  status: ('A' for Active; 'I' for Inactive)
REMARK    1  A    between atoms: O_1  and  C_2
REMARK    2  A    between atoms: C_2  and  C_3
REMARK    3  A    between atoms: C_2  and  C_11
REMARK    4  A    between atoms: C_13  and  C_14
REMARK                            x       y       z     vdW  Elec       q    Type
REMARK                         _______ _______ _______ _____ _____    ______ ____
ROOT
ATOM      1  C   UNL     1       3.760   4.613  19.600  0.00  0.00    +0.000 A 
ATOM      2  N   UNL     1       3.542   5.847  19.182  0.00  0.00    +0.000 NA
ATOM      3  C   UNL     1       2.357   6.330  19.708  0.00  0.00    +0.000 A 
ATOM      4  C   UNL     1       1.661   5.437  20.495  0.00  0.00    +0.000 A 
ATOM      5  S   UNL     1       2.522   3.963  20.613  0.00  0.00    +0.000 S 
ENDROOT
BRANCH   3   6
ATOM      6  C   UNL     1       1.968   7.725  19.435  0.00  0.00    +0.000 A 
ATOM      7  C   UNL     1       2.185   8.353  18.227  0.00  0.00    +0.000 A 
ATOM      8  S   UNL     1       1.583   9.944  18.202  0.00  0.00    +0.000 S 
ATOM      9  C   UNL     1       1.026   9.835  19.828  0.00  0.00    +0.000 A 
ATOM     10  C   UNL     1       0.366  10.848  20.554  0.00  0.00    +0.000 A 
ATOM     11  C   UNL     1      -0.010  10.603  21.874  0.00  0.00    +0.000 A 
ATOM     12  C   UNL     1       0.264   9.381  22.468  0.00  0.00    +0.000 A 
ATOM     13  C   UNL     1       0.914   8.378  21.741  0.00  0.00    +0.000 A 
ATOM     14  C   UNL     1       1.305   8.582  20.390  0.00  0.00    +0.000 A 
ENDBRANCH   3   6
BRANCH   1  15
ATOM     15  C   UNL     1       4.983   3.804  19.235  0.00  0.00    +0.000 C 
BRANCH  15  16
ATOM     16  C   UNL     1       5.622   4.217  17.919  0.00  0.00    +0.000 A 
ATOM     17  C   UNL     1       6.900   4.812  17.879  0.00  0.00    +0.000 A 
ATOM     18  C   UNL     1       7.498   5.141  16.661  0.00  0.00    +0.000 A 
ATOM     19  C   UNL     1       6.829   4.872  15.475  0.00  0.00    +0.000 A 
ATOM     20  F   UNL     1       7.411   5.181  14.307  0.00  0.00    +0.000 F 
ATOM     21  C   UNL     1       5.570   4.283  15.495  0.00  0.00    +0.000 A 
ATOM     22  F   UNL     1       4.929   4.023  14.348  0.00  0.00    +0.000 F 
ATOM     23  C   UNL     1       4.965   3.953  16.706  0.00  0.00    +0.000 A 
ENDBRANCH  15  16
BRANCH  15  24
ATOM     24  O   UNL     1       4.623   2.419  19.226  0.00  0.00    +0.000 OA
ATOM     25  H   UNL     1       4.784   2.083  20.123  0.00  0.00    +0.000 HD
ENDBRANCH  15  24
ENDBRANCH   1  15
TORSDOF 4
ENDMDL
MODEL 3
REMARK VINA RESULT:      -8.1      1.109      2.395
REMARK  Name = 
REMARK  4 active torsions:
REMARK  status: ('A' for Active; 'I' for Inactive)
REMARK    1  A    between atoms: O_1  and  C_2
REMARK    2  A    between atoms: C_2  and  C_3
REMARK    3  A    between atoms: C_2  and  C_11
REMARK    4  A    between atoms: C_13  and  C_14
REMARK                            x       y       z     vdW  Elec       q    Type
REMARK                         _______ _______ _______ _____ _____    ______ ____
ROOT
ATOM      1  C   UNL     1       1.593   8.971  19.150  0.00  0.00    +0.000 A 
ATOM      2  N   UNL     1       2.089   8.036  18.361  0.00  0.00    +0.000 NA
ATOM      3  C   UNL     1       2.251   6.854  19.059  0.00  0.00    +0.000 A 
ATOM      4  C   UNL     1       1.911   6.913  20.394  0.00  0.00    +0.000 A 
ATOM      5  S   UNL     1       1.339   8.478  20.785  0.00  0.00    +0.000 S 
ENDROOT
BRANCH   3   6
ATOM      6  C   UNL     1       2.715   5.654  18.340  0.00  0.00    +0.000 A 
ATOM      7  C   UNL     1       2.015   4.467  18.308  0.00  0.00    +0.000 A 
ATOM      8  S   UNL     1       2.782   3.283  17.358  0.00  0.00    +0.000 S 
ATOM      9  C   UNL     1       4.090   4.335  16.974  0.00  0.00    +0.000 A 
ATOM     10  C   UNL     1       5.200   4.026  16.161  0.00  0.00    +0.000 A 
ATOM     11  C   UNL     1       6.186   4.991  15.960  0.00  0.00    +0.000 A 
ATOM     12  C   UNL     1       6.079   6.238  16.555  0.00  0.00    +0.000 A 
ATOM     13  C   UNL     1       4.973   6.542  17.355  0.00  0.00    +0.000 A 
ATOM     14  C   UNL     1       3.941   5.590  17.577  0.00  0.00    +0.000 A 
ENDBRANCH   3   6
BRANCH   1  15
ATOM     15  C   UNL     1       1.265  10.374  18.692  0.00  0.00    +0.000 C 
BRANCH  15  16
ATOM     16  C   UNL     1      -0.225  10.651  18.580  0.00  0.00    +0.000 A 
ATOM     17  C   UNL     1      -0.838  11.680  19.323  0.00  0.00    +0.000 A 
ATOM     18  C   UNL     1      -2.198  11.958  19.174  0.00  0.00    +0.000 A 
ATOM     19  C   UNL     1      -2.955  11.216  18.278  0.00  0.00    +0.000 A 
ATOM     20  F   UNL     1      -4.259  11.492  18.132  0.00  0.00    +0.000 F 
ATOM     21  C   UNL     1      -2.367  10.199  17.535  0.00  0.00    +0.000 A 
ATOM     22  F   UNL     1      -3.099   9.486  16.669  0.00  0.00    +0.000 F 
ATOM     23  C   UNL     1      -1.010   9.914  17.678  0.00  0.00    +0.000 A 
ENDBRANCH  15  16
BRANCH  15  24
ATOM     24  O   UNL     1       1.933  10.611  17.449  0.00  0.00    +0.000 OA
ATOM     25  H   UNL     1       1.247  10.857  16.806  0.00  0.00    +0.000 HD
ENDBRANCH  15  24
ENDBRANCH   1  15
TORSDOF 4
ENDMDL
MODEL 4
REMARK VINA RESULT:      -8.1      0.535      1.357
REMARK  Name = 
REMARK  4 active torsions:
REMARK  status: ('A' for Active; 'I' for Inactive)
REMARK    1  A    between atoms: O_1  and  C_2
REMARK    2  A    between atoms: C_2  and  C_3
REMARK    3  A    between atoms: C_2  and  C_11
REMARK    4  A    between atoms: C_13  and  C_14
REMARK                            x       y       z     vdW  Elec       q    Type
REMARK                         _______ _______ _______ _____ _____    ______ ____
ROOT
ATOM      1  C   UNL     1       1.533   9.137  19.210  0.00  0.00    +0.000 A 
ATOM      2  N   UNL     1       2.140   8.231  18.465  0.00  0.00    +0.000 NA
ATOM      3  C   UNL     1       2.315   7.060  19.180  0.00  0.00    +0.000 A 
ATOM      4  C   UNL     1       1.872   7.101  20.485  0.00  0.00    +0.000 A 
ATOM      5  S   UNL     1       1.185   8.631  20.824  0.00  0.00    +0.000 S 
ENDROOT
BRANCH   3   6
ATOM      6  C   UNL     1       2.899   5.888  18.503  0.00  0.00    +0.000 A 
ATOM      7  C   UNL     1       4.014   5.952  17.695  0.00  0.00    +0.000 A 
ATOM      8  S   UNL     1       4.473   4.428  17.095  0.00  0.00    +0.000 S 
ATOM      9  C   UNL     1       3.169   3.639  17.897  0.00  0.00    +0.000 A 
ATOM     10  C   UNL     1       2.881   2.259  17.866  0.00  0.00    +0.000 A 
ATOM     11  C   UNL     1       1.773   1.779  18.562  0.00  0.00    +0.000 A 
ATOM     12  C   UNL     1       0.961   2.649  19.274  0.00  0.00    +0.000 A 
ATOM     13  C   UNL     1       1.255   4.015  19.307  0.00  0.00    +0.000 A 
ATOM     14  C   UNL     1       2.380   4.544  18.620  0.00  0.00    +0.000 A 
ENDBRANCH   3   6
BRANCH   1  15
ATOM     15  C   UNL     1       1.163  10.518  18.722  0.00  0.00    +0.000 C 
BRANCH  15  16
ATOM     16  C   UNL     1      -0.326  10.707  18.486  0.00  0.00    +0.000 A 
ATOM     17  C   UNL     1      -1.032   9.897  17.573  0.00  0.00    +0.000 A 
ATOM     18  C   UNL     1      -2.410  10.046  17.401  0.00  0.00    +0.000 A 
ATOM     19  C   UNL     1      -3.094  10.999  18.142  0.00  0.00    +0.000 A 
ATOM     20  F   UNL     1      -4.418  11.133  17.980  0.00  0.00    +0.000 F 
ATOM     21  C   UNL     1      -2.415  11.805  19.049  0.00  0.00    +0.000 A 
ATOM     22  F   UNL     1      -3.078  12.722  19.765  0.00  0.00    +0.000 F 
ATOM     23  C   UNL     1      -1.040  11.664  19.226  0.00  0.00    +0.000 A 
ENDBRANCH  15  16
BRANCH  15  24
ATOM     24  O   UNL     1       1.917  10.797  17.538  0.00  0.00    +0.000 OA
ATOM     25  H   UNL     1       2.653  11.372  17.805  0.00  0.00    +0.000 HD
ENDBRANCH  15  24
ENDBRANCH   1  15
TORSDOF 4
ENDMDL
MODEL 5
REMARK VINA RESULT:      -8.0      1.162      1.735
REMARK  Name = 
REMARK  4 active torsions:
REMARK  status: ('A' for Active; 'I' for Inactive)
REMARK    1  A    between atoms: O_1  and  C_2
REMARK    2  A    between atoms: C_2  and  C_3
REMARK    3  A    between atoms: C_2  and  C_11
REMARK    4  A    between atoms: C_13  and  C_14
REMARK                            x       y       z     vdW  Elec       q    Type
REMARK                         _______ _______ _______ _____ _____    ______ ____
ROOT
ATOM      1  C   UNL     1       0.868   9.798  19.643  0.00  0.00    +0.000 A 
ATOM      2  N   UNL     1       1.520   8.874  18.962  0.00  0.00    +0.000 NA
ATOM      3  C   UNL     1       1.825   7.801  19.779  0.00  0.00    +0.000 A 
ATOM      4  C   UNL     1       1.433   7.939  21.094  0.00  0.00    +0.000 A 
ATOM      5  S   UNL     1       0.631   9.434  21.313  0.00  0.00    +0.000 S 
ENDROOT
BRANCH   3   6
ATOM      6  C   UNL     1       2.481   6.617  19.194  0.00  0.00    +0.000 A 
ATOM      7  C   UNL     1       3.457   6.690  18.223  0.00  0.00    +0.000 A 
ATOM      8  S   UNL     1       4.052   5.158  17.782  0.00  0.00    +0.000 S 
ATOM      9  C   UNL     1       2.998   4.353  18.879  0.00  0.00    +0.000 A 
ATOM     10  C   UNL     1       2.916   2.961  19.089  0.00  0.00    +0.000 A 
ATOM     11  C   UNL     1       1.993   2.464  20.009  0.00  0.00    +0.000 A 
ATOM     12  C   UNL     1       1.163   3.328  20.707  0.00  0.00    +0.000 A 
ATOM     13  C   UNL     1       1.254   4.708  20.500  0.00  0.00    +0.000 A 
ATOM     14  C   UNL     1       2.187   5.256  19.579  0.00  0.00    +0.000 A 
ENDBRANCH   3   6
BRANCH   1  15
ATOM     15  C   UNL     1       0.360  11.088  19.039  0.00  0.00    +0.000 C 
BRANCH  15  16
ATOM     16  C   UNL     1      -1.076  11.011  18.547  0.00  0.00    +0.000 A 
ATOM     17  C   UNL     1      -1.462  10.088  17.553  0.00  0.00    +0.000 A 
ATOM     18  C   UNL     1      -2.793   9.991  17.144  0.00  0.00    +0.000 A 
ATOM     19  C   UNL     1      -3.750  10.810  17.728  0.00  0.00    +0.000 A 
ATOM     20  F   UNL     1      -5.029  10.708  17.339  0.00  0.00    +0.000 F 
ATOM     21  C   UNL     1      -3.388  11.724  18.711  0.00  0.00    +0.000 A 
ATOM     22  F   UNL     1      -4.314  12.511  19.274  0.00  0.00    +0.000 F 
ATOM     23  C   UNL     1      -2.061  11.828  19.125  0.00  0.00    +0.000 A 
ENDBRANCH  15  16
BRANCH  15  24
ATOM     24  O   UNL     1       1.250  11.477  17.988  0.00  0.00    +0.000 OA
ATOM     25  H   UNL     1       1.922  10.778  17.919  0.00  0.00    +0.000 HD
ENDBRANCH  15  24
ENDBRANCH   1  15
TORSDOF 4
ENDMDL
MODEL 6
REMARK VINA RESULT:      -8.0      1.224      2.744
REMARK  Name = 
REMARK  4 active torsions:
REMARK  status: ('A' for Active; 'I' for Inactive)
REMARK    1  A    between atoms: O_1  and  C_2
REMARK    2  A    between atoms: C_2  and  C_3
REMARK    3  A    between atoms: C_2  and  C_11
REMARK    4  A    between atoms: C_13  and  C_14
REMARK                            x       y       z     vdW  Elec       q    Type
REMARK                         _______ _______ _______ _____ _____    ______ ____
ROOT
ATOM      1  C   UNL     1       1.539   8.973  19.136  0.00  0.00    +0.000 A 
ATOM      2  N   UNL     1       2.039   8.033  18.355  0.00  0.00    +0.000 NA
ATOM      3  C   UNL     1       2.207   6.858  19.066  0.00  0.00    +0.000 A 
ATOM      4  C   UNL     1       1.866   6.929  20.400  0.00  0.00    +0.000 A 
ATOM      5  S   UNL     1       1.287   8.495  20.775  0.00  0.00    +0.000 S 
ENDROOT
BRANCH   3   6
ATOM      6  C   UNL     1       2.676   5.653  18.358  0.00  0.00    +0.000 A 
ATOM      7  C   UNL     1       1.985   4.461  18.344  0.00  0.00    +0.000 A 
ATOM      8  S   UNL     1       2.757   3.271  17.403  0.00  0.00    +0.000 S 
ATOM      9  C   UNL     1       4.054   4.328  17.000  0.00  0.00    +0.000 A 
ATOM     10  C   UNL     1       5.162   4.019  16.185  0.00  0.00    +0.000 A 
ATOM     11  C   UNL     1       6.140   4.988  15.968  0.00  0.00    +0.000 A 
ATOM     12  C   UNL     1       6.026   6.242  16.548  0.00  0.00    +0.000 A 
ATOM     13  C   UNL     1       4.922   6.547  17.351  0.00  0.00    +0.000 A 
ATOM     14  C   UNL     1       3.899   5.590  17.590  0.00  0.00    +0.000 A 
ENDBRANCH   3   6
BRANCH   1  15
ATOM     15  C   UNL     1       1.205  10.370  18.664  0.00  0.00    +0.000 C 
BRANCH  15  16
ATOM     16  C   UNL     1      -0.283  10.614  18.473  0.00  0.00    +0.000 A 
ATOM     17  C   UNL     1      -1.038   9.859  17.551  0.00  0.00    +0.000 A 
ATOM     18  C   UNL     1      -2.413  10.057  17.420  0.00  0.00    +0.000 A 
ATOM     19  C   UNL     1      -3.047  11.005  18.212  0.00  0.00    +0.000 A 
ATOM     20  F   UNL     1      -4.370  11.186  18.089  0.00  0.00    +0.000 F 
ATOM     21  C   UNL     1      -2.320  11.756  19.128  0.00  0.00    +0.000 A 
ATOM     22  F   UNL     1      -2.935  12.668  19.892  0.00  0.00    +0.000 F 
ATOM     23  C   UNL     1      -0.946  11.566  19.265  0.00  0.00    +0.000 A 
ENDBRANCH  15  16
BRANCH  15  24
ATOM     24  O   UNL     1       1.932  10.626  17.459  0.00  0.00    +0.000 OA
ATOM     25  H   UNL     1       2.518   9.864  17.319  0.00  0.00    +0.000 HD
ENDBRANCH  15  24
ENDBRANCH   1  15
TORSDOF 4
ENDMDL
MODEL 7
REMARK VINA RESULT:      -7.9      3.238      7.726
REMARK  Name = 
REMARK  4 active torsions:
REMARK  status: ('A' for Active; 'I' for Inactive)
REMARK    1  A    between atoms: O_1  and  C_2
REMARK    2  A    between atoms: C_2  and  C_3
REMARK    3  A    between atoms: C_2  and  C_11
REMARK    4  A    between atoms: C_13  and  C_14
REMARK                            x       y       z     vdW  Elec       q    Type
REMARK                         _______ _______ _______ _____ _____    ______ ____
ROOT
ATOM      1  C   UNL     1       2.148   7.734  19.254  0.00  0.00    +0.000 A 
ATOM      2  N   UNL     1       1.161   8.479  19.717  0.00  0.00    +0.000 NA
ATOM      3  C   UNL     1       0.885   9.511  18.840  0.00  0.00    +0.000 A 
ATOM      4  C   UNL     1       1.698   9.565  17.727  0.00  0.00    +0.000 A 
ATOM      5  S   UNL     1       2.818   8.271  17.756  0.00  0.00    +0.000 S 
ENDROOT
BRANCH   3   6
ATOM      6  C   UNL     1      -0.245  10.414  19.127  0.00  0.00    +0.000 A 
ATOM      7  C   UNL     1      -0.269  11.285  20.195  0.00  0.00    +0.000 A 
ATOM      8  S   UNL     1      -1.686  12.227  20.235  0.00  0.00    +0.000 S 
ATOM      9  C   UNL     1      -2.313  11.473  18.820  0.00  0.00    +0.000 A 
ATOM     10  C   UNL     1      -3.546  11.759  18.197  0.00  0.00    +0.000 A 
ATOM     11  C   UNL     1      -3.915  11.044  17.058  0.00  0.00    +0.000 A 
ATOM     12  C   UNL     1      -3.083  10.061  16.546  0.00  0.00    +0.000 A 
ATOM     13  C   UNL     1      -1.859   9.785  17.164  0.00  0.00    +0.000 A 
ATOM     14  C   UNL     1      -1.440  10.498  18.320  0.00  0.00    +0.000 A 
ENDBRANCH   3   6
BRANCH   1  15
ATOM     15  C   UNL     1       2.676   6.504  19.955  0.00  0.00    +0.000 C 
BRANCH  15  16
ATOM     16  C   UNL     1       2.580   5.235  19.126  0.00  0.00    +0.000 A 
ATOM     17  C   UNL     1       3.607   4.859  18.236  0.00  0.00    +0.000 A 
ATOM     18  C   UNL     1       3.530   3.665  17.517  0.00  0.00    +0.000 A 
ATOM     19  C   UNL     1       2.431   2.834  17.684  0.00  0.00    +0.000 A 
ATOM     20  F   UNL     1       2.366   1.684  16.998  0.00  0.00    +0.000 F 
ATOM     21  C   UNL     1       1.410   3.187  18.559  0.00  0.00    +0.000 A 
ATOM     22  F   UNL     1       0.352   2.381  18.720  0.00  0.00    +0.000 F 
ATOM     23  C   UNL     1       1.478   4.377  19.280  0.00  0.00    +0.000 A 
ENDBRANCH  15  16
BRANCH  15  24
ATOM     24  O   UNL     1       1.988   6.364  21.202  0.00  0.00    +0.000 OA
ATOM     25  H   UNL     1       2.616   5.961  21.824  0.00  0.00    +0.000 HD
ENDBRANCH  15  24
ENDBRANCH   1  15
TORSDOF 4
ENDMDL
MODEL 8
REMARK VINA RESULT:      -7.9      4.672      7.999
REMARK  Name = 
REMARK  4 active torsions:
REMARK  status: ('A' for Active; 'I' for Inactive)
REMARK    1  A    between atoms: O_1  and  C_2
REMARK    2  A    between atoms: C_2  and  C_3
REMARK    3  A    between atoms: C_2  and  C_11
REMARK    4  A    between atoms: C_13  and  C_14
REMARK                            x       y       z     vdW  Elec       q    Type
REMARK                         _______ _______ _______ _____ _____    ______ ____
ROOT
ATOM      1  C   UNL     1       3.678   4.704  19.670  0.00  0.00    +0.000 A 
ATOM      2  N   UNL     1       3.444   5.934  19.253  0.00  0.00    +0.000 NA
ATOM      3  C   UNL     1       2.271   6.414  19.807  0.00  0.00    +0.000 A 
ATOM      4  C   UNL     1       1.599   5.521  20.614  0.00  0.00    +0.000 A 
ATOM      5  S   UNL     1       2.469   4.051  20.715  0.00  0.00    +0.000 S 
ENDROOT
BRANCH   3   6
ATOM      6  C   UNL     1       1.868   7.806  19.538  0.00  0.00    +0.000 A 
ATOM      7  C   UNL     1       2.069   8.436  18.328  0.00  0.00    +0.000 A 
ATOM      8  S   UNL     1       1.455  10.023  18.310  0.00  0.00    +0.000 S 
ATOM      9  C   UNL     1       0.914   9.909  19.941  0.00  0.00    +0.000 A 
ATOM     10  C   UNL     1       0.253  10.916  20.675  0.00  0.00    +0.000 A 
ATOM     11  C   UNL     1      -0.108  10.668  21.998  0.00  0.00    +0.000 A 
ATOM     12  C   UNL     1       0.182   9.448  22.588  0.00  0.00    +0.000 A 
ATOM     13  C   UNL     1       0.831   8.450  21.854  0.00  0.00    +0.000 A 
ATOM     14  C   UNL     1       1.208   8.658  20.500  0.00  0.00    +0.000 A 
ENDBRANCH   3   6
BRANCH   1  15
ATOM     15  C   UNL     1       4.896   3.899  19.277  0.00  0.00    +0.000 C 
BRANCH  15  16
ATOM     16  C   UNL     1       5.484   4.292  17.932  0.00  0.00    +0.000 A 
ATOM     17  C   UNL     1       5.051   3.683  16.736  0.00  0.00    +0.000 A 
ATOM     18  C   UNL     1       5.563   4.088  15.502  0.00  0.00    +0.000 A 
ATOM     19  C   UNL     1       6.505   5.106  15.451  0.00  0.00    +0.000 A 
ATOM     20  F   UNL     1       6.987   5.497  14.263  0.00  0.00    +0.000 F 
ATOM     21  C   UNL     1       6.942   5.719  16.620  0.00  0.00    +0.000 A 
ATOM     22  F   UNL     1       7.849   6.703  16.567  0.00  0.00    +0.000 F 
ATOM     23  C   UNL     1       6.437   5.321  17.856  0.00  0.00    +0.000 A 
ENDBRANCH  15  16
BRANCH  15  24
ATOM     24  O   UNL     1       4.549   2.511  19.307  0.00  0.00    +0.000 OA
ATOM     25  H   UNL     1       4.001   2.377  20.098  0.00  0.00    +0.000 HD
ENDBRANCH  15  24
ENDBRANCH   1  15
TORSDOF 4
ENDMDL
MODEL 9
REMARK VINA RESULT:      -7.7      3.423      7.662
REMARK  Name = 
REMARK  4 active torsions:
REMARK  status: ('A' for Active; 'I' for Inactive)
REMARK    1  A    between atoms: O_1  and  C_2
REMARK    2  A    between atoms: C_2  and  C_3
REMARK    3  A    between atoms: C_2  and  C_11
REMARK    4  A    between atoms: C_13  and  C_14
REMARK                            x       y       z     vdW  Elec       q    Type
REMARK                         _______ _______ _______ _____ _____    ______ ____
ROOT
ATOM      1  C   UNL     1       1.856   8.132  19.344  0.00  0.00    +0.000 A 
ATOM      2  N   UNL     1       0.793   8.835  19.688  0.00  0.00    +0.000 NA
ATOM      3  C   UNL     1       0.513   9.787  18.724  0.00  0.00    +0.000 A 
ATOM      4  C   UNL     1       1.398   9.824  17.667  0.00  0.00    +0.000 A 
ATOM      5  S   UNL     1       2.595   8.617  17.860  0.00  0.00    +0.000 S 
ENDROOT
BRANCH   3   6
ATOM      6  C   UNL     1      -0.690  10.625  18.873  0.00  0.00    +0.000 A 
ATOM      7  C   UNL     1      -0.866  11.527  19.900  0.00  0.00    +0.000 A 
ATOM      8  S   UNL     1      -2.334  12.379  19.774  0.00  0.00    +0.000 S 
ATOM      9  C   UNL     1      -2.780  11.542  18.337  0.00  0.00    +0.000 A 
ATOM     10  C   UNL     1      -3.963  11.730  17.593  0.00  0.00    +0.000 A 
ATOM     11  C   UNL     1      -4.181  10.957  16.454  0.00  0.00    +0.000 A 
ATOM     12  C   UNL     1      -3.247  10.012  16.058  0.00  0.00    +0.000 A 
ATOM     13  C   UNL     1      -2.072   9.834  16.795  0.00  0.00    +0.000 A 
ATOM     14  C   UNL     1      -1.807  10.608  17.957  0.00  0.00    +0.000 A 
ENDBRANCH   3   6
BRANCH   1  15
ATOM     15  C   UNL     1       2.413   6.990  20.163  0.00  0.00    +0.000 C 
BRANCH  15  16
ATOM     16  C   UNL     1       1.947   5.619  19.701  0.00  0.00    +0.000 A 
ATOM     17  C   UNL     1       1.995   5.247  18.342  0.00  0.00    +0.000 A 
ATOM     18  C   UNL     1       1.612   3.968  17.936  0.00  0.00    +0.000 A 
ATOM     19  C   UNL     1       1.183   3.048  18.884  0.00  0.00    +0.000 A 
ATOM     20  F   UNL     1       0.824   1.818  18.491  0.00  0.00    +0.000 F 
ATOM     21  C   UNL     1       1.132   3.397  20.229  0.00  0.00    +0.000 A 
ATOM     22  F   UNL     1       0.720   2.506  21.141  0.00  0.00    +0.000 F 
ATOM     23  C   UNL     1       1.511   4.672  20.642  0.00  0.00    +0.000 A 
ENDBRANCH  15  16
BRANCH  15  24
ATOM     24  O   UNL     1       2.082   7.216  21.537  0.00  0.00    +0.000 OA
ATOM     25  H   UNL     1       2.923   7.265  22.021  0.00  0.00    +0.000 HD
ENDBRANCH  15  24
ENDBRANCH   1  15
TORSDOF 4
ENDMDL
