MODEL 1
REMARK VINA RESULT:      -8.0      0.000      0.000
REMARK  Name = 
REMARK  4 active torsions:
REMARK  status: ('A' for Active; 'I' for Inactive)
REMARK    1  A    between atoms: C_1  and  O_2
REMARK    2  A    between atoms: O_2  and  C_3
REMARK    3  A    between atoms: C_3  and  C_5
REMARK    4  A    between atoms: C_9  and  N_10
REMARK                            x       y       z     vdW  Elec       q    Type
REMARK                         _______ _______ _______ _____ _____    ______ ____
ROOT
ATOM      1  C   UNL     1       7.031   6.134  16.894  0.00  0.00    +0.000 A 
ATOM      2  N   UNL     1       7.561   5.900  15.675  0.00  0.00    +0.000 NA
ATOM      3  C   UNL     1       6.901   5.025  14.914  0.00  0.00    +0.000 A 
ATOM      4  C   UNL     1       5.740   4.411  15.313  0.00  0.00    +0.000 A 
ATOM      5  C   UNL     1       5.245   4.715  16.573  0.00  0.00    +0.000 A 
ATOM      6  N   UNL     1       5.903   5.560  17.389  0.00  0.00    +0.000 NA
ENDROOT
BRANCH   5   7
ATOM      7  N   UNL     1       4.055   4.098  16.976  0.00  0.00    +0.000 N 
ATOM      8  C   UNL     1       4.115   2.672  17.300  0.00  0.00    +0.000 C 
ATOM      9  C   UNL     1       2.700   2.131  17.554  0.00  0.00    +0.000 C 
ATOM     10  C   UNL     1       2.098   2.875  18.716  0.00  0.00    +0.000 A 
ATOM     11  C   UNL     1       1.316   2.232  19.682  0.00  0.00    +0.000 A 
ATOM     12  C   UNL     1       0.804   2.958  20.759  0.00  0.00    +0.000 A 
ATOM     13  C   UNL     1       1.057   4.325  20.865  0.00  0.00    +0.000 A 
ATOM     14  C   UNL     1       1.813   4.974  19.888  0.00  0.00    +0.000 A 
ATOM     15  C   UNL     1       2.345   4.254  18.808  0.00  0.00    +0.000 A 
ATOM     16  C   UNL     1       3.111   4.961  17.709  0.00  0.00    +0.000 C 
ENDBRANCH   5   7
BRANCH   1  17
ATOM     17  C   UNL     1       7.793   7.132  17.733  0.00  0.00    +0.000 C 
ATOM     18  O   UNL     1       8.281   6.879  18.824  0.00  0.00    +0.000 OA
BRANCH  17  20
ATOM     19  C   UNL     1       8.267   9.400  18.012  0.00  0.00    +0.000 C 
ATOM     20  O   UNL     1       7.855   8.353  17.128  0.00  0.00    +0.000 OA
ENDBRANCH  17  20
ENDBRANCH   1  17
TORSDOF 3
ENDMDL
MODEL 2
REMARK VINA RESULT:      -8.0      2.080      3.127
REMARK  Name = 
REMARK  4 active torsions:
REMARK  status: ('A' for Active; 'I' for Inactive)
REMARK    1  A    between atoms: C_1  and  O_2
REMARK    2  A    between atoms: O_2  and  C_3
REMARK    3  A    between atoms: C_3  and  C_5
REMARK    4  A    between atoms: C_9  and  N_10
REMARK                            x       y       z     vdW  Elec       q    Type
REMARK                         _______ _______ _______ _____ _____    ______ ____
ROOT
ATOM      1  C   UNL     1       6.643   5.419  15.627  0.00  0.00    +0.000 A 
ATOM      2  N   UNL     1       7.558   6.094  16.355  0.00  0.00    +0.000 NA
ATOM      3  C   UNL     1       7.160   6.483  17.569  0.00  0.00    +0.000 A 
ATOM      4  C   UNL     1       5.916   6.202  18.075  0.00  0.00    +0.000 A 
ATOM      5  C   UNL     1       5.036   5.488  17.275  0.00  0.00    +0.000 A 
ATOM      6  N   UNL     1       5.383   5.113  16.029  0.00  0.00    +0.000 NA
ENDROOT
BRANCH   5   7
ATOM      7  N   UNL     1       3.770   5.191  17.795  0.00  0.00    +0.000 N 
ATOM      8  C   UNL     1       3.001   4.139  17.131  0.00  0.00    +0.000 C 
ATOM      9  C   UNL     1       1.586   4.067  17.723  0.00  0.00    +0.000 C 
ATOM     10  C   UNL     1       1.690   3.749  19.191  0.00  0.00    +0.000 A 
ATOM     11  C   UNL     1       0.800   2.876  19.824  0.00  0.00    +0.000 A 
ATOM     12  C   UNL     1       0.954   2.587  21.181  0.00  0.00    +0.000 A 
ATOM     13  C   UNL     1       1.986   3.178  21.909  0.00  0.00    +0.000 A 
ATOM     14  C   UNL     1       2.859   4.071  21.286  0.00  0.00    +0.000 A 
ATOM     15  C   UNL     1       2.723   4.360  19.920  0.00  0.00    +0.000 A 
ATOM     16  C   UNL     1       3.625   5.376  19.251  0.00  0.00    +0.000 C 
ENDBRANCH   5   7
BRANCH   1  17
ATOM     17  C   UNL     1       7.120   4.984  14.262  0.00  0.00    +0.000 C 
ATOM     18  O   UNL     1       8.052   5.503  13.664  0.00  0.00    +0.000 OA
BRANCH  17  20
ATOM     19  C   UNL     1       6.574   3.724  12.375  0.00  0.00    +0.000 C 
ATOM     20  O   UNL     1       6.373   3.954  13.773  0.00  0.00    +0.000 OA
ENDBRANCH  17  20
ENDBRANCH   1  17
TORSDOF 3
ENDMDL
MODEL 3
REMARK VINA RESULT:      -7.7      2.888      4.280
REMARK  Name = 
REMARK  4 active torsions:
REMARK  status: ('A' for Active; 'I' for Inactive)
REMARK    1  A    between atoms: C_1  and  O_2
REMARK    2  A    between atoms: O_2  and  C_3
REMARK    3  A    between atoms: C_3  and  C_5
REMARK    4  A    between atoms: C_9  and  N_10
REMARK                            x       y       z     vdW  Elec       q    Type
REMARK                         _______ _______ _______ _____ _____    ______ ____
ROOT
ATOM      1  C   UNL     1       6.679   4.920  15.765  0.00  0.00    +0.000 A 
ATOM      2  N   UNL     1       7.766   4.594  16.495  0.00  0.00    +0.000 NA
ATOM      3  C   UNL     1       7.606   4.631  17.820  0.00  0.00    +0.000 A 
ATOM      4  C   UNL     1       6.414   4.949  18.422  0.00  0.00    +0.000 A 
ATOM      5  C   UNL     1       5.336   5.256  17.605  0.00  0.00    +0.000 A 
ATOM      6  N   UNL     1       5.466   5.271  16.265  0.00  0.00    +0.000 NA
ENDROOT
BRANCH   5   7
ATOM      7  N   UNL     1       4.117   5.570  18.218  0.00  0.00    +0.000 N 
ATOM      8  C   UNL     1       4.044   5.436  19.673  0.00  0.00    +0.000 C 
ATOM      9  C   UNL     1       2.600   5.655  20.150  0.00  0.00    +0.000 C 
ATOM     10  C   UNL     1       2.166   7.043  19.760  0.00  0.00    +0.000 A 
ATOM     11  C   UNL     1       1.389   7.841  20.606  0.00  0.00    +0.000 A 
ATOM     12  C   UNL     1       1.036   9.133  20.214  0.00  0.00    +0.000 A 
ATOM     13  C   UNL     1       1.443   9.624  18.975  0.00  0.00    +0.000 A 
ATOM     14  C   UNL     1       2.194   8.820  18.116  0.00  0.00    +0.000 A 
ATOM     15  C   UNL     1       2.567   7.524  18.503  0.00  0.00    +0.000 A 
ATOM     16  C   UNL     1       3.326   6.621  17.553  0.00  0.00    +0.000 C 
ENDBRANCH   5   7
BRANCH   1  17
ATOM     17  C   UNL     1       6.885   4.864  14.269  0.00  0.00    +0.000 C 
ATOM     18  O   UNL     1       7.841   5.358  13.690  0.00  0.00    +0.000 OA
BRANCH  17  20
ATOM     19  C   UNL     1       6.291   3.455  12.507  0.00  0.00    +0.000 C 
ATOM     20  O   UNL     1       5.865   4.208  13.646  0.00  0.00    +0.000 OA
ENDBRANCH  17  20
ENDBRANCH   1  17
TORSDOF 3
ENDMDL
MODEL 4
REMARK VINA RESULT:      -7.5      0.505      1.126
REMARK  Name = 
REMARK  4 active torsions:
REMARK  status: ('A' for Active; 'I' for Inactive)
REMARK    1  A    between atoms: C_1  and  O_2
REMARK    2  A    between atoms: O_2  and  C_3
REMARK    3  A    between atoms: C_3  and  C_5
REMARK    4  A    between atoms: C_9  and  N_10
REMARK                            x       y       z     vdW  Elec       q    Type
REMARK                         _______ _______ _______ _____ _____    ______ ____
ROOT
ATOM      1  C   UNL     1       6.957   6.288  16.839  0.00  0.00    +0.000 A 
ATOM      2  N   UNL     1       7.593   5.911  15.711  0.00  0.00    +0.000 NA
ATOM      3  C   UNL     1       7.024   4.913  15.030  0.00  0.00    +0.000 A 
ATOM      4  C   UNL     1       5.853   4.314  15.421  0.00  0.00    +0.000 A 
ATOM      5  C   UNL     1       5.247   4.767  16.583  0.00  0.00    +0.000 A 
ATOM      6  N   UNL     1       5.810   5.743  17.320  0.00  0.00    +0.000 NA
ENDROOT
BRANCH   5   7
ATOM      7  N   UNL     1       4.046   4.164  16.975  0.00  0.00    +0.000 N 
ATOM      8  C   UNL     1       4.076   2.728  17.251  0.00  0.00    +0.000 C 
ATOM      9  C   UNL     1       2.651   2.209  17.498  0.00  0.00    +0.000 C 
ATOM     10  C   UNL     1       2.074   2.928  18.689  0.00  0.00    +0.000 A 
ATOM     11  C   UNL     1       1.285   2.272  19.639  0.00  0.00    +0.000 A 
ATOM     12  C   UNL     1       0.797   2.972  20.742  0.00  0.00    +0.000 A 
ATOM     13  C   UNL     1       1.081   4.329  20.891  0.00  0.00    +0.000 A 
ATOM     14  C   UNL     1       1.844   4.993  19.930  0.00  0.00    +0.000 A 
ATOM     15  C   UNL     1       2.352   4.298  18.823  0.00  0.00    +0.000 A 
ATOM     16  C   UNL     1       3.126   5.023  17.742  0.00  0.00    +0.000 C 
ENDBRANCH   5   7
BRANCH   1  17
ATOM     17  C   UNL     1       7.617   7.423  17.587  0.00  0.00    +0.000 C 
ATOM     18  O   UNL     1       7.508   8.600  17.280  0.00  0.00    +0.000 OA
BRANCH  17  20
ATOM     19  C   UNL     1       7.791   5.825  19.278  0.00  0.00    +0.000 C 
ATOM     20  O   UNL     1       8.361   6.968  18.636  0.00  0.00    +0.000 OA
ENDBRANCH  17  20
ENDBRANCH   1  17
TORSDOF 3
ENDMDL
MODEL 5
REMARK VINA RESULT:      -7.4      2.058      3.501
REMARK  Name = 
REMARK  4 active torsions:
REMARK  status: ('A' for Active; 'I' for Inactive)
REMARK    1  A    between atoms: C_1  and  O_2
REMARK    2  A    between atoms: O_2  and  C_3
REMARK    3  A    between atoms: C_3  and  C_5
REMARK    4  A    between atoms: C_9  and  N_10
REMARK                            x       y       z     vdW  Elec       q    Type
REMARK                         _______ _______ _______ _____ _____    ______ ____
ROOT
ATOM      1  C   UNL     1       6.835   5.476  15.838  0.00  0.00    +0.000 A 
ATOM      2  N   UNL     1       7.748   6.400  16.202  0.00  0.00    +0.000 NA
ATOM      3  C   UNL     1       7.633   6.869  17.446  0.00  0.00    +0.000 A 
ATOM      4  C   UNL     1       6.674   6.434  18.325  0.00  0.00    +0.000 A 
ATOM      5  C   UNL     1       5.781   5.468  17.885  0.00  0.00    +0.000 A 
ATOM      6  N   UNL     1       5.835   4.999  16.624  0.00  0.00    +0.000 NA
ENDROOT
BRANCH   5   7
ATOM      7  N   UNL     1       4.809   5.014  18.785  0.00  0.00    +0.000 N 
ATOM      8  C   UNL     1       3.805   5.980  19.232  0.00  0.00    +0.000 C 
ATOM      9  C   UNL     1       2.932   5.362  20.334  0.00  0.00    +0.000 C 
ATOM     10  C   UNL     1       2.236   4.149  19.778  0.00  0.00    +0.000 A 
ATOM     11  C   UNL     1       0.909   3.845  20.099  0.00  0.00    +0.000 A 
ATOM     12  C   UNL     1       0.295   2.726  19.534  0.00  0.00    +0.000 A 
ATOM     13  C   UNL     1       1.006   1.902  18.664  0.00  0.00    +0.000 A 
ATOM     14  C   UNL     1       2.339   2.186  18.363  0.00  0.00    +0.000 A 
ATOM     15  C   UNL     1       2.964   3.316  18.914  0.00  0.00    +0.000 A 
ATOM     16  C   UNL     1       4.429   3.597  18.646  0.00  0.00    +0.000 C 
ENDBRANCH   5   7
BRANCH   1  17
ATOM     17  C   UNL     1       6.990   4.957  14.428  0.00  0.00    +0.000 C 
ATOM     18  O   UNL     1       7.843   5.347  13.644  0.00  0.00    +0.000 OA
BRANCH  17  20
ATOM     19  C   UNL     1       6.159   3.506  12.800  0.00  0.00    +0.000 C 
ATOM     20  O   UNL     1       6.052   4.012  14.134  0.00  0.00    +0.000 OA
ENDBRANCH  17  20
ENDBRANCH   1  17
TORSDOF 3
ENDMDL
MODEL 6
REMARK VINA RESULT:      -7.4      2.139      3.192
REMARK  Name = 
REMARK  4 active torsions:
REMARK  status: ('A' for Active; 'I' for Inactive)
REMARK    1  A    between atoms: C_1  and  O_2
REMARK    2  A    between atoms: O_2  and  C_3
REMARK    3  A    between atoms: C_3  and  C_5
REMARK    4  A    between atoms: C_9  and  N_10
REMARK                            x       y       z     vdW  Elec       q    Type
REMARK                         _______ _______ _______ _____ _____    ______ ____
ROOT
ATOM      1  C   UNL     1       6.671   5.080  14.811  0.00  0.00    +0.000 A 
ATOM      2  N   UNL     1       7.467   5.856  15.576  0.00  0.00    +0.000 NA
ATOM      3  C   UNL     1       7.052   6.054  16.830  0.00  0.00    +0.000 A 
ATOM      4  C   UNL     1       5.908   5.492  17.337  0.00  0.00    +0.000 A 
ATOM      5  C   UNL     1       5.150   4.691  16.495  0.00  0.00    +0.000 A 
ATOM      6  N   UNL     1       5.511   4.499  15.212  0.00  0.00    +0.000 NA
ENDROOT
BRANCH   5   7
ATOM      7  N   UNL     1       3.988   4.107  17.016  0.00  0.00    +0.000 N 
ATOM      8  C   UNL     1       4.036   2.679  17.325  0.00  0.00    +0.000 C 
ATOM      9  C   UNL     1       2.638   2.179  17.721  0.00  0.00    +0.000 C 
ATOM     10  C   UNL     1       2.182   2.932  18.942  0.00  0.00    +0.000 A 
ATOM     11  C   UNL     1       1.484   2.307  19.980  0.00  0.00    +0.000 A 
ATOM     12  C   UNL     1       1.109   3.039  21.107  0.00  0.00    +0.000 A 
ATOM     13  C   UNL     1       1.414   4.396  21.193  0.00  0.00    +0.000 A 
ATOM     14  C   UNL     1       2.086   5.030  20.147  0.00  0.00    +0.000 A 
ATOM     15  C   UNL     1       2.481   4.302  19.014  0.00  0.00    +0.000 A 
ATOM     16  C   UNL     1       3.152   4.994  17.846  0.00  0.00    +0.000 C 
ENDBRANCH   5   7
BRANCH   1  17
ATOM     17  C   UNL     1       7.166   4.867  13.400  0.00  0.00    +0.000 C 
ATOM     18  O   UNL     1       8.006   5.568  12.856  0.00  0.00    +0.000 OA
BRANCH  17  20
ATOM     19  C   UNL     1       7.037   3.534  11.489  0.00  0.00    +0.000 C 
ATOM     20  O   UNL     1       6.549   3.806  12.806  0.00  0.00    +0.000 OA
ENDBRANCH  17  20
ENDBRANCH   1  17
TORSDOF 3
ENDMDL
MODEL 7
REMARK VINA RESULT:      -7.4      2.289      3.274
REMARK  Name = 
REMARK  4 active torsions:
REMARK  status: ('A' for Active; 'I' for Inactive)
REMARK    1  A    between atoms: C_1  and  O_2
REMARK    2  A    between atoms: O_2  and  C_3
REMARK    3  A    between atoms: C_3  and  C_5
REMARK    4  A    between atoms: C_9  and  N_10
REMARK                            x       y       z     vdW  Elec       q    Type
REMARK                         _______ _______ _______ _____ _____    ______ ____
ROOT
ATOM      1  C   UNL     1       6.828   5.109  15.519  0.00  0.00    +0.000 A 
ATOM      2  N   UNL     1       7.478   6.146  16.087  0.00  0.00    +0.000 NA
ATOM      3  C   UNL     1       7.266   6.318  17.394  0.00  0.00    +0.000 A 
ATOM      4  C   UNL     1       6.464   5.489  18.137  0.00  0.00    +0.000 A 
ATOM      5  C   UNL     1       5.843   4.432  17.487  0.00  0.00    +0.000 A 
ATOM      6  N   UNL     1       5.997   4.249  16.162  0.00  0.00    +0.000 NA
ENDROOT
BRANCH   5   7
ATOM      7  N   UNL     1       5.033   3.580  18.248  0.00  0.00    +0.000 N 
ATOM      8  C   UNL     1       5.475   3.272  19.608  0.00  0.00    +0.000 C 
ATOM      9  C   UNL     1       4.566   2.200  20.227  0.00  0.00    +0.000 C 
ATOM     10  C   UNL     1       3.157   2.727  20.274  0.00  0.00    +0.000 A 
ATOM     11  C   UNL     1       2.312   2.487  21.363  0.00  0.00    +0.000 A 
ATOM     12  C   UNL     1       1.024   3.023  21.376  0.00  0.00    +0.000 A 
ATOM     13  C   UNL     1       0.571   3.783  20.299  0.00  0.00    +0.000 A 
ATOM     14  C   UNL     1       1.401   4.001  19.199  0.00  0.00    +0.000 A 
ATOM     15  C   UNL     1       2.704   3.480  19.179  0.00  0.00    +0.000 A 
ATOM     16  C   UNL     1       3.589   3.656  17.962  0.00  0.00    +0.000 C 
ENDBRANCH   5   7
BRANCH   1  17
ATOM     17  C   UNL     1       7.090   4.932  14.042  0.00  0.00    +0.000 C 
ATOM     18  O   UNL     1       7.999   5.481  13.437  0.00  0.00    +0.000 OA
BRANCH  17  20
ATOM     19  C   UNL     1       6.632   3.531  12.233  0.00  0.00    +0.000 C 
ATOM     20  O   UNL     1       6.178   4.098  13.466  0.00  0.00    +0.000 OA
ENDBRANCH  17  20
ENDBRANCH   1  17
TORSDOF 3
ENDMDL
MODEL 8
REMARK VINA RESULT:      -7.2      2.394      3.364
REMARK  Name = 
REMARK  4 active torsions:
REMARK  status: ('A' for Active; 'I' for Inactive)
REMARK    1  A    between atoms: C_1  and  O_2
REMARK    2  A    between atoms: O_2  and  C_3
REMARK    3  A    between atoms: C_3  and  C_5
REMARK    4  A    between atoms: C_9  and  N_10
REMARK                            x       y       z     vdW  Elec       q    Type
REMARK                         _______ _______ _______ _____ _____    ______ ____
ROOT
ATOM      1  C   UNL     1       6.105   5.162  15.066  0.00  0.00    +0.000 A 
ATOM      2  N   UNL     1       5.752   6.464  15.116  0.00  0.00    +0.000 NA
ATOM      3  C   UNL     1       4.938   6.806  16.117  0.00  0.00    +0.000 A 
ATOM      4  C   UNL     1       4.497   5.914  17.062  0.00  0.00    +0.000 A 
ATOM      5  C   UNL     1       4.917   4.596  16.956  0.00  0.00    +0.000 A 
ATOM      6  N   UNL     1       5.705   4.201  15.938  0.00  0.00    +0.000 NA
ENDROOT
BRANCH   5   7
ATOM      7  N   UNL     1       4.478   3.688  17.927  0.00  0.00    +0.000 N 
ATOM      8  C   UNL     1       5.175   3.690  19.212  0.00  0.00    +0.000 C 
ATOM      9  C   UNL     1       4.677   2.527  20.084  0.00  0.00    +0.000 C 
ATOM     10  C   UNL     1       3.201   2.699  20.324  0.00  0.00    +0.000 A 
ATOM     11  C   UNL     1       2.614   2.417  21.562  0.00  0.00    +0.000 A 
ATOM     12  C   UNL     1       1.246   2.621  21.747  0.00  0.00    +0.000 A 
ATOM     13  C   UNL     1       0.461   3.091  20.696  0.00  0.00    +0.000 A 
ATOM     14  C   UNL     1       1.038   3.347  19.451  0.00  0.00    +0.000 A 
ATOM     15  C   UNL     1       2.414   3.159  19.256  0.00  0.00    +0.000 A 
ATOM     16  C   UNL     1       3.038   3.372  17.892  0.00  0.00    +0.000 C 
ENDBRANCH   5   7
BRANCH   1  17
ATOM     17  C   UNL     1       7.032   4.803  13.929  0.00  0.00    +0.000 C 
ATOM     18  O   UNL     1       7.980   5.488  13.575  0.00  0.00    +0.000 OA
BRANCH  17  20
ATOM     19  C   UNL     1       6.680   3.689  11.910  0.00  0.00    +0.000 C 
ATOM     20  O   UNL     1       6.671   3.628  13.339  0.00  0.00    +0.000 OA
ENDBRANCH  17  20
ENDBRANCH   1  17
TORSDOF 3
ENDMDL
MODEL 9
REMARK VINA RESULT:      -7.0      3.132      4.439
REMARK  Name = 
REMARK  4 active torsions:
REMARK  status: ('A' for Active; 'I' for Inactive)
REMARK    1  A    between atoms: C_1  and  O_2
REMARK    2  A    between atoms: O_2  and  C_3
REMARK    3  A    between atoms: C_3  and  C_5
REMARK    4  A    between atoms: C_9  and  N_10
REMARK                            x       y       z     vdW  Elec       q    Type
REMARK                         _______ _______ _______ _____ _____    ______ ____
ROOT
ATOM      1  C   UNL     1       5.891   3.909  13.651  0.00  0.00    +0.000 A 
ATOM      2  N   UNL     1       7.017   4.629  13.463  0.00  0.00    +0.000 NA
ATOM      3  C   UNL     1       7.484   5.267  14.539  0.00  0.00    +0.000 A 
ATOM      4  C   UNL     1       6.890   5.187  15.773  0.00  0.00    +0.000 A 
ATOM      5  C   UNL     1       5.745   4.412  15.894  0.00  0.00    +0.000 A 
ATOM      6  N   UNL     1       5.218   3.787  14.824  0.00  0.00    +0.000 NA
ENDROOT
BRANCH   5   7
ATOM      7  N   UNL     1       5.145   4.321  17.156  0.00  0.00    +0.000 N 
ATOM      8  C   UNL     1       4.770   5.573  17.812  0.00  0.00    +0.000 C 
ATOM      9  C   UNL     1       4.288   5.293  19.244  0.00  0.00    +0.000 C 
ATOM     10  C   UNL     1       3.085   4.390  19.182  0.00  0.00    +0.000 A 
ATOM     11  C   UNL     1       1.988   4.559  20.032  0.00  0.00    +0.000 A 
ATOM     12  C   UNL     1       0.882   3.715  19.918  0.00  0.00    +0.000 A 
ATOM     13  C   UNL     1       0.875   2.695  18.968  0.00  0.00    +0.000 A 
ATOM     14  C   UNL     1       1.980   2.506  18.137  0.00  0.00    +0.000 A 
ATOM     15  C   UNL     1       3.093   3.355  18.232  0.00  0.00    +0.000 A 
ATOM     16  C   UNL     1       4.323   3.118  17.380  0.00  0.00    +0.000 C 
ENDBRANCH   5   7
BRANCH   1  17
ATOM     17  C   UNL     1       5.387   3.193  12.421  0.00  0.00    +0.000 C 
ATOM     18  O   UNL     1       5.997   2.300  11.850  0.00  0.00    +0.000 OA
BRANCH  17  20
ATOM     19  C   UNL     1       3.734   3.123  10.776  0.00  0.00    +0.000 C 
ATOM     20  O   UNL     1       4.177   3.674  12.019  0.00  0.00    +0.000 OA
ENDBRANCH  17  20
ENDBRANCH   1  17
TORSDOF 3
ENDMDL
