MODEL 1
REMARK VINA RESULT:      -8.1      0.000      0.000
REMARK  Name = 
REMARK  5 active torsions:
REMARK  status: ('A' for Active; 'I' for Inactive)
REMARK    1  A    between atoms: C_1  and  C_2
REMARK    2  A    between atoms: C_5  and  N_6
REMARK    3  A    between atoms: C_7  and  C_9
REMARK    4  A    between atoms: C_16  and  S_17
REMARK    5  A    between atoms: S_17  and  N_20
REMARK                            x       y       z     vdW  Elec       q    Type
REMARK                         _______ _______ _______ _____ _____    ______ ____
ROOT
ATOM      1  C   UNL     1       3.234   2.735  20.651  0.00  0.00    +0.000 C 
ATOM      2  C   UNL     1       2.807   4.091  20.163  0.00  0.00    +0.000 A 
ATOM      3  C   UNL     1       1.660   4.645  20.742  0.00  0.00    +0.000 A 
ATOM      4  C   UNL     1       1.318   5.973  20.519  0.00  0.00    +0.000 A 
ATOM      5  C   UNL     1       2.122   6.796  19.735  0.00  0.00    +0.000 A 
ATOM      6  C   UNL     1       3.230   6.236  19.074  0.00  0.00    +0.000 A 
ATOM      7  C   UNL     1       3.555   4.878  19.268  0.00  0.00    +0.000 A 
ENDROOT
BRANCH   5   8
ATOM      8  N   UNL     1       1.886   8.189  19.640  0.00  0.00    +0.000 N 
ATOM      9  C   UNL     1       1.880   8.930  18.471  0.00  0.00    +0.000 C 
ATOM     10  O   UNL     1       2.293   8.574  17.372  0.00  0.00    +0.000 OA
ATOM     11  H   UNL     1       1.733   8.678  20.514  0.00  0.00    +0.000 HD
BRANCH   9  12
ATOM     12  C   UNL     1       1.356  10.306  18.579  0.00  0.00    +0.000 A 
ATOM     13  C   UNL     1       0.052  10.595  18.988  0.00  0.00    +0.000 A 
ATOM     14  C   UNL     1      -0.357  11.927  19.047  0.00  0.00    +0.000 A 
ATOM     15  C   UNL     1       0.549  12.915  18.686  0.00  0.00    +0.000 A 
ATOM     16  N   UNL     1       1.803  12.663  18.255  0.00  0.00    +0.000 NA
ATOM     17  C   UNL     1       2.175  11.361  18.196  0.00  0.00    +0.000 A 
ENDBRANCH   9  12
ENDBRANCH   5   8
BRANCH   7  18
ATOM     18  S   UNL     1       4.844   4.138  18.256  0.00  0.00    +0.000 S 
ATOM     19  O   UNL     1       6.013   4.015  19.097  0.00  0.00    +0.000 OA
ATOM     20  O   UNL     1       4.277   2.981  17.590  0.00  0.00    +0.000 OA
BRANCH  18  21
ATOM     21  N   UNL     1       5.134   5.309  17.073  0.00  0.00    +0.000 NA
ATOM     22  C   UNL     1       5.392   4.842  15.689  0.00  0.00    +0.000 C 
ATOM     23  C   UNL     1       6.897   4.690  15.451  0.00  0.00    +0.000 C 
ATOM     24  O   UNL     1       7.558   5.949  15.643  0.00  0.00    +0.000 OA
ATOM     25  C   UNL     1       7.407   6.402  16.996  0.00  0.00    +0.000 C 
ATOM     26  C   UNL     1       5.939   6.514  17.423  0.00  0.00    +0.000 C 
ENDBRANCH  18  21
ENDBRANCH   7  18
TORSDOF 4
ENDMDL
MODEL 2
REMARK VINA RESULT:      -8.0      1.089      1.220
REMARK  Name = 
REMARK  5 active torsions:
REMARK  status: ('A' for Active; 'I' for Inactive)
REMARK    1  A    between atoms: C_1  and  C_2
REMARK    2  A    between atoms: C_5  and  N_6
REMARK    3  A    between atoms: C_7  and  C_9
REMARK    4  A    between atoms: C_16  and  S_17
REMARK    5  A    between atoms: S_17  and  N_20
REMARK                            x       y       z     vdW  Elec       q    Type
REMARK                         _______ _______ _______ _____ _____    ______ ____
ROOT
ATOM      1  C   UNL     1       2.973   2.417  20.335  0.00  0.00    +0.000 C 
ATOM      2  C   UNL     1       2.631   3.858  20.075  0.00  0.00    +0.000 A 
ATOM      3  C   UNL     1       1.471   4.356  20.679  0.00  0.00    +0.000 A 
ATOM      4  C   UNL     1       1.195   5.718  20.679  0.00  0.00    +0.000 A 
ATOM      5  C   UNL     1       2.079   6.626  20.102  0.00  0.00    +0.000 A 
ATOM      6  C   UNL     1       3.205   6.138  19.414  0.00  0.00    +0.000 A 
ATOM      7  C   UNL     1       3.464   4.753  19.380  0.00  0.00    +0.000 A 
ENDROOT
BRANCH   5   8
ATOM      8  N   UNL     1       1.904   8.023  20.245  0.00  0.00    +0.000 N 
ATOM      9  C   UNL     1       1.475   8.891  19.256  0.00  0.00    +0.000 C 
ATOM     10  O   UNL     1       1.395   8.655  18.055  0.00  0.00    +0.000 OA
ATOM     11  H   UNL     1       2.139   8.414  21.150  0.00  0.00    +0.000 HD
BRANCH   9  12
ATOM     12  C   UNL     1       1.116  10.252  19.698  0.00  0.00    +0.000 A 
ATOM     13  C   UNL     1       1.098  11.353  18.838  0.00  0.00    +0.000 A 
ATOM     14  C   UNL     1       0.758  12.604  19.351  0.00  0.00    +0.000 A 
ATOM     15  C   UNL     1       0.459  12.708  20.703  0.00  0.00    +0.000 A 
ATOM     16  N   UNL     1       0.502  11.669  21.563  0.00  0.00    +0.000 NA
ATOM     17  C   UNL     1       0.844  10.465  21.044  0.00  0.00    +0.000 A 
ENDBRANCH   9  12
ENDBRANCH   5   8
BRANCH   7  18
ATOM     18  S   UNL     1       4.786   4.141  18.324  0.00  0.00    +0.000 S 
ATOM     19  O   UNL     1       5.928   3.914  19.180  0.00  0.00    +0.000 OA
ATOM     20  O   UNL     1       4.243   3.074  17.505  0.00  0.00    +0.000 OA
BRANCH  18  21
ATOM     21  N   UNL     1       5.109   5.447  17.304  0.00  0.00    +0.000 NA
ATOM     22  C   UNL     1       5.249   5.171  15.853  0.00  0.00    +0.000 C 
ATOM     23  C   UNL     1       6.721   4.941  15.497  0.00  0.00    +0.000 C 
ATOM     24  O   UNL     1       7.496   6.104  15.821  0.00  0.00    +0.000 OA
ATOM     25  C   UNL     1       7.459   6.363  17.231  0.00  0.00    +0.000 C 
ATOM     26  C   UNL     1       6.032   6.523  17.767  0.00  0.00    +0.000 C 
ENDBRANCH  18  21
ENDBRANCH   7  18
TORSDOF 4
ENDMDL
MODEL 3
REMARK VINA RESULT:      -8.0      2.050      2.281
REMARK  Name = 
REMARK  5 active torsions:
REMARK  status: ('A' for Active; 'I' for Inactive)
REMARK    1  A    between atoms: C_1  and  C_2
REMARK    2  A    between atoms: C_5  and  N_6
REMARK    3  A    between atoms: C_7  and  C_9
REMARK    4  A    between atoms: C_16  and  S_17
REMARK    5  A    between atoms: S_17  and  N_20
REMARK                            x       y       z     vdW  Elec       q    Type
REMARK                         _______ _______ _______ _____ _____    ______ ____
ROOT
ATOM      1  C   UNL     1       2.762   1.687  19.203  0.00  0.00    +0.000 C 
ATOM      2  C   UNL     1       2.348   3.107  19.469  0.00  0.00    +0.000 A 
ATOM      3  C   UNL     1       1.068   3.310  19.994  0.00  0.00    +0.000 A 
ATOM      4  C   UNL     1       0.682   4.555  20.476  0.00  0.00    +0.000 A 
ATOM      5  C   UNL     1       1.569   5.627  20.474  0.00  0.00    +0.000 A 
ATOM      6  C   UNL     1       2.830   5.467  19.871  0.00  0.00    +0.000 A 
ATOM      7  C   UNL     1       3.206   4.215  19.346  0.00  0.00    +0.000 A 
ENDROOT
BRANCH   5   8
ATOM      8  N   UNL     1       1.256   6.849  21.118  0.00  0.00    +0.000 N 
ATOM      9  C   UNL     1       1.249   8.099  20.523  0.00  0.00    +0.000 C 
ATOM     10  O   UNL     1       1.721   8.395  19.430  0.00  0.00    +0.000 OA
ATOM     11  H   UNL     1       1.044   6.793  22.107  0.00  0.00    +0.000 HD
BRANCH   9  12
ATOM     12  C   UNL     1       0.643   9.188  21.311  0.00  0.00    +0.000 A 
ATOM     13  C   UNL     1      -0.232   8.963  22.376  0.00  0.00    +0.000 A 
ATOM     14  C   UNL     1      -0.766  10.058  23.056  0.00  0.00    +0.000 A 
ATOM     15  C   UNL     1      -0.412  11.334  22.637  0.00  0.00    +0.000 A 
ATOM     16  N   UNL     1       0.403  11.582  21.590  0.00  0.00    +0.000 NA
ATOM     17  C   UNL     1       0.902  10.502  20.940  0.00  0.00    +0.000 A 
ENDBRANCH   9  12
ENDBRANCH   5   8
BRANCH   7  18
ATOM     18  S   UNL     1       4.731   4.091  18.400  0.00  0.00    +0.000 S 
ATOM     19  O   UNL     1       5.684   3.400  19.238  0.00  0.00    +0.000 OA
ATOM     20  O   UNL     1       4.396   3.590  17.080  0.00  0.00    +0.000 OA
BRANCH  18  21
ATOM     21  N   UNL     1       5.214   5.699  18.222  0.00  0.00    +0.000 NA
ATOM     22  C   UNL     1       4.816   6.405  16.979  0.00  0.00    +0.000 C 
ATOM     23  C   UNL     1       5.924   6.291  15.927  0.00  0.00    +0.000 C 
ATOM     24  O   UNL     1       7.137   6.876  16.420  0.00  0.00    +0.000 OA
ATOM     25  C   UNL     1       7.608   6.171  17.577  0.00  0.00    +0.000 C 
ATOM     26  C   UNL     1       6.565   6.111  18.700  0.00  0.00    +0.000 C 
ENDBRANCH  18  21
ENDBRANCH   7  18
TORSDOF 4
ENDMDL
MODEL 4
REMARK VINA RESULT:      -7.9      2.024      2.246
REMARK  Name = 
REMARK  5 active torsions:
REMARK  status: ('A' for Active; 'I' for Inactive)
REMARK    1  A    between atoms: C_1  and  C_2
REMARK    2  A    between atoms: C_5  and  N_6
REMARK    3  A    between atoms: C_7  and  C_9
REMARK    4  A    between atoms: C_16  and  S_17
REMARK    5  A    between atoms: S_17  and  N_20
REMARK                            x       y       z     vdW  Elec       q    Type
REMARK                         _______ _______ _______ _____ _____    ______ ____
ROOT
ATOM      1  C   UNL     1       2.922   2.004  19.425  0.00  0.00    +0.000 C 
ATOM      2  C   UNL     1       2.513   3.432  19.652  0.00  0.00    +0.000 A 
ATOM      3  C   UNL     1       1.165   3.669  19.943  0.00  0.00    +0.000 A 
ATOM      4  C   UNL     1       0.739   4.917  20.383  0.00  0.00    +0.000 A 
ATOM      5  C   UNL     1       1.645   5.956  20.571  0.00  0.00    +0.000 A 
ATOM      6  C   UNL     1       2.989   5.764  20.200  0.00  0.00    +0.000 A 
ATOM      7  C   UNL     1       3.414   4.510  19.717  0.00  0.00    +0.000 A 
ENDROOT
BRANCH   5   8
ATOM      8  N   UNL     1       1.260   7.174  21.182  0.00  0.00    +0.000 N 
ATOM      9  C   UNL     1       1.174   8.403  20.552  0.00  0.00    +0.000 C 
ATOM     10  O   UNL     1       1.622   8.697  19.449  0.00  0.00    +0.000 OA
ATOM     11  H   UNL     1       1.056   7.133  22.173  0.00  0.00    +0.000 HD
BRANCH   9  12
ATOM     12  C   UNL     1       0.504   9.476  21.313  0.00  0.00    +0.000 A 
ATOM     13  C   UNL     1      -0.171   9.250  22.515  0.00  0.00    +0.000 A 
ATOM     14  C   UNL     1      -0.785  10.325  23.157  0.00  0.00    +0.000 A 
ATOM     15  C   UNL     1      -0.708  11.580  22.568  0.00  0.00    +0.000 A 
ATOM     16  N   UNL     1      -0.092  11.822  21.391  0.00  0.00    +0.000 NA
ATOM     17  C   UNL     1       0.489  10.759  20.781  0.00  0.00    +0.000 A 
ENDBRANCH   9  12
ENDBRANCH   5   8
BRANCH   7  18
ATOM     18  S   UNL     1       5.080   4.351  19.057  0.00  0.00    +0.000 S 
ATOM     19  O   UNL     1       5.843   5.458  19.588  0.00  0.00    +0.000 OA
ATOM     20  O   UNL     1       5.510   2.981  19.260  0.00  0.00    +0.000 OA
BRANCH  18  21
ATOM     21  N   UNL     1       4.866   4.572  17.396  0.00  0.00    +0.000 NA
ATOM     22  C   UNL     1       5.771   3.835  16.480  0.00  0.00    +0.000 C 
ATOM     23  C   UNL     1       6.979   4.704  16.115  0.00  0.00    +0.000 C 
ATOM     24  O   UNL     1       6.546   5.907  15.466  0.00  0.00    +0.000 OA
ATOM     25  C   UNL     1       5.734   6.696  16.345  0.00  0.00    +0.000 C 
ATOM     26  C   UNL     1       4.519   5.928  16.880  0.00  0.00    +0.000 C 
ENDBRANCH  18  21
ENDBRANCH   7  18
TORSDOF 4
ENDMDL
MODEL 5
REMARK VINA RESULT:      -7.5      0.997      1.287
REMARK  Name = 
REMARK  5 active torsions:
REMARK  status: ('A' for Active; 'I' for Inactive)
REMARK    1  A    between atoms: C_1  and  C_2
REMARK    2  A    between atoms: C_5  and  N_6
REMARK    3  A    between atoms: C_7  and  C_9
REMARK    4  A    between atoms: C_16  and  S_17
REMARK    5  A    between atoms: S_17  and  N_20
REMARK                            x       y       z     vdW  Elec       q    Type
REMARK                         _______ _______ _______ _____ _____    ______ ____
ROOT
ATOM      1  C   UNL     1       2.683   2.894  20.649  0.00  0.00    +0.000 C 
ATOM      2  C   UNL     1       2.410   4.294  20.177  0.00  0.00    +0.000 A 
ATOM      3  C   UNL     1       1.484   5.044  20.909  0.00  0.00    +0.000 A 
ATOM      4  C   UNL     1       1.332   6.407  20.686  0.00  0.00    +0.000 A 
ATOM      5  C   UNL     1       2.118   7.069  19.747  0.00  0.00    +0.000 A 
ATOM      6  C   UNL     1       2.992   6.318  18.940  0.00  0.00    +0.000 A 
ATOM      7  C   UNL     1       3.116   4.928  19.139  0.00  0.00    +0.000 A 
ENDROOT
BRANCH   5   8
ATOM      8  N   UNL     1       2.102   8.480  19.629  0.00  0.00    +0.000 N 
ATOM      9  C   UNL     1       1.604   9.197  18.555  0.00  0.00    +0.000 C 
ATOM     10  O   UNL     1       1.310   8.755  17.449  0.00  0.00    +0.000 OA
ATOM     11  H   UNL     1       2.516   8.997  20.395  0.00  0.00    +0.000 HD
BRANCH   9  12
ATOM     12  C   UNL     1       1.453  10.650  18.761  0.00  0.00    +0.000 A 
ATOM     13  C   UNL     1       2.227  11.600  18.090  0.00  0.00    +0.000 A 
ATOM     14  C   UNL     1       2.021  12.952  18.359  0.00  0.00    +0.000 A 
ATOM     15  C   UNL     1       1.056  13.301  19.295  0.00  0.00    +0.000 A 
ATOM     16  N   UNL     1       0.318  12.405  19.983  0.00  0.00    +0.000 NA
ATOM     17  C   UNL     1       0.543  11.097  19.712  0.00  0.00    +0.000 A 
ENDBRANCH   9  12
ENDBRANCH   5   8
BRANCH   7  18
ATOM     18  S   UNL     1       4.078   3.964  17.964  0.00  0.00    +0.000 S 
ATOM     19  O   UNL     1       4.787   2.964  18.730  0.00  0.00    +0.000 OA
ATOM     20  O   UNL     1       3.199   3.585  16.874  0.00  0.00    +0.000 OA
BRANCH  18  21
ATOM     21  N   UNL     1       5.186   5.082  17.353  0.00  0.00    +0.000 NA
ATOM     22  C   UNL     1       5.380   5.129  15.882  0.00  0.00    +0.000 C 
ATOM     23  C   UNL     1       6.549   4.228  15.472  0.00  0.00    +0.000 C 
ATOM     24  O   UNL     1       7.757   4.665  16.109  0.00  0.00    +0.000 OA
ATOM     25  C   UNL     1       7.648   4.558  17.535  0.00  0.00    +0.000 C 
ATOM     26  C   UNL     1       6.452   5.335  18.099  0.00  0.00    +0.000 C 
ENDBRANCH  18  21
ENDBRANCH   7  18
TORSDOF 4
ENDMDL
MODEL 6
REMARK VINA RESULT:      -7.4      0.917      1.038
REMARK  Name = 
REMARK  5 active torsions:
REMARK  status: ('A' for Active; 'I' for Inactive)
REMARK    1  A    between atoms: C_1  and  C_2
REMARK    2  A    between atoms: C_5  and  N_6
REMARK    3  A    between atoms: C_7  and  C_9
REMARK    4  A    between atoms: C_16  and  S_17
REMARK    5  A    between atoms: S_17  and  N_20
REMARK                            x       y       z     vdW  Elec       q    Type
REMARK                         _______ _______ _______ _____ _____    ______ ____
ROOT
ATOM      1  C   UNL     1       3.516   2.491  20.571  0.00  0.00    +0.000 C 
ATOM      2  C   UNL     1       2.960   3.850  20.251  0.00  0.00    +0.000 A 
ATOM      3  C   UNL     1       1.859   4.280  20.998  0.00  0.00    +0.000 A 
ATOM      4  C   UNL     1       1.418   5.596  20.929  0.00  0.00    +0.000 A 
ATOM      5  C   UNL     1       2.078   6.529  20.135  0.00  0.00    +0.000 A 
ATOM      6  C   UNL     1       3.132   6.097  19.310  0.00  0.00    +0.000 A 
ATOM      7  C   UNL     1       3.553   4.753  19.350  0.00  0.00    +0.000 A 
ENDROOT
BRANCH   5   8
ATOM      8  N   UNL     1       1.755   7.907  20.186  0.00  0.00    +0.000 N 
ATOM      9  C   UNL     1       1.463   8.710  19.097  0.00  0.00    +0.000 C 
ATOM     10  O   UNL     1       1.653   8.444  17.915  0.00  0.00    +0.000 OA
ATOM     11  H   UNL     1       1.764   8.335  21.104  0.00  0.00    +0.000 HD
BRANCH   9  12
ATOM     12  C   UNL     1       0.903  10.040  19.405  0.00  0.00    +0.000 A 
ATOM     13  C   UNL     1       1.113  10.693  20.622  0.00  0.00    +0.000 A 
ATOM     14  C   UNL     1       0.532  11.944  20.827  0.00  0.00    +0.000 A 
ATOM     15  C   UNL     1      -0.245  12.487  19.812  0.00  0.00    +0.000 A 
ATOM     16  N   UNL     1      -0.493  11.865  18.640  0.00  0.00    +0.000 NA
ATOM     17  C   UNL     1       0.074  10.646  18.468  0.00  0.00    +0.000 A 
ENDBRANCH   9  12
ENDBRANCH   5   8
BRANCH   7  18
ATOM     18  S   UNL     1       4.757   4.181  18.141  0.00  0.00    +0.000 S 
ATOM     19  O   UNL     1       5.890   3.684  18.888  0.00  0.00    +0.000 OA
ATOM     20  O   UNL     1       4.062   3.338  17.187  0.00  0.00    +0.000 OA
BRANCH  18  21
ATOM     21  N   UNL     1       5.203   5.596  17.333  0.00  0.00    +0.000 NA
ATOM     22  C   UNL     1       5.273   5.551  15.852  0.00  0.00    +0.000 C 
ATOM     23  C   UNL     1       6.698   5.223  15.398  0.00  0.00    +0.000 C 
ATOM     24  O   UNL     1       7.611   6.223  15.872  0.00  0.00    +0.000 OA
ATOM     25  C   UNL     1       7.641   6.246  17.305  0.00  0.00    +0.000 C 
ATOM     26  C   UNL     1       6.256   6.471  17.924  0.00  0.00    +0.000 C 
ENDBRANCH  18  21
ENDBRANCH   7  18
TORSDOF 4
ENDMDL
MODEL 7
REMARK VINA RESULT:      -7.4      2.862      4.496
REMARK  Name = 
REMARK  5 active torsions:
REMARK  status: ('A' for Active; 'I' for Inactive)
REMARK    1  A    between atoms: C_1  and  C_2
REMARK    2  A    between atoms: C_5  and  N_6
REMARK    3  A    between atoms: C_7  and  C_9
REMARK    4  A    between atoms: C_16  and  S_17
REMARK    5  A    between atoms: S_17  and  N_20
REMARK                            x       y       z     vdW  Elec       q    Type
REMARK                         _______ _______ _______ _____ _____    ______ ____
ROOT
ATOM      1  C   UNL     1       4.043   6.695  16.864  0.00  0.00    +0.000 C 
ATOM      2  C   UNL     1       3.246   7.467  17.877  0.00  0.00    +0.000 A 
ATOM      3  C   UNL     1       2.937   8.795  17.567  0.00  0.00    +0.000 A 
ATOM      4  C   UNL     1       2.025   9.513  18.331  0.00  0.00    +0.000 A 
ATOM      5  C   UNL     1       1.376   8.922  19.411  0.00  0.00    +0.000 A 
ATOM      6  C   UNL     1       1.739   7.617  19.793  0.00  0.00    +0.000 A 
ATOM      7  C   UNL     1       2.693   6.902  19.041  0.00  0.00    +0.000 A 
ENDROOT
BRANCH   5   8
ATOM      8  N   UNL     1       0.321   9.576  20.091  0.00  0.00    +0.000 N 
ATOM      9  C   UNL     1       0.406  10.169  21.339  0.00  0.00    +0.000 C 
ATOM     10  O   UNL     1       1.313  10.036  22.155  0.00  0.00    +0.000 OA
ATOM     11  H   UNL     1      -0.577   9.585  19.622  0.00  0.00    +0.000 HD
BRANCH   9  12
ATOM     12  C   UNL     1      -0.736  11.014  21.735  0.00  0.00    +0.000 A 
ATOM     13  C   UNL     1      -1.250  11.042  23.034  0.00  0.00    +0.000 A 
ATOM     14  C   UNL     1      -2.341  11.864  23.311  0.00  0.00    +0.000 A 
ATOM     15  C   UNL     1      -2.882  12.618  22.277  0.00  0.00    +0.000 A 
ATOM     16  N   UNL     1      -2.428  12.586  21.007  0.00  0.00    +0.000 NA
ATOM     17  C   UNL     1      -1.373  11.772  20.759  0.00  0.00    +0.000 A 
ENDBRANCH   9  12
ENDBRANCH   5   8
BRANCH   7  18
ATOM     18  S   UNL     1       3.290   5.325  19.666  0.00  0.00    +0.000 S 
ATOM     19  O   UNL     1       4.734   5.389  19.642  0.00  0.00    +0.000 OA
ATOM     20  O   UNL     1       2.576   5.035  20.895  0.00  0.00    +0.000 OA
BRANCH  18  21
ATOM     21  N   UNL     1       2.765   4.218  18.504  0.00  0.00    +0.000 NA
ATOM     22  C   UNL     1       1.375   3.710  18.613  0.00  0.00    +0.000 C 
ATOM     23  C   UNL     1       1.350   2.400  19.408  0.00  0.00    +0.000 C 
ATOM     24  O   UNL     1       2.153   1.409  18.752  0.00  0.00    +0.000 OA
ATOM     25  C   UNL     1       3.526   1.820  18.697  0.00  0.00    +0.000 C 
ATOM     26  C   UNL     1       3.711   3.178  18.008  0.00  0.00    +0.000 C 
ENDBRANCH  18  21
ENDBRANCH   7  18
TORSDOF 4
ENDMDL
MODEL 8
REMARK VINA RESULT:      -7.4      2.162      2.626
REMARK  Name = 
REMARK  5 active torsions:
REMARK  status: ('A' for Active; 'I' for Inactive)
REMARK    1  A    between atoms: C_1  and  C_2
REMARK    2  A    between atoms: C_5  and  N_6
REMARK    3  A    between atoms: C_7  and  C_9
REMARK    4  A    between atoms: C_16  and  S_17
REMARK    5  A    between atoms: S_17  and  N_20
REMARK                            x       y       z     vdW  Elec       q    Type
REMARK                         _______ _______ _______ _____ _____    ______ ____
ROOT
ATOM      1  C   UNL     1       3.821   2.154  19.204  0.00  0.00    +0.000 C 
ATOM      2  C   UNL     1       3.059   3.405  19.542  0.00  0.00    +0.000 A 
ATOM      3  C   UNL     1       2.239   3.365  20.674  0.00  0.00    +0.000 A 
ATOM      4  C   UNL     1       1.675   4.526  21.189  0.00  0.00    +0.000 A 
ATOM      5  C   UNL     1       1.933   5.764  20.607  0.00  0.00    +0.000 A 
ATOM      6  C   UNL     1       2.682   5.815  19.418  0.00  0.00    +0.000 A 
ATOM      7  C   UNL     1       3.222   4.632  18.873  0.00  0.00    +0.000 A 
ENDROOT
BRANCH   5   8
ATOM      8  N   UNL     1       1.513   6.971  21.216  0.00  0.00    +0.000 N 
ATOM      9  C   UNL     1       1.351   8.187  20.575  0.00  0.00    +0.000 C 
ATOM     10  O   UNL     1       1.750   8.487  19.455  0.00  0.00    +0.000 OA
ATOM     11  H   UNL     1       1.342   6.934  22.214  0.00  0.00    +0.000 HD
BRANCH   9  12
ATOM     12  C   UNL     1       0.658   9.238  21.345  0.00  0.00    +0.000 A 
ATOM     13  C   UNL     1      -0.203   8.961  22.410  0.00  0.00    +0.000 A 
ATOM     14  C   UNL     1      -0.823  10.021  23.071  0.00  0.00    +0.000 A 
ATOM     15  C   UNL     1      -0.566  11.315  22.635  0.00  0.00    +0.000 A 
ATOM     16  N   UNL     1       0.234  11.610  21.589  0.00  0.00    +0.000 NA
ATOM     17  C   UNL     1       0.818  10.563  20.956  0.00  0.00    +0.000 A 
ENDBRANCH   9  12
ENDBRANCH   5   8
BRANCH   7  18
ATOM     18  S   UNL     1       3.995   4.695  17.250  0.00  0.00    +0.000 S 
ATOM     19  O   UNL     1       3.437   3.604  16.483  0.00  0.00    +0.000 OA
ATOM     20  O   UNL     1       3.915   6.062  16.772  0.00  0.00    +0.000 OA
BRANCH  18  21
ATOM     21  N   UNL     1       5.619   4.369  17.577  0.00  0.00    +0.000 NA
ATOM     22  C   UNL     1       6.247   5.071  18.724  0.00  0.00    +0.000 C 
ATOM     23  C   UNL     1       6.932   6.356  18.248  0.00  0.00    +0.000 C 
ATOM     24  O   UNL     1       7.949   6.047  17.284  0.00  0.00    +0.000 OA
ATOM     25  C   UNL     1       7.378   5.440  16.118  0.00  0.00    +0.000 C 
ATOM     26  C   UNL     1       6.567   4.179  16.442  0.00  0.00    +0.000 C 
ENDBRANCH  18  21
ENDBRANCH   7  18
TORSDOF 4
ENDMDL
MODEL 9
REMARK VINA RESULT:      -7.2      2.995      4.645
REMARK  Name = 
REMARK  5 active torsions:
REMARK  status: ('A' for Active; 'I' for Inactive)
REMARK    1  A    between atoms: C_1  and  C_2
REMARK    2  A    between atoms: C_5  and  N_6
REMARK    3  A    between atoms: C_7  and  C_9
REMARK    4  A    between atoms: C_16  and  S_17
REMARK    5  A    between atoms: S_17  and  N_20
REMARK                            x       y       z     vdW  Elec       q    Type
REMARK                         _______ _______ _______ _____ _____    ______ ____
ROOT
ATOM      1  C   UNL     1       3.723   6.873  16.973  0.00  0.00    +0.000 C 
ATOM      2  C   UNL     1       2.963   7.622  18.031  0.00  0.00    +0.000 A 
ATOM      3  C   UNL     1       2.616   8.947  17.748  0.00  0.00    +0.000 A 
ATOM      4  C   UNL     1       1.731   9.644  18.562  0.00  0.00    +0.000 A 
ATOM      5  C   UNL     1       1.144   9.032  19.666  0.00  0.00    +0.000 A 
ATOM      6  C   UNL     1       1.546   7.731  20.018  0.00  0.00    +0.000 A 
ATOM      7  C   UNL     1       2.475   7.039  19.214  0.00  0.00    +0.000 A 
ENDROOT
BRANCH   5   8
ATOM      8  N   UNL     1       0.112   9.663  20.402  0.00  0.00    +0.000 N 
ATOM      9  C   UNL     1       0.238  10.829  21.137  0.00  0.00    +0.000 C 
ATOM     10  O   UNL     1       1.283  11.381  21.465  0.00  0.00    +0.000 OA
ATOM     11  H   UNL     1      -0.788   9.198  20.401  0.00  0.00    +0.000 HD
BRANCH   9  12
ATOM     12  C   UNL     1      -1.020  11.442  21.603  0.00  0.00    +0.000 A 
ATOM     13  C   UNL     1      -1.826  12.242  20.789  0.00  0.00    +0.000 A 
ATOM     14  C   UNL     1      -2.992  12.789  21.321  0.00  0.00    +0.000 A 
ATOM     15  C   UNL     1      -3.303  12.522  22.648  0.00  0.00    +0.000 A 
ATOM     16  N   UNL     1      -2.527  11.782  23.468  0.00  0.00    +0.000 NA
ATOM     17  C   UNL     1      -1.393  11.269  22.930  0.00  0.00    +0.000 A 
ENDBRANCH   9  12
ENDBRANCH   5   8
BRANCH   7  18
ATOM     18  S   UNL     1       3.127   5.467  19.796  0.00  0.00    +0.000 S 
ATOM     19  O   UNL     1       4.566   5.549  19.687  0.00  0.00    +0.000 OA
ATOM     20  O   UNL     1       2.490   5.162  21.063  0.00  0.00    +0.000 OA
BRANCH  18  21
ATOM     21  N   UNL     1       2.548   4.358  18.661  0.00  0.00    +0.000 NA
ATOM     22  C   UNL     1       1.264   3.676  18.956  0.00  0.00    +0.000 C 
ATOM     23  C   UNL     1       1.522   2.338  19.656  0.00  0.00    +0.000 C 
ATOM     24  O   UNL     1       2.314   1.486  18.817  0.00  0.00    +0.000 OA
ATOM     25  C   UNL     1       3.602   2.067  18.572  0.00  0.00    +0.000 C 
ATOM     26  C   UNL     1       3.513   3.468  17.954  0.00  0.00    +0.000 C 
ENDBRANCH  18  21
ENDBRANCH   7  18
TORSDOF 4
ENDMDL
