MODEL 1
REMARK VINA RESULT:      -8.2      0.000      0.000
REMARK  Name = 
REMARK  14 active torsions:
REMARK  status: ('A' for Active; 'I' for Inactive)
REMARK    1  A    between atoms: C_1  and  O_2
REMARK    2  A    between atoms: O_2  and  C_3
REMARK    3  A    between atoms: C_3  and  C_4
REMARK    4  A    between atoms: C_4  and  N_5
REMARK    5  A    between atoms: N_8  and  C_9
REMARK    6  A    between atoms: C_11  and  S_12
REMARK    7  A    between atoms: S_12  and  C_13
REMARK    8  A    between atoms: C_13  and  C_14
REMARK    9  A    between atoms: C_14  and  C_15
REMARK   10  A    between atoms: C_19  and  O_20
REMARK   11  A    between atoms: O_20  and  C_21
REMARK   12  A    between atoms: C_23  and  C_24
REMARK   13  A    between atoms: C_30  and  C_31
REMARK   14  A    between atoms: C_30  and  C_32
REMARK                            x       y       z     vdW  Elec       q    Type
REMARK                         _______ _______ _______ _____ _____    ______ ____
ROOT
ATOM      1  C   UNL     1       3.796   6.200  17.866  0.00  0.00    +0.000 A 
ATOM      2  N   UNL     1       3.392   7.491  17.771  0.00  0.00    +0.000 NA
ATOM      3  C   UNL     1       2.511   8.014  18.657  0.00  0.00    +0.000 A 
ATOM      4  C   UNL     1       1.984   7.277  19.712  0.00  0.00    +0.000 A 
ATOM      5  C   UNL     1       2.374   5.934  19.831  0.00  0.00    +0.000 A 
ATOM      6  C   UNL     1       3.319   5.394  18.922  0.00  0.00    +0.000 A 
ATOM      7  C   UNL     1       3.798   3.971  19.132  0.00  0.00    +0.000 C 
ATOM      8  O   UNL     1       3.388   3.354  20.350  0.00  0.00    +0.000 OA
ATOM      9  C   UNL     1       2.008   3.564  20.664  0.00  0.00    +0.000 C 
ATOM     10  C   UNL     1       1.747   2.736  21.927  0.00  0.00    +0.000 C 
ATOM     11  C   UNL     1       1.050   3.069  19.562  0.00  0.00    +0.000 C 
ATOM     12  C   UNL     1       1.835   5.061  20.956  0.00  0.00    +0.000 C 
ENDROOT
BRANCH   1  16
ATOM     13  N   UNL     1       6.865   4.377  15.480  0.00  0.00    +0.000 NA
ATOM     14  C   UNL     1       7.055   5.590  16.290  0.00  0.00    +0.000 C 
ATOM     15  C   UNL     1       5.816   6.494  16.414  0.00  0.00    +0.000 C 
ATOM     16  N   UNL     1       4.638   5.760  16.866  0.00  0.00    +0.000 N 
ATOM     17  C   UNL     1       4.398   4.446  16.235  0.00  0.00    +0.000 C 
ATOM     18  C   UNL     1       5.709   3.643  16.045  0.00  0.00    +0.000 C 
BRANCH  13  19
ATOM     19  C   UNL     1       6.659   4.643  14.048  0.00  0.00    +0.000 C 
BRANCH  19  20
ATOM     20  C   UNL     1       5.720   3.647  13.352  0.00  0.00    +0.000 C 
BRANCH  20  22
ATOM     21  C   UNL     1       7.136   2.900  11.634  0.00  0.00    +0.000 C 
ATOM     22  O   UNL     1       5.981   3.666  11.947  0.00  0.00    +0.000 OA
ENDBRANCH  20  22
ENDBRANCH  19  20
ENDBRANCH  13  19
ENDBRANCH   1  16
BRANCH   4  23
ATOM     23  C   UNL     1       1.071   7.863  20.649  0.00  0.00    +0.000 C 
ATOM     24  N   UNL     1       0.362   8.382  21.414  0.00  0.00    +0.000 NA
ENDBRANCH   4  23
BRANCH   3  25
ATOM     25  S   UNL     1       2.056   9.734  18.401  0.00  0.00    +0.000 S 
BRANCH  25  26
ATOM     26  C   UNL     1       0.299   9.600  17.916  0.00  0.00    +0.000 C 
BRANCH  26  27
ATOM     27  C   UNL     1      -0.576  10.690  18.543  0.00  0.00    +0.000 C 
BRANCH  27  28
ATOM     28  C   UNL     1      -1.927  10.755  17.865  0.00  0.00    +0.000 A 
ATOM     29  C   UNL     1      -2.119  10.113  16.640  0.00  0.00    +0.000 A 
ATOM     30  C   UNL     1      -3.317  10.240  15.941  0.00  0.00    +0.000 A 
ATOM     31  C   UNL     1      -4.354  10.988  16.489  0.00  0.00    +0.000 A 
ATOM     32  C   UNL     1      -4.200  11.604  17.734  0.00  0.00    +0.000 A 
ATOM     33  C   UNL     1      -2.983  11.491  18.415  0.00  0.00    +0.000 A 
BRANCH  32  34
ATOM     34  O   UNL     1      -5.301  12.291  18.170  0.00  0.00    +0.000 OA
ATOM     35  C   UNL     1      -5.872  11.859  19.396  0.00  0.00    +0.000 C 
ENDBRANCH  32  34
ENDBRANCH  27  28
ENDBRANCH  26  27
ENDBRANCH  25  26
ENDBRANCH   3  25
TORSDOF 10
ENDMDL
MODEL 2
REMARK VINA RESULT:      -8.1      0.911      1.603
REMARK  Name = 
REMARK  14 active torsions:
REMARK  status: ('A' for Active; 'I' for Inactive)
REMARK    1  A    between atoms: C_1  and  O_2
REMARK    2  A    between atoms: O_2  and  C_3
REMARK    3  A    between atoms: C_3  and  C_4
REMARK    4  A    between atoms: C_4  and  N_5
REMARK    5  A    between atoms: N_8  and  C_9
REMARK    6  A    between atoms: C_11  and  S_12
REMARK    7  A    between atoms: S_12  and  C_13
REMARK    8  A    between atoms: C_13  and  C_14
REMARK    9  A    between atoms: C_14  and  C_15
REMARK   10  A    between atoms: C_19  and  O_20
REMARK   11  A    between atoms: O_20  and  C_21
REMARK   12  A    between atoms: C_23  and  C_24
REMARK   13  A    between atoms: C_30  and  C_31
REMARK   14  A    between atoms: C_30  and  C_32
REMARK                            x       y       z     vdW  Elec       q    Type
REMARK                         _______ _______ _______ _____ _____    ______ ____
ROOT
ATOM      1  C   UNL     1       3.678   6.272  17.963  0.00  0.00    +0.000 A 
ATOM      2  N   UNL     1       3.277   7.564  17.877  0.00  0.00    +0.000 NA
ATOM      3  C   UNL     1       2.386   8.079  18.759  0.00  0.00    +0.000 A 
ATOM      4  C   UNL     1       1.847   7.332  19.800  0.00  0.00    +0.000 A 
ATOM      5  C   UNL     1       2.235   5.988  19.909  0.00  0.00    +0.000 A 
ATOM      6  C   UNL     1       3.190   5.456  19.005  0.00  0.00    +0.000 A 
ATOM      7  C   UNL     1       3.666   4.031  19.206  0.00  0.00    +0.000 C 
ATOM      8  O   UNL     1       3.242   3.401  20.413  0.00  0.00    +0.000 OA
ATOM      9  C   UNL     1       1.859   3.609  20.715  0.00  0.00    +0.000 C 
ATOM     10  C   UNL     1       1.584   2.769  21.966  0.00  0.00    +0.000 C 
ATOM     11  C   UNL     1       0.913   3.126  19.597  0.00  0.00    +0.000 C 
ATOM     12  C   UNL     1       1.684   5.104  21.020  0.00  0.00    +0.000 C 
ENDROOT
BRANCH   1  16
ATOM     13  N   UNL     1       6.844   4.582  15.606  0.00  0.00    +0.000 NA
ATOM     14  C   UNL     1       6.935   5.866  16.318  0.00  0.00    +0.000 C 
ATOM     15  C   UNL     1       5.616   6.652  16.420  0.00  0.00    +0.000 C 
ATOM     16  N   UNL     1       4.531   5.842  16.968  0.00  0.00    +0.000 N 
ATOM     17  C   UNL     1       4.406   4.467  16.443  0.00  0.00    +0.000 C 
ATOM     18  C   UNL     1       5.784   3.783  16.264  0.00  0.00    +0.000 C 
BRANCH  13  19
ATOM     19  C   UNL     1       6.571   4.716  14.166  0.00  0.00    +0.000 C 
BRANCH  19  20
ATOM     20  C   UNL     1       5.688   3.602  13.587  0.00  0.00    +0.000 C 
BRANCH  20  22
ATOM     21  C   UNL     1       4.883   3.169  11.424  0.00  0.00    +0.000 C 
ATOM     22  O   UNL     1       6.039   3.396  12.216  0.00  0.00    +0.000 OA
ENDBRANCH  20  22
ENDBRANCH  19  20
ENDBRANCH  13  19
ENDBRANCH   1  16
BRANCH   4  23
ATOM     23  C   UNL     1       0.924   7.909  20.733  0.00  0.00    +0.000 C 
ATOM     24  N   UNL     1       0.217   8.385  21.526  0.00  0.00    +0.000 NA
ENDBRANCH   4  23
BRANCH   3  25
ATOM     25  S   UNL     1       1.935   9.802  18.514  0.00  0.00    +0.000 S 
BRANCH  25  26
ATOM     26  C   UNL     1       0.232   9.666  17.865  0.00  0.00    +0.000 C 
BRANCH  26  27
ATOM     27  C   UNL     1      -0.821  10.204  18.839  0.00  0.00    +0.000 C 
BRANCH  27  28
ATOM     28  C   UNL     1      -2.046  10.690  18.097  0.00  0.00    +0.000 A 
ATOM     29  C   UNL     1      -2.993  11.472  18.762  0.00  0.00    +0.000 A 
ATOM     30  C   UNL     1      -4.181  11.848  18.139  0.00  0.00    +0.000 A 
ATOM     31  C   UNL     1      -4.413  11.471  16.820  0.00  0.00    +0.000 A 
ATOM     32  C   UNL     1      -3.460  10.724  16.121  0.00  0.00    +0.000 A 
ATOM     33  C   UNL     1      -2.283  10.330  16.765  0.00  0.00    +0.000 A 
BRANCH  32  34
ATOM     34  O   UNL     1      -3.800  10.437  14.826  0.00  0.00    +0.000 OA
ATOM     35  C   UNL     1      -2.825   9.753  14.053  0.00  0.00    +0.000 C 
ENDBRANCH  32  34
ENDBRANCH  27  28
ENDBRANCH  26  27
ENDBRANCH  25  26
ENDBRANCH   3  25
TORSDOF 10
ENDMDL
MODEL 3
REMARK VINA RESULT:      -7.6      1.888      2.583
REMARK  Name = 
REMARK  14 active torsions:
REMARK  status: ('A' for Active; 'I' for Inactive)
REMARK    1  A    between atoms: C_1  and  O_2
REMARK    2  A    between atoms: O_2  and  C_3
REMARK    3  A    between atoms: C_3  and  C_4
REMARK    4  A    between atoms: C_4  and  N_5
REMARK    5  A    between atoms: N_8  and  C_9
REMARK    6  A    between atoms: C_11  and  S_12
REMARK    7  A    between atoms: S_12  and  C_13
REMARK    8  A    between atoms: C_13  and  C_14
REMARK    9  A    between atoms: C_14  and  C_15
REMARK   10  A    between atoms: C_19  and  O_20
REMARK   11  A    between atoms: O_20  and  C_21
REMARK   12  A    between atoms: C_23  and  C_24
REMARK   13  A    between atoms: C_30  and  C_31
REMARK   14  A    between atoms: C_30  and  C_32
REMARK                            x       y       z     vdW  Elec       q    Type
REMARK                         _______ _______ _______ _____ _____    ______ ____
ROOT
ATOM      1  C   UNL     1       3.689   6.269  18.027  0.00  0.00    +0.000 A 
ATOM      2  N   UNL     1       3.280   7.560  17.975  0.00  0.00    +0.000 NA
ATOM      3  C   UNL     1       2.384   8.046  18.868  0.00  0.00    +0.000 A 
ATOM      4  C   UNL     1       1.848   7.268  19.889  0.00  0.00    +0.000 A 
ATOM      5  C   UNL     1       2.244   5.923  19.962  0.00  0.00    +0.000 A 
ATOM      6  C   UNL     1       3.204   5.422  19.047  0.00  0.00    +0.000 A 
ATOM      7  C   UNL     1       3.688   3.995  19.210  0.00  0.00    +0.000 C 
ATOM      8  O   UNL     1       3.266   3.331  20.399  0.00  0.00    +0.000 OA
ATOM      9  C   UNL     1       1.882   3.522  20.703  0.00  0.00    +0.000 C 
ATOM     10  C   UNL     1       1.610   2.647  21.931  0.00  0.00    +0.000 C 
ATOM     11  C   UNL     1       0.940   3.063  19.571  0.00  0.00    +0.000 C 
ATOM     12  C   UNL     1       1.697   5.007  21.048  0.00  0.00    +0.000 C 
ENDROOT
BRANCH   1  16
ATOM     13  N   UNL     1       6.793   4.543  15.613  0.00  0.00    +0.000 NA
ATOM     14  C   UNL     1       6.972   5.721  16.477  0.00  0.00    +0.000 C 
ATOM     15  C   UNL     1       5.732   6.621  16.620  0.00  0.00    +0.000 C 
ATOM     16  N   UNL     1       4.546   5.871  17.023  0.00  0.00    +0.000 N 
ATOM     17  C   UNL     1       4.315   4.585  16.332  0.00  0.00    +0.000 C 
ATOM     18  C   UNL     1       5.627   3.788  16.128  0.00  0.00    +0.000 C 
BRANCH  13  19
ATOM     19  C   UNL     1       6.609   4.871  14.191  0.00  0.00    +0.000 C 
BRANCH  19  20
ATOM     20  C   UNL     1       6.205   3.675  13.317  0.00  0.00    +0.000 C 
BRANCH  20  22
ATOM     21  C   UNL     1       4.721   3.093  11.592  0.00  0.00    +0.000 C 
ATOM     22  O   UNL     1       4.947   3.955  12.699  0.00  0.00    +0.000 OA
ENDBRANCH  20  22
ENDBRANCH  19  20
ENDBRANCH  13  19
ENDBRANCH   1  16
BRANCH   4  23
ATOM     23  C   UNL     1       0.920   7.813  20.835  0.00  0.00    +0.000 C 
ATOM     24  N   UNL     1       0.185   8.307  21.592  0.00  0.00    +0.000 NA
ENDBRANCH   4  23
BRANCH   3  25
ATOM     25  S   UNL     1       1.923   9.771  18.669  0.00  0.00    +0.000 S 
BRANCH  25  26
ATOM     26  C   UNL     1       0.388   9.649  17.685  0.00  0.00    +0.000 C 
BRANCH  26  27
ATOM     27  C   UNL     1      -0.866   9.999  18.492  0.00  0.00    +0.000 C 
BRANCH  27  28
ATOM     28  C   UNL     1      -0.703  11.326  19.198  0.00  0.00    +0.000 A 
ATOM     29  C   UNL     1      -0.806  11.387  20.590  0.00  0.00    +0.000 A 
ATOM     30  C   UNL     1      -0.764  12.606  21.261  0.00  0.00    +0.000 A 
ATOM     31  C   UNL     1      -0.580  13.781  20.539  0.00  0.00    +0.000 A 
ATOM     32  C   UNL     1      -0.432  13.740  19.150  0.00  0.00    +0.000 A 
ATOM     33  C   UNL     1      -0.502  12.513  18.483  0.00  0.00    +0.000 A 
BRANCH  32  34
ATOM     34  O   UNL     1      -0.236  14.961  18.562  0.00  0.00    +0.000 OA
ATOM     35  C   UNL     1       1.026  15.574  18.782  0.00  0.00    +0.000 C 
ENDBRANCH  32  34
ENDBRANCH  27  28
ENDBRANCH  26  27
ENDBRANCH  25  26
ENDBRANCH   3  25
TORSDOF 10
ENDMDL
MODEL 4
REMARK VINA RESULT:      -7.6      2.083      2.795
REMARK  Name = 
REMARK  14 active torsions:
REMARK  status: ('A' for Active; 'I' for Inactive)
REMARK    1  A    between atoms: C_1  and  O_2
REMARK    2  A    between atoms: O_2  and  C_3
REMARK    3  A    between atoms: C_3  and  C_4
REMARK    4  A    between atoms: C_4  and  N_5
REMARK    5  A    between atoms: N_8  and  C_9
REMARK    6  A    between atoms: C_11  and  S_12
REMARK    7  A    between atoms: S_12  and  C_13
REMARK    8  A    between atoms: C_13  and  C_14
REMARK    9  A    between atoms: C_14  and  C_15
REMARK   10  A    between atoms: C_19  and  O_20
REMARK   11  A    between atoms: O_20  and  C_21
REMARK   12  A    between atoms: C_23  and  C_24
REMARK   13  A    between atoms: C_30  and  C_31
REMARK   14  A    between atoms: C_30  and  C_32
REMARK                            x       y       z     vdW  Elec       q    Type
REMARK                         _______ _______ _______ _____ _____    ______ ____
ROOT
ATOM      1  C   UNL     1       3.785   6.213  17.941  0.00  0.00    +0.000 A 
ATOM      2  N   UNL     1       3.384   7.505  17.853  0.00  0.00    +0.000 NA
ATOM      3  C   UNL     1       2.490   8.021  18.730  0.00  0.00    +0.000 A 
ATOM      4  C   UNL     1       1.946   7.275  19.770  0.00  0.00    +0.000 A 
ATOM      5  C   UNL     1       2.333   5.930  19.881  0.00  0.00    +0.000 A 
ATOM      6  C   UNL     1       3.291   5.397  18.982  0.00  0.00    +0.000 A 
ATOM      7  C   UNL     1       3.766   3.972  19.185  0.00  0.00    +0.000 C 
ATOM      8  O   UNL     1       3.336   3.343  20.391  0.00  0.00    +0.000 OA
ATOM      9  C   UNL     1       1.952   3.552  20.686  0.00  0.00    +0.000 C 
ATOM     10  C   UNL     1       1.671   2.713  21.937  0.00  0.00    +0.000 C 
ATOM     11  C   UNL     1       1.011   3.069  19.564  0.00  0.00    +0.000 C 
ATOM     12  C   UNL     1       1.776   5.047  20.990  0.00  0.00    +0.000 C 
ENDROOT
BRANCH   1  16
ATOM     13  N   UNL     1       6.860   4.372  15.577  0.00  0.00    +0.000 NA
ATOM     14  C   UNL     1       7.068   5.546  16.440  0.00  0.00    +0.000 C 
ATOM     15  C   UNL     1       5.859   6.489  16.563  0.00  0.00    +0.000 C 
ATOM     16  N   UNL     1       4.641   5.782  16.950  0.00  0.00    +0.000 N 
ATOM     17  C   UNL     1       4.375   4.503  16.260  0.00  0.00    +0.000 C 
ATOM     18  C   UNL     1       5.662   3.660  16.077  0.00  0.00    +0.000 C 
BRANCH  13  19
ATOM     19  C   UNL     1       6.709   4.701  14.151  0.00  0.00    +0.000 C 
BRANCH  19  20
ATOM     20  C   UNL     1       5.688   3.827  13.409  0.00  0.00    +0.000 C 
BRANCH  20  22
ATOM     21  C   UNL     1       6.098   2.225  11.742  0.00  0.00    +0.000 C 
ATOM     22  O   UNL     1       6.149   3.605  12.074  0.00  0.00    +0.000 OA
ENDBRANCH  20  22
ENDBRANCH  19  20
ENDBRANCH  13  19
ENDBRANCH   1  16
BRANCH   4  23
ATOM     23  C   UNL     1       1.019   7.852  20.698  0.00  0.00    +0.000 C 
ATOM     24  N   UNL     1       0.304   8.361  21.463  0.00  0.00    +0.000 NA
ENDBRANCH   4  23
BRANCH   3  25
ATOM     25  S   UNL     1       2.041   9.743  18.483  0.00  0.00    +0.000 S 
BRANCH  25  26
ATOM     26  C   UNL     1       0.363   9.606  17.771  0.00  0.00    +0.000 C 
BRANCH  26  27
ATOM     27  C   UNL     1      -0.719  10.200  18.678  0.00  0.00    +0.000 C 
BRANCH  27  28
ATOM     28  C   UNL     1      -0.370  11.615  19.082  0.00  0.00    +0.000 A 
ATOM     29  C   UNL     1      -0.627  12.670  18.203  0.00  0.00    +0.000 A 
ATOM     30  C   UNL     1      -0.223  13.969  18.501  0.00  0.00    +0.000 A 
ATOM     31  C   UNL     1       0.413  14.229  19.710  0.00  0.00    +0.000 A 
ATOM     32  C   UNL     1       0.643  13.197  20.624  0.00  0.00    +0.000 A 
ATOM     33  C   UNL     1       0.256  11.892  20.304  0.00  0.00    +0.000 A 
BRANCH  32  34
ATOM     34  O   UNL     1       1.257  13.589  21.783  0.00  0.00    +0.000 OA
ATOM     35  C   UNL     1       1.946  14.830  21.745  0.00  0.00    +0.000 C 
ENDBRANCH  32  34
ENDBRANCH  27  28
ENDBRANCH  26  27
ENDBRANCH  25  26
ENDBRANCH   3  25
TORSDOF 10
ENDMDL
MODEL 5
REMARK VINA RESULT:      -7.4      1.141      1.763
REMARK  Name = 
REMARK  14 active torsions:
REMARK  status: ('A' for Active; 'I' for Inactive)
REMARK    1  A    between atoms: C_1  and  O_2
REMARK    2  A    between atoms: O_2  and  C_3
REMARK    3  A    between atoms: C_3  and  C_4
REMARK    4  A    between atoms: C_4  and  N_5
REMARK    5  A    between atoms: N_8  and  C_9
REMARK    6  A    between atoms: C_11  and  S_12
REMARK    7  A    between atoms: S_12  and  C_13
REMARK    8  A    between atoms: C_13  and  C_14
REMARK    9  A    between atoms: C_14  and  C_15
REMARK   10  A    between atoms: C_19  and  O_20
REMARK   11  A    between atoms: O_20  and  C_21
REMARK   12  A    between atoms: C_23  and  C_24
REMARK   13  A    between atoms: C_30  and  C_31
REMARK   14  A    between atoms: C_30  and  C_32
REMARK                            x       y       z     vdW  Elec       q    Type
REMARK                         _______ _______ _______ _____ _____    ______ ____
ROOT
ATOM      1  C   UNL     1       3.661   6.183  17.757  0.00  0.00    +0.000 A 
ATOM      2  N   UNL     1       3.290   7.483  17.654  0.00  0.00    +0.000 NA
ATOM      3  C   UNL     1       2.482   8.055  18.579  0.00  0.00    +0.000 A 
ATOM      4  C   UNL     1       2.002   7.361  19.685  0.00  0.00    +0.000 A 
ATOM      5  C   UNL     1       2.360   6.010  19.814  0.00  0.00    +0.000 A 
ATOM      6  C   UNL     1       3.229   5.419  18.863  0.00  0.00    +0.000 A 
ATOM      7  C   UNL     1       3.680   3.988  19.080  0.00  0.00    +0.000 C 
ATOM      8  O   UNL     1       3.330   3.414  20.338  0.00  0.00    +0.000 OA
ATOM      9  C   UNL     1       1.980   3.674  20.732  0.00  0.00    +0.000 C 
ATOM     10  C   UNL     1       1.776   2.886  22.030  0.00  0.00    +0.000 C 
ATOM     11  C   UNL     1       0.940   3.181  19.706  0.00  0.00    +0.000 C 
ATOM     12  C   UNL     1       1.869   5.182  20.995  0.00  0.00    +0.000 C 
ENDROOT
BRANCH   1  16
ATOM     13  N   UNL     1       6.652   4.421  15.232  0.00  0.00    +0.000 NA
ATOM     14  C   UNL     1       6.734   5.780  15.789  0.00  0.00    +0.000 C 
ATOM     15  C   UNL     1       5.383   6.496  15.965  0.00  0.00    +0.000 C 
ATOM     16  N   UNL     1       4.424   5.693  16.719  0.00  0.00    +0.000 N 
ATOM     17  C   UNL     1       4.337   4.263  16.359  0.00  0.00    +0.000 C 
ATOM     18  C   UNL     1       5.730   3.643  16.091  0.00  0.00    +0.000 C 
BRANCH  13  19
ATOM     19  C   UNL     1       6.211   4.378  13.828  0.00  0.00    +0.000 C 
BRANCH  19  20
ATOM     20  C   UNL     1       7.356   4.439  12.808  0.00  0.00    +0.000 C 
BRANCH  20  22
ATOM     21  C   UNL     1       8.342   6.342  11.847  0.00  0.00    +0.000 C 
ATOM     22  O   UNL     1       8.133   5.614  13.049  0.00  0.00    +0.000 OA
ENDBRANCH  20  22
ENDBRANCH  19  20
ENDBRANCH  13  19
ENDBRANCH   1  16
BRANCH   4  23
ATOM     23  C   UNL     1       1.168   7.997  20.662  0.00  0.00    +0.000 C 
ATOM     24  N   UNL     1       0.525   8.496  21.494  0.00  0.00    +0.000 NA
ENDBRANCH   4  23
BRANCH   3  25
ATOM     25  S   UNL     1       2.062   9.781  18.306  0.00  0.00    +0.000 S 
BRANCH  25  26
ATOM     26  C   UNL     1       0.240   9.718  18.173  0.00  0.00    +0.000 C 
BRANCH  26  27
ATOM     27  C   UNL     1      -0.432  11.033  18.578  0.00  0.00    +0.000 C 
BRANCH  27  28
ATOM     28  C   UNL     1      -1.839  11.114  18.028  0.00  0.00    +0.000 A 
ATOM     29  C   UNL     1      -2.844  11.723  18.783  0.00  0.00    +0.000 A 
ATOM     30  C   UNL     1      -4.168  11.721  18.352  0.00  0.00    +0.000 A 
ATOM     31  C   UNL     1      -4.492  11.137  17.132  0.00  0.00    +0.000 A 
ATOM     32  C   UNL     1      -3.495  10.560  16.339  0.00  0.00    +0.000 A 
ATOM     33  C   UNL     1      -2.173  10.544  16.794  0.00  0.00    +0.000 A 
BRANCH  32  34
ATOM     34  O   UNL     1      -3.942  10.039  15.154  0.00  0.00    +0.000 OA
ATOM     35  C   UNL     1      -3.050  10.120  14.051  0.00  0.00    +0.000 C 
ENDBRANCH  32  34
ENDBRANCH  27  28
ENDBRANCH  26  27
ENDBRANCH  25  26
ENDBRANCH   3  25
TORSDOF 10
ENDMDL
MODEL 6
REMARK VINA RESULT:      -7.3      1.764      2.278
REMARK  Name = 
REMARK  14 active torsions:
REMARK  status: ('A' for Active; 'I' for Inactive)
REMARK    1  A    between atoms: C_1  and  O_2
REMARK    2  A    between atoms: O_2  and  C_3
REMARK    3  A    between atoms: C_3  and  C_4
REMARK    4  A    between atoms: C_4  and  N_5
REMARK    5  A    between atoms: N_8  and  C_9
REMARK    6  A    between atoms: C_11  and  S_12
REMARK    7  A    between atoms: S_12  and  C_13
REMARK    8  A    between atoms: C_13  and  C_14
REMARK    9  A    between atoms: C_14  and  C_15
REMARK   10  A    between atoms: C_19  and  O_20
REMARK   11  A    between atoms: O_20  and  C_21
REMARK   12  A    between atoms: C_23  and  C_24
REMARK   13  A    between atoms: C_30  and  C_31
REMARK   14  A    between atoms: C_30  and  C_32
REMARK                            x       y       z     vdW  Elec       q    Type
REMARK                         _______ _______ _______ _____ _____    ______ ____
ROOT
ATOM      1  C   UNL     1       3.660   6.168  17.908  0.00  0.00    +0.000 A 
ATOM      2  N   UNL     1       3.281   7.467  17.826  0.00  0.00    +0.000 NA
ATOM      3  C   UNL     1       2.436   8.008  18.737  0.00  0.00    +0.000 A 
ATOM      4  C   UNL     1       1.925   7.282  19.806  0.00  0.00    +0.000 A 
ATOM      5  C   UNL     1       2.290   5.931  19.914  0.00  0.00    +0.000 A 
ATOM      6  C   UNL     1       3.197   5.372  18.978  0.00  0.00    +0.000 A 
ATOM      7  C   UNL     1       3.653   3.939  19.174  0.00  0.00    +0.000 C 
ATOM      8  O   UNL     1       3.265   3.330  20.404  0.00  0.00    +0.000 OA
ATOM      9  C   UNL     1       1.900   3.568  20.757  0.00  0.00    +0.000 C 
ATOM     10  C   UNL     1       1.658   2.745  22.027  0.00  0.00    +0.000 C 
ATOM     11  C   UNL     1       0.900   3.094  19.683  0.00  0.00    +0.000 C 
ATOM     12  C   UNL     1       1.767   5.069  21.054  0.00  0.00    +0.000 C 
ENDROOT
BRANCH   1  16
ATOM     13  N   UNL     1       6.700   4.400  15.446  0.00  0.00    +0.000 NA
ATOM     14  C   UNL     1       6.838   5.694  16.133  0.00  0.00    +0.000 C 
ATOM     15  C   UNL     1       5.534   6.498  16.279  0.00  0.00    +0.000 C 
ATOM     16  N   UNL     1       4.463   5.712  16.885  0.00  0.00    +0.000 N 
ATOM     17  C   UNL     1       4.299   4.330  16.388  0.00  0.00    +0.000 C 
ATOM     18  C   UNL     1       5.660   3.626  16.161  0.00  0.00    +0.000 C 
BRANCH  13  19
ATOM     19  C   UNL     1       6.367   4.516  14.017  0.00  0.00    +0.000 C 
BRANCH  19  20
ATOM     20  C   UNL     1       7.545   4.946  13.130  0.00  0.00    +0.000 C 
BRANCH  20  22
ATOM     21  C   UNL     1       6.598   3.184  11.899  0.00  0.00    +0.000 C 
ATOM     22  O   UNL     1       7.387   4.364  11.834  0.00  0.00    +0.000 OA
ENDBRANCH  20  22
ENDBRANCH  19  20
ENDBRANCH  13  19
ENDBRANCH   1  16
BRANCH   4  23
ATOM     23  C   UNL     1       1.051   7.885  20.769  0.00  0.00    +0.000 C 
ATOM     24  N   UNL     1       0.351   8.333  21.585  0.00  0.00    +0.000 NA
ENDBRANCH   4  23
BRANCH   3  25
ATOM     25  S   UNL     1       2.010   9.737  18.493  0.00  0.00    +0.000 S 
BRANCH  25  26
ATOM     26  C   UNL     1       0.198   9.660  18.270  0.00  0.00    +0.000 C 
BRANCH  26  27
ATOM     27  C   UNL     1      -0.425  11.028  17.974  0.00  0.00    +0.000 C 
BRANCH  27  28
ATOM     28  C   UNL     1      -1.237  11.519  19.152  0.00  0.00    +0.000 A 
ATOM     29  C   UNL     1      -2.571  11.890  18.966  0.00  0.00    +0.000 A 
ATOM     30  C   UNL     1      -3.315  12.443  20.005  0.00  0.00    +0.000 A 
ATOM     31  C   UNL     1      -2.733  12.595  21.260  0.00  0.00    +0.000 A 
ATOM     32  C   UNL     1      -1.413  12.190  21.480  0.00  0.00    +0.000 A 
ATOM     33  C   UNL     1      -0.668  11.660  20.423  0.00  0.00    +0.000 A 
BRANCH  32  34
ATOM     34  O   UNL     1      -0.969  12.374  22.762  0.00  0.00    +0.000 OA
ATOM     35  C   UNL     1      -1.265  13.627  23.361  0.00  0.00    +0.000 C 
ENDBRANCH  32  34
ENDBRANCH  27  28
ENDBRANCH  26  27
ENDBRANCH  25  26
ENDBRANCH   3  25
TORSDOF 10
ENDMDL
MODEL 7
REMARK VINA RESULT:      -7.2      1.725      2.310
REMARK  Name = 
REMARK  14 active torsions:
REMARK  status: ('A' for Active; 'I' for Inactive)
REMARK    1  A    between atoms: C_1  and  O_2
REMARK    2  A    between atoms: O_2  and  C_3
REMARK    3  A    between atoms: C_3  and  C_4
REMARK    4  A    between atoms: C_4  and  N_5
REMARK    5  A    between atoms: N_8  and  C_9
REMARK    6  A    between atoms: C_11  and  S_12
REMARK    7  A    between atoms: S_12  and  C_13
REMARK    8  A    between atoms: C_13  and  C_14
REMARK    9  A    between atoms: C_14  and  C_15
REMARK   10  A    between atoms: C_19  and  O_20
REMARK   11  A    between atoms: O_20  and  C_21
REMARK   12  A    between atoms: C_23  and  C_24
REMARK   13  A    between atoms: C_30  and  C_31
REMARK   14  A    between atoms: C_30  and  C_32
REMARK                            x       y       z     vdW  Elec       q    Type
REMARK                         _______ _______ _______ _____ _____    ______ ____
ROOT
ATOM      1  C   UNL     1       3.723   6.335  17.969  0.00  0.00    +0.000 A 
ATOM      2  N   UNL     1       3.282   7.611  17.850  0.00  0.00    +0.000 NA
ATOM      3  C   UNL     1       2.361   8.116  18.706  0.00  0.00    +0.000 A 
ATOM      4  C   UNL     1       1.829   7.373  19.755  0.00  0.00    +0.000 A 
ATOM      5  C   UNL     1       2.258   6.044  19.898  0.00  0.00    +0.000 A 
ATOM      6  C   UNL     1       3.244   5.525  19.021  0.00  0.00    +0.000 A 
ATOM      7  C   UNL     1       3.761   4.120  19.259  0.00  0.00    +0.000 C 
ATOM      8  O   UNL     1       3.338   3.502  20.473  0.00  0.00    +0.000 OA
ATOM      9  C   UNL     1       1.944   3.672  20.747  0.00  0.00    +0.000 C 
ATOM     10  C   UNL     1       1.675   2.849  22.012  0.00  0.00    +0.000 C 
ATOM     11  C   UNL     1       1.032   3.136  19.625  0.00  0.00    +0.000 C 
ATOM     12  C   UNL     1       1.717   5.166  21.019  0.00  0.00    +0.000 C 
ENDROOT
BRANCH   1  16
ATOM     13  N   UNL     1       6.893   4.560  15.681  0.00  0.00    +0.000 NA
ATOM     14  C   UNL     1       7.044   5.766  16.510  0.00  0.00    +0.000 C 
ATOM     15  C   UNL     1       5.794   6.660  16.596  0.00  0.00    +0.000 C 
ATOM     16  N   UNL     1       4.605   5.912  16.997  0.00  0.00    +0.000 N 
ATOM     17  C   UNL     1       4.400   4.603  16.344  0.00  0.00    +0.000 C 
ATOM     18  C   UNL     1       5.723   3.811  16.195  0.00  0.00    +0.000 C 
BRANCH  13  19
ATOM     19  C   UNL     1       6.739   4.839  14.245  0.00  0.00    +0.000 C 
BRANCH  19  20
ATOM     20  C   UNL     1       5.876   3.815  13.495  0.00  0.00    +0.000 C 
BRANCH  20  22
ATOM     21  C   UNL     1       5.799   2.460  11.578  0.00  0.00    +0.000 C 
ATOM     22  O   UNL     1       6.579   3.379  12.329  0.00  0.00    +0.000 OA
ENDBRANCH  20  22
ENDBRANCH  19  20
ENDBRANCH  13  19
ENDBRANCH   1  16
BRANCH   4  23
ATOM     23  C   UNL     1       0.873   7.939  20.661  0.00  0.00    +0.000 C 
ATOM     24  N   UNL     1       0.074   8.424  21.354  0.00  0.00    +0.000 NA
ENDBRANCH   4  23
BRANCH   3  25
ATOM     25  S   UNL     1       1.860   9.817  18.419  0.00  0.00    +0.000 S 
BRANCH  25  26
ATOM     26  C   UNL     1       0.056   9.653  18.180  0.00  0.00    +0.000 C 
BRANCH  26  27
ATOM     27  C   UNL     1      -0.594  10.936  17.653  0.00  0.00    +0.000 C 
BRANCH  27  28
ATOM     28  C   UNL     1      -0.813  11.930  18.771  0.00  0.00    +0.000 A 
ATOM     29  C   UNL     1      -0.424  13.261  18.600  0.00  0.00    +0.000 A 
ATOM     30  C   UNL     1      -0.517  14.177  19.645  0.00  0.00    +0.000 A 
ATOM     31  C   UNL     1      -1.039  13.771  20.869  0.00  0.00    +0.000 A 
ATOM     32  C   UNL     1      -1.475  12.455  21.049  0.00  0.00    +0.000 A 
ATOM     33  C   UNL     1      -1.353  11.537  20.001  0.00  0.00    +0.000 A 
BRANCH  32  34
ATOM     34  O   UNL     1      -1.987  12.191  22.291  0.00  0.00    +0.000 OA
ATOM     35  C   UNL     1      -1.292  11.228  23.071  0.00  0.00    +0.000 C 
ENDBRANCH  32  34
ENDBRANCH  27  28
ENDBRANCH  26  27
ENDBRANCH  25  26
ENDBRANCH   3  25
TORSDOF 10
ENDMDL
MODEL 8
REMARK VINA RESULT:      -7.2      0.782      1.248
REMARK  Name = 
REMARK  14 active torsions:
REMARK  status: ('A' for Active; 'I' for Inactive)
REMARK    1  A    between atoms: C_1  and  O_2
REMARK    2  A    between atoms: O_2  and  C_3
REMARK    3  A    between atoms: C_3  and  C_4
REMARK    4  A    between atoms: C_4  and  N_5
REMARK    5  A    between atoms: N_8  and  C_9
REMARK    6  A    between atoms: C_11  and  S_12
REMARK    7  A    between atoms: S_12  and  C_13
REMARK    8  A    between atoms: C_13  and  C_14
REMARK    9  A    between atoms: C_14  and  C_15
REMARK   10  A    between atoms: C_19  and  O_20
REMARK   11  A    between atoms: O_20  and  C_21
REMARK   12  A    between atoms: C_23  and  C_24
REMARK   13  A    between atoms: C_30  and  C_31
REMARK   14  A    between atoms: C_30  and  C_32
REMARK                            x       y       z     vdW  Elec       q    Type
REMARK                         _______ _______ _______ _____ _____    ______ ____
ROOT
ATOM      1  C   UNL     1       3.673   6.201  17.945  0.00  0.00    +0.000 A 
ATOM      2  N   UNL     1       3.233   7.482  17.875  0.00  0.00    +0.000 NA
ATOM      3  C   UNL     1       2.355   7.969  18.784  0.00  0.00    +0.000 A 
ATOM      4  C   UNL     1       1.867   7.205  19.838  0.00  0.00    +0.000 A 
ATOM      5  C   UNL     1       2.295   5.872  19.931  0.00  0.00    +0.000 A 
ATOM      6  C   UNL     1       3.237   5.369  18.998  0.00  0.00    +0.000 A 
ATOM      7  C   UNL     1       3.758   3.957  19.180  0.00  0.00    +0.000 C 
ATOM      8  O   UNL     1       3.387   3.313  20.397  0.00  0.00    +0.000 OA
ATOM      9  C   UNL     1       2.009   3.482  20.739  0.00  0.00    +0.000 C 
ATOM     10  C   UNL     1       1.793   2.631  21.995  0.00  0.00    +0.000 C 
ATOM     11  C   UNL     1       1.044   2.975  19.648  0.00  0.00    +0.000 C 
ATOM     12  C   UNL     1       1.801   4.970  21.055  0.00  0.00    +0.000 C 
ENDROOT
BRANCH   1  16
ATOM     13  N   UNL     1       6.726   4.467  15.474  0.00  0.00    +0.000 NA
ATOM     14  C   UNL     1       6.920   5.653  16.322  0.00  0.00    +0.000 C 
ATOM     15  C   UNL     1       5.680   6.549  16.487  0.00  0.00    +0.000 C 
ATOM     16  N   UNL     1       4.507   5.797  16.924  0.00  0.00    +0.000 N 
ATOM     17  C   UNL     1       4.266   4.504  16.251  0.00  0.00    +0.000 C 
ATOM     18  C   UNL     1       5.577   3.711  16.023  0.00  0.00    +0.000 C 
BRANCH  13  19
ATOM     19  C   UNL     1       6.508   4.780  14.053  0.00  0.00    +0.000 C 
BRANCH  19  20
ATOM     20  C   UNL     1       6.607   3.566  13.119  0.00  0.00    +0.000 C 
BRANCH  20  22
ATOM     21  C   UNL     1       4.696   3.127  11.827  0.00  0.00    +0.000 C 
ATOM     22  O   UNL     1       5.913   3.855  11.904  0.00  0.00    +0.000 OA
ENDBRANCH  20  22
ENDBRANCH  19  20
ENDBRANCH  13  19
ENDBRANCH   1  16
BRANCH   4  23
ATOM     23  C   UNL     1       0.956   7.754  20.799  0.00  0.00    +0.000 C 
ATOM     24  N   UNL     1       0.177   8.197  21.542  0.00  0.00    +0.000 NA
ENDBRANCH   4  23
BRANCH   3  25
ATOM     25  S   UNL     1       1.849   9.679  18.558  0.00  0.00    +0.000 S 
BRANCH  25  26
ATOM     26  C   UNL     1       0.027   9.549  18.583  0.00  0.00    +0.000 C 
BRANCH  26  27
ATOM     27  C   UNL     1      -0.647  10.426  17.523  0.00  0.00    +0.000 C 
BRANCH  27  28
ATOM     28  C   UNL     1      -1.908  11.060  18.067  0.00  0.00    +0.000 A 
ATOM     29  C   UNL     1      -1.844  11.859  19.211  0.00  0.00    +0.000 A 
ATOM     30  C   UNL     1      -2.999  12.372  19.796  0.00  0.00    +0.000 A 
ATOM     31  C   UNL     1      -4.236  12.115  19.212  0.00  0.00    +0.000 A 
ATOM     32  C   UNL     1      -4.320  11.353  18.043  0.00  0.00    +0.000 A 
ATOM     33  C   UNL     1      -3.156  10.822  17.479  0.00  0.00    +0.000 A 
BRANCH  32  34
ATOM     34  O   UNL     1      -5.591  11.192  17.559  0.00  0.00    +0.000 OA
ATOM     35  C   UNL     1      -6.402  12.357  17.512  0.00  0.00    +0.000 C 
ENDBRANCH  32  34
ENDBRANCH  27  28
ENDBRANCH  26  27
ENDBRANCH  25  26
ENDBRANCH   3  25
TORSDOF 10
ENDMDL
MODEL 9
REMARK VINA RESULT:      -7.1      2.114      2.898
REMARK  Name = 
REMARK  14 active torsions:
REMARK  status: ('A' for Active; 'I' for Inactive)
REMARK    1  A    between atoms: C_1  and  O_2
REMARK    2  A    between atoms: O_2  and  C_3
REMARK    3  A    between atoms: C_3  and  C_4
REMARK    4  A    between atoms: C_4  and  N_5
REMARK    5  A    between atoms: N_8  and  C_9
REMARK    6  A    between atoms: C_11  and  S_12
REMARK    7  A    between atoms: S_12  and  C_13
REMARK    8  A    between atoms: C_13  and  C_14
REMARK    9  A    between atoms: C_14  and  C_15
REMARK   10  A    between atoms: C_19  and  O_20
REMARK   11  A    between atoms: O_20  and  C_21
REMARK   12  A    between atoms: C_23  and  C_24
REMARK   13  A    between atoms: C_30  and  C_31
REMARK   14  A    between atoms: C_30  and  C_32
REMARK                            x       y       z     vdW  Elec       q    Type
REMARK                         _______ _______ _______ _____ _____    ______ ____
ROOT
ATOM      1  C   UNL     1       3.682   6.116  17.907  0.00  0.00    +0.000 A 
ATOM      2  N   UNL     1       3.310   7.418  17.843  0.00  0.00    +0.000 NA
ATOM      3  C   UNL     1       2.474   7.953  18.766  0.00  0.00    +0.000 A 
ATOM      4  C   UNL     1       1.965   7.216  19.830  0.00  0.00    +0.000 A 
ATOM      5  C   UNL     1       2.324   5.862  19.918  0.00  0.00    +0.000 A 
ATOM      6  C   UNL     1       3.221   5.309  18.970  0.00  0.00    +0.000 A 
ATOM      7  C   UNL     1       3.670   3.872  19.145  0.00  0.00    +0.000 C 
ATOM      8  O   UNL     1       3.287   3.249  20.369  0.00  0.00    +0.000 OA
ATOM      9  C   UNL     1       1.925   3.491  20.735  0.00  0.00    +0.000 C 
ATOM     10  C   UNL     1       1.687   2.654  21.996  0.00  0.00    +0.000 C 
ATOM     11  C   UNL     1       0.916   3.036  19.661  0.00  0.00    +0.000 C 
ATOM     12  C   UNL     1       1.803   4.989  21.051  0.00  0.00    +0.000 C 
ENDROOT
BRANCH   1  16
ATOM     13  N   UNL     1       6.694   4.359  15.402  0.00  0.00    +0.000 NA
ATOM     14  C   UNL     1       6.847   5.641  16.107  0.00  0.00    +0.000 C 
ATOM     15  C   UNL     1       5.550   6.454  16.273  0.00  0.00    +0.000 C 
ATOM     16  N   UNL     1       4.476   5.668  16.873  0.00  0.00    +0.000 N 
ATOM     17  C   UNL     1       4.297   4.295  16.356  0.00  0.00    +0.000 C 
ATOM     18  C   UNL     1       5.651   3.583  16.112  0.00  0.00    +0.000 C 
BRANCH  13  19
ATOM     19  C   UNL     1       6.354   4.499  13.978  0.00  0.00    +0.000 C 
BRANCH  19  20
ATOM     20  C   UNL     1       7.549   4.845  13.078  0.00  0.00    +0.000 C 
BRANCH  20  22
ATOM     21  C   UNL     1       6.404   3.186  11.874  0.00  0.00    +0.000 C 
ATOM     22  O   UNL     1       7.363   4.231  11.801  0.00  0.00    +0.000 OA
ENDBRANCH  20  22
ENDBRANCH  19  20
ENDBRANCH  13  19
ENDBRANCH   1  16
BRANCH   4  23
ATOM     23  C   UNL     1       1.102   7.813  20.806  0.00  0.00    +0.000 C 
ATOM     24  N   UNL     1       0.368   8.314  21.558  0.00  0.00    +0.000 NA
ENDBRANCH   4  23
BRANCH   3  25
ATOM     25  S   UNL     1       2.056   9.687  18.547  0.00  0.00    +0.000 S 
BRANCH  25  26
ATOM     26  C   UNL     1       0.272   9.607  18.158  0.00  0.00    +0.000 C 
BRANCH  26  27
ATOM     27  C   UNL     1      -0.393  10.987  18.129  0.00  0.00    +0.000 C 
BRANCH  27  28
ATOM     28  C   UNL     1      -0.321  11.651  19.486  0.00  0.00    +0.000 A 
ATOM     29  C   UNL     1      -1.089  11.152  20.542  0.00  0.00    +0.000 A 
ATOM     30  C   UNL     1      -1.125  11.802  21.773  0.00  0.00    +0.000 A 
ATOM     31  C   UNL     1      -0.357  12.945  21.969  0.00  0.00    +0.000 A 
ATOM     32  C   UNL     1       0.452  13.437  20.940  0.00  0.00    +0.000 A 
ATOM     33  C   UNL     1       0.461  12.792  19.700  0.00  0.00    +0.000 A 
BRANCH  32  34
ATOM     34  O   UNL     1       1.173  14.554  21.269  0.00  0.00    +0.000 OA
ATOM     35  C   UNL     1       0.663  15.347  22.330  0.00  0.00    +0.000 C 
ENDBRANCH  32  34
ENDBRANCH  27  28
ENDBRANCH  26  27
ENDBRANCH  25  26
ENDBRANCH   3  25
TORSDOF 10
ENDMDL
