MODEL 1
REMARK VINA RESULT:      -7.6      0.000      0.000
REMARK  Name = 
REMARK  11 active torsions:
REMARK  status: ('A' for Active; 'I' for Inactive)
REMARK    1  A    between atoms: C_2  and  C_3
REMARK    2  A    between atoms: C_4  and  C_5
REMARK    3  A    between atoms: C_8  and  C_9
REMARK    4  A    between atoms: C_9  and  N_10
REMARK    5  A    between atoms: N_10  and  C_11
REMARK    6  A    between atoms: N_10  and  C_14
REMARK    7  A    between atoms: C_11  and  C_12
REMARK    8  A    between atoms: C_12  and  O_13
REMARK    9  A    between atoms: C_14  and  C_15
REMARK   10  A    between atoms: C_15  and  C_16
REMARK   11  A    between atoms: N_27  and  O_28
REMARK                            x       y       z     vdW  Elec       q    Type
REMARK                         _______ _______ _______ _____ _____    ______ ____
ROOT
ATOM      1  N   UNL     1       4.104   4.247  18.403  0.00  0.00    +0.000 NA
ENDROOT
BRANCH   1   2
ATOM      2  C   UNL     1       5.546   4.068  18.084  0.00  0.00    +0.000 C 
BRANCH   2   6
ATOM      3  C   UNL     1       7.630   7.860  17.831  0.00  0.00    +0.000 A 
ATOM      4  C   UNL     1       6.535   7.591  16.995  0.00  0.00    +0.000 A 
ATOM      5  C   UNL     1       5.898   6.346  17.017  0.00  0.00    +0.000 A 
ATOM      6  C   UNL     1       6.357   5.330  17.862  0.00  0.00    +0.000 A 
ATOM      7  C   UNL     1       7.503   5.571  18.636  0.00  0.00    +0.000 A 
ATOM      8  C   UNL     1       8.136   6.819  18.618  0.00  0.00    +0.000 A 
BRANCH   3  10
ATOM      9  C   UNL     1       8.991   9.585  18.952  0.00  0.00    +0.000 C 
ATOM     10  C   UNL     1       8.250   9.196  17.903  0.00  0.00    +0.000 C 
BRANCH   9  12
ATOM     11  O   UNL     1      10.365  11.304  19.900  0.00  0.00    +0.000 OA
ATOM     12  C   UNL     1       9.632  10.924  18.998  0.00  0.00    +0.000 C 
ATOM     13  N   UNL     1       9.298  11.698  17.916  0.00  0.00    +0.000 N 
ATOM     14  H   UNL     1       8.644  11.438  17.187  0.00  0.00    +0.000 HD
BRANCH  13  15
ATOM     15  O   UNL     1       9.780  13.024  17.889  0.00  0.00    +0.000 OA
ATOM     16  H   UNL     1       9.075  13.499  17.399  0.00  0.00    +0.000 HD
ENDBRANCH  13  15
ENDBRANCH   9  12
ENDBRANCH   3  10
ENDBRANCH   2   6
ENDBRANCH   1   2
BRANCH   1  17
ATOM     17  C   UNL     1       3.331   3.185  17.705  0.00  0.00    +0.000 C 
BRANCH  17  18
ATOM     18  C   UNL     1       3.429   1.766  18.291  0.00  0.00    +0.000 C 
BRANCH  18  19
ATOM     19  O   UNL     1       2.141   1.311  18.711  0.00  0.00    +0.000 OA
ATOM     20  H   UNL     1       1.838   1.911  19.415  0.00  0.00    +0.000 HD
ENDBRANCH  18  19
ENDBRANCH  17  18
ENDBRANCH   1  17
BRANCH   1  21
ATOM     21  C   UNL     1       3.919   4.173  19.886  0.00  0.00    +0.000 C 
BRANCH  21  22
ATOM     22  C   UNL     1       2.505   4.597  20.361  0.00  0.00    +0.000 C 
BRANCH  22  23
ATOM     23  C   UNL     1       2.116   5.994  19.984  0.00  0.00    +0.000 A 
ATOM     24  C   UNL     1       1.453   6.953  20.725  0.00  0.00    +0.000 A 
ATOM     25  C   UNL     1       1.468   8.173  19.999  0.00  0.00    +0.000 A 
ATOM     26  C   UNL     1       1.010   9.477  20.270  0.00  0.00    +0.000 A 
ATOM     27  C   UNL     1       1.174  10.476  19.306  0.00  0.00    +0.000 A 
ATOM     28  C   UNL     1       1.785  10.189  18.087  0.00  0.00    +0.000 A 
ATOM     29  C   UNL     1       2.273   8.906  17.806  0.00  0.00    +0.000 A 
ATOM     30  C   UNL     1       2.104   7.917  18.785  0.00  0.00    +0.000 A 
ATOM     31  N   UNL     1       2.502   6.596  18.807  0.00  0.00    +0.000 N 
ATOM     32  H   UNL     1       3.050   6.159  18.079  0.00  0.00    +0.000 HD
ENDBRANCH  22  23
ENDBRANCH  21  22
ENDBRANCH   1  21
TORSDOF 11
ENDMDL
MODEL 2
REMARK VINA RESULT:      -7.2      4.461      7.730
REMARK  Name = 
REMARK  11 active torsions:
REMARK  status: ('A' for Active; 'I' for Inactive)
REMARK    1  A    between atoms: C_2  and  C_3
REMARK    2  A    between atoms: C_4  and  C_5
REMARK    3  A    between atoms: C_8  and  C_9
REMARK    4  A    between atoms: C_9  and  N_10
REMARK    5  A    between atoms: N_10  and  C_11
REMARK    6  A    between atoms: N_10  and  C_14
REMARK    7  A    between atoms: C_11  and  C_12
REMARK    8  A    between atoms: C_12  and  O_13
REMARK    9  A    between atoms: C_14  and  C_15
REMARK   10  A    between atoms: C_15  and  C_16
REMARK   11  A    between atoms: N_27  and  O_28
REMARK                            x       y       z     vdW  Elec       q    Type
REMARK                         _______ _______ _______ _____ _____    ______ ____
ROOT
ATOM      1  N   UNL     1       4.209   4.979  19.159  0.00  0.00    +0.000 NA
ENDROOT
BRANCH   1   2
ATOM      2  C   UNL     1       2.830   5.381  18.770  0.00  0.00    +0.000 C 
BRANCH   2   6
ATOM      3  C   UNL     1       1.110   9.215  19.831  0.00  0.00    +0.000 A 
ATOM      4  C   UNL     1       1.674   9.014  18.562  0.00  0.00    +0.000 A 
ATOM      5  C   UNL     1       2.295   7.805  18.231  0.00  0.00    +0.000 A 
ATOM      6  C   UNL     1       2.387   6.774  19.173  0.00  0.00    +0.000 A 
ATOM      7  C   UNL     1       1.898   7.006  20.468  0.00  0.00    +0.000 A 
ATOM      8  C   UNL     1       1.271   8.214  20.796  0.00  0.00    +0.000 A 
BRANCH   3  10
ATOM      9  C   UNL     1      -0.843  10.710  19.634  0.00  0.00    +0.000 C 
ATOM     10  C   UNL     1       0.358  10.438  20.168  0.00  0.00    +0.000 C 
BRANCH   9  12
ATOM     11  O   UNL     1      -1.295  12.677  20.923  0.00  0.00    +0.000 OA
ATOM     12  C   UNL     1      -1.601  11.932  20.004  0.00  0.00    +0.000 C 
ATOM     13  N   UNL     1      -2.698  12.125  19.204  0.00  0.00    +0.000 N 
ATOM     14  H   UNL     1      -3.014  11.493  18.478  0.00  0.00    +0.000 HD
BRANCH  13  15
ATOM     15  O   UNL     1      -3.546  13.210  19.511  0.00  0.00    +0.000 OA
ATOM     16  H   UNL     1      -3.603  13.168  20.490  0.00  0.00    +0.000 HD
ENDBRANCH  13  15
ENDBRANCH   9  12
ENDBRANCH   3  10
ENDBRANCH   2   6
ENDBRANCH   1   2
BRANCH   1  17
ATOM     17  C   UNL     1       4.315   3.498  19.057  0.00  0.00    +0.000 C 
BRANCH  17  18
ATOM     18  C   UNL     1       3.062   2.692  19.440  0.00  0.00    +0.000 C 
BRANCH  18  19
ATOM     19  O   UNL     1       2.997   1.482  18.682  0.00  0.00    +0.000 OA
ATOM     20  H   UNL     1       2.437   1.657  17.906  0.00  0.00    +0.000 HD
ENDBRANCH  18  19
ENDBRANCH  17  18
ENDBRANCH   1  17
BRANCH   1  21
ATOM     21  C   UNL     1       5.189   5.661  18.258  0.00  0.00    +0.000 C 
BRANCH  21  22
ATOM     22  C   UNL     1       6.412   4.782  17.885  0.00  0.00    +0.000 C 
BRANCH  22  23
ATOM     23  C   UNL     1       6.574   4.536  16.415  0.00  0.00    +0.000 A 
ATOM     24  C   UNL     1       5.878   3.677  15.586  0.00  0.00    +0.000 A 
ATOM     25  C   UNL     1       6.279   3.923  14.246  0.00  0.00    +0.000 A 
ATOM     26  C   UNL     1       5.881   3.407  12.997  0.00  0.00    +0.000 A 
ATOM     27  C   UNL     1       6.506   3.868  11.835  0.00  0.00    +0.000 A 
ATOM     28  C   UNL     1       7.512   4.829  11.906  0.00  0.00    +0.000 A 
ATOM     29  C   UNL     1       7.905   5.376  13.134  0.00  0.00    +0.000 A 
ATOM     30  C   UNL     1       7.266   4.906  14.290  0.00  0.00    +0.000 A 
ATOM     31  N   UNL     1       7.414   5.273  15.612  0.00  0.00    +0.000 N 
ATOM     32  H   UNL     1       8.018   6.020  15.927  0.00  0.00    +0.000 HD
ENDBRANCH  22  23
ENDBRANCH  21  22
ENDBRANCH   1  21
TORSDOF 11
ENDMDL
MODEL 3
REMARK VINA RESULT:      -7.2      4.356      7.618
REMARK  Name = 
REMARK  11 active torsions:
REMARK  status: ('A' for Active; 'I' for Inactive)
REMARK    1  A    between atoms: C_2  and  C_3
REMARK    2  A    between atoms: C_4  and  C_5
REMARK    3  A    between atoms: C_8  and  C_9
REMARK    4  A    between atoms: C_9  and  N_10
REMARK    5  A    between atoms: N_10  and  C_11
REMARK    6  A    between atoms: N_10  and  C_14
REMARK    7  A    between atoms: C_11  and  C_12
REMARK    8  A    between atoms: C_12  and  O_13
REMARK    9  A    between atoms: C_14  and  C_15
REMARK   10  A    between atoms: C_15  and  C_16
REMARK   11  A    between atoms: N_27  and  O_28
REMARK                            x       y       z     vdW  Elec       q    Type
REMARK                         _______ _______ _______ _____ _____    ______ ____
ROOT
ATOM      1  N   UNL     1       3.880   4.992  19.049  0.00  0.00    +0.000 NA
ENDROOT
BRANCH   1   2
ATOM      2  C   UNL     1       3.563   6.211  18.258  0.00  0.00    +0.000 C 
BRANCH   2   6
ATOM      3  C   UNL     1       1.034   9.219  20.088  0.00  0.00    +0.000 A 
ATOM      4  C   UNL     1       1.369   8.048  20.786  0.00  0.00    +0.000 A 
ATOM      5  C   UNL     1       2.126   7.038  20.182  0.00  0.00    +0.000 A 
ATOM      6  C   UNL     1       2.547   7.167  18.854  0.00  0.00    +0.000 A 
ATOM      7  C   UNL     1       2.142   8.298  18.130  0.00  0.00    +0.000 A 
ATOM      8  C   UNL     1       1.390   9.311  18.737  0.00  0.00    +0.000 A 
BRANCH   3  10
ATOM      9  C   UNL     1      -0.295  10.210  21.914  0.00  0.00    +0.000 C 
ATOM     10  C   UNL     1       0.331  10.341  20.735  0.00  0.00    +0.000 C 
BRANCH   9  12
ATOM     11  O   UNL     1      -1.940  11.250  23.310  0.00  0.00    +0.000 OA
ATOM     12  C   UNL     1      -0.976  11.357  22.567  0.00  0.00    +0.000 C 
ATOM     13  N   UNL     1      -0.407  12.559  22.230  0.00  0.00    +0.000 N 
ATOM     14  H   UNL     1       0.348  12.686  21.568  0.00  0.00    +0.000 HD
BRANCH  13  15
ATOM     15  O   UNL     1      -1.020  13.731  22.723  0.00  0.00    +0.000 OA
ATOM     16  H   UNL     1      -1.757  13.376  23.265  0.00  0.00    +0.000 HD
ENDBRANCH  13  15
ENDBRANCH   9  12
ENDBRANCH   3  10
ENDBRANCH   2   6
ENDBRANCH   1   2
BRANCH   1  17
ATOM     17  C   UNL     1       2.870   3.947  18.731  0.00  0.00    +0.000 C 
BRANCH  17  18
ATOM     18  C   UNL     1       2.122   3.329  19.925  0.00  0.00    +0.000 C 
BRANCH  18  19
ATOM     19  O   UNL     1       3.016   2.548  20.721  0.00  0.00    +0.000 OA
ATOM     20  H   UNL     1       3.319   1.805  20.171  0.00  0.00    +0.000 HD
ENDBRANCH  18  19
ENDBRANCH  17  18
ENDBRANCH   1  17
BRANCH   1  21
ATOM     21  C   UNL     1       5.264   4.536  18.711  0.00  0.00    +0.000 C 
BRANCH  21  22
ATOM     22  C   UNL     1       6.042   5.519  17.800  0.00  0.00    +0.000 C 
BRANCH  22  23
ATOM     23  C   UNL     1       6.266   5.025  16.402  0.00  0.00    +0.000 A 
ATOM     24  C   UNL     1       5.563   4.080  15.681  0.00  0.00    +0.000 A 
ATOM     25  C   UNL     1       6.048   4.080  14.346  0.00  0.00    +0.000 A 
ATOM     26  C   UNL     1       5.685   3.387  13.174  0.00  0.00    +0.000 A 
ATOM     27  C   UNL     1       6.399   3.616  11.994  0.00  0.00    +0.000 A 
ATOM     28  C   UNL     1       7.458   4.521  11.972  0.00  0.00    +0.000 A 
ATOM     29  C   UNL     1       7.820   5.240  13.118  0.00  0.00    +0.000 A 
ATOM     30  C   UNL     1       7.092   5.002  14.292  0.00  0.00    +0.000 A 
ATOM     31  N   UNL     1       7.193   5.574  15.545  0.00  0.00    +0.000 N 
ATOM     32  H   UNL     1       7.825   6.328  15.772  0.00  0.00    +0.000 HD
ENDBRANCH  22  23
ENDBRANCH  21  22
ENDBRANCH   1  21
TORSDOF 11
ENDMDL
MODEL 4
REMARK VINA RESULT:      -7.2      4.317      7.568
REMARK  Name = 
REMARK  11 active torsions:
REMARK  status: ('A' for Active; 'I' for Inactive)
REMARK    1  A    between atoms: C_2  and  C_3
REMARK    2  A    between atoms: C_4  and  C_5
REMARK    3  A    between atoms: C_8  and  C_9
REMARK    4  A    between atoms: C_9  and  N_10
REMARK    5  A    between atoms: N_10  and  C_11
REMARK    6  A    between atoms: N_10  and  C_14
REMARK    7  A    between atoms: C_11  and  C_12
REMARK    8  A    between atoms: C_12  and  O_13
REMARK    9  A    between atoms: C_14  and  C_15
REMARK   10  A    between atoms: C_15  and  C_16
REMARK   11  A    between atoms: N_27  and  O_28
REMARK                            x       y       z     vdW  Elec       q    Type
REMARK                         _______ _______ _______ _____ _____    ______ ____
ROOT
ATOM      1  N   UNL     1       3.752   5.025  18.969  0.00  0.00    +0.000 NA
ENDROOT
BRANCH   1   2
ATOM      2  C   UNL     1       3.773   6.294  18.194  0.00  0.00    +0.000 C 
BRANCH   2   6
ATOM      3  C   UNL     1       1.057   9.507  19.236  0.00  0.00    +0.000 A 
ATOM      4  C   UNL     1       1.339   8.485  20.156  0.00  0.00    +0.000 A 
ATOM      5  C   UNL     1       2.158   7.406  19.808  0.00  0.00    +0.000 A 
ATOM      6  C   UNL     1       2.697   7.311  18.520  0.00  0.00    +0.000 A 
ATOM      7  C   UNL     1       2.347   8.288  17.575  0.00  0.00    +0.000 A 
ATOM      8  C   UNL     1       1.532   9.371  17.926  0.00  0.00    +0.000 A 
BRANCH   3  10
ATOM      9  C   UNL     1      -0.919  10.976  19.085  0.00  0.00    +0.000 C 
ATOM     10  C   UNL     1       0.286  10.706  19.610  0.00  0.00    +0.000 C 
BRANCH   9  12
ATOM     11  O   UNL     1      -2.895  12.165  19.735  0.00  0.00    +0.000 OA
ATOM     12  C   UNL     1      -1.696  12.174  19.492  0.00  0.00    +0.000 C 
ATOM     13  N   UNL     1      -0.919  13.301  19.555  0.00  0.00    +0.000 N 
ATOM     14  H   UNL     1       0.060  13.355  19.297  0.00  0.00    +0.000 HD
BRANCH  13  15
ATOM     15  O   UNL     1      -1.562  14.522  19.851  0.00  0.00    +0.000 OA
ATOM     16  H   UNL     1      -0.815  15.098  20.122  0.00  0.00    +0.000 HD
ENDBRANCH  13  15
ENDBRANCH   9  12
ENDBRANCH   3  10
ENDBRANCH   2   6
ENDBRANCH   1   2
BRANCH   1  17
ATOM     17  C   UNL     1       2.582   4.220  18.526  0.00  0.00    +0.000 C 
BRANCH  17  18
ATOM     18  C   UNL     1       2.291   2.936  19.323  0.00  0.00    +0.000 C 
BRANCH  18  19
ATOM     19  O   UNL     1       2.390   1.790  18.475  0.00  0.00    +0.000 OA
ATOM     20  H   UNL     1       1.710   1.881  17.786  0.00  0.00    +0.000 HD
ENDBRANCH  18  19
ENDBRANCH  17  18
ENDBRANCH   1  17
BRANCH   1  21
ATOM     21  C   UNL     1       5.037   4.292  18.744  0.00  0.00    +0.000 C 
BRANCH  21  22
ATOM     22  C   UNL     1       6.116   5.132  18.013  0.00  0.00    +0.000 C 
BRANCH  22  23
ATOM     23  C   UNL     1       6.325   4.759  16.576  0.00  0.00    +0.000 A 
ATOM     24  C   UNL     1       5.637   3.851  15.795  0.00  0.00    +0.000 A 
ATOM     25  C   UNL     1       6.092   3.974  14.455  0.00  0.00    +0.000 A 
ATOM     26  C   UNL     1       5.726   3.365  13.239  0.00  0.00    +0.000 A 
ATOM     27  C   UNL     1       6.404   3.711  12.067  0.00  0.00    +0.000 A 
ATOM     28  C   UNL     1       7.433   4.651  12.097  0.00  0.00    +0.000 A 
ATOM     29  C   UNL     1       7.796   5.289  13.289  0.00  0.00    +0.000 A 
ATOM     30  C   UNL     1       7.103   4.933  14.455  0.00  0.00    +0.000 A 
ATOM     31  N   UNL     1       7.213   5.406  15.747  0.00  0.00    +0.000 N 
ATOM     32  H   UNL     1       7.825   6.162  16.022  0.00  0.00    +0.000 HD
ENDBRANCH  22  23
ENDBRANCH  21  22
ENDBRANCH   1  21
TORSDOF 11
ENDMDL
MODEL 5
REMARK VINA RESULT:      -7.2      1.286      1.865
REMARK  Name = 
REMARK  11 active torsions:
REMARK  status: ('A' for Active; 'I' for Inactive)
REMARK    1  A    between atoms: C_2  and  C_3
REMARK    2  A    between atoms: C_4  and  C_5
REMARK    3  A    between atoms: C_8  and  C_9
REMARK    4  A    between atoms: C_9  and  N_10
REMARK    5  A    between atoms: N_10  and  C_11
REMARK    6  A    between atoms: N_10  and  C_14
REMARK    7  A    between atoms: C_11  and  C_12
REMARK    8  A    between atoms: C_12  and  O_13
REMARK    9  A    between atoms: C_14  and  C_15
REMARK   10  A    between atoms: C_15  and  C_16
REMARK   11  A    between atoms: N_27  and  O_28
REMARK                            x       y       z     vdW  Elec       q    Type
REMARK                         _______ _______ _______ _____ _____    ______ ____
ROOT
ATOM      1  N   UNL     1       3.624   4.160  17.652  0.00  0.00    +0.000 NA
ENDROOT
BRANCH   1   2
ATOM      2  C   UNL     1       4.869   4.189  18.465  0.00  0.00    +0.000 C 
BRANCH   2   6
ATOM      3  C   UNL     1       7.564   7.526  17.844  0.00  0.00    +0.000 A 
ATOM      4  C   UNL     1       6.440   7.354  17.020  0.00  0.00    +0.000 A 
ATOM      5  C   UNL     1       5.602   6.243  17.164  0.00  0.00    +0.000 A 
ATOM      6  C   UNL     1       5.882   5.264  18.124  0.00  0.00    +0.000 A 
ATOM      7  C   UNL     1       7.050   5.393  18.891  0.00  0.00    +0.000 A 
ATOM      8  C   UNL     1       7.885   6.508  18.750  0.00  0.00    +0.000 A 
BRANCH   3  10
ATOM      9  C   UNL     1       8.715   9.447  18.879  0.00  0.00    +0.000 C 
ATOM     10  C   UNL     1       8.400   8.738  17.784  0.00  0.00    +0.000 C 
BRANCH   9  12
ATOM     11  O   UNL     1      10.034  11.108  17.766  0.00  0.00    +0.000 OA
ATOM     12  C   UNL     1       9.581  10.650  18.806  0.00  0.00    +0.000 C 
ATOM     13  N   UNL     1       9.830  11.188  20.043  0.00  0.00    +0.000 N 
ATOM     14  H   UNL     1       9.525  10.796  20.925  0.00  0.00    +0.000 HD
BRANCH  13  15
ATOM     15  O   UNL     1      10.711  12.288  20.111  0.00  0.00    +0.000 OA
ATOM     16  H   UNL     1      10.194  13.004  19.681  0.00  0.00    +0.000 HD
ENDBRANCH  13  15
ENDBRANCH   9  12
ENDBRANCH   3  10
ENDBRANCH   2   6
ENDBRANCH   1   2
BRANCH   1  17
ATOM     17  C   UNL     1       2.935   2.862  17.888  0.00  0.00    +0.000 C 
BRANCH  17  18
ATOM     18  C   UNL     1       3.578   1.922  18.922  0.00  0.00    +0.000 C 
BRANCH  18  19
ATOM     19  O   UNL     1       4.226   0.830  18.265  0.00  0.00    +0.000 OA
ATOM     20  H   UNL     1       4.688   1.192  17.489  0.00  0.00    +0.000 HD
ENDBRANCH  18  19
ENDBRANCH  17  18
ENDBRANCH   1  17
BRANCH   1  21
ATOM     21  C   UNL     1       2.759   5.317  18.040  0.00  0.00    +0.000 C 
BRANCH  21  22
ATOM     22  C   UNL     1       2.740   5.600  19.565  0.00  0.00    +0.000 C 
BRANCH  22  23
ATOM     23  C   UNL     1       2.179   6.939  19.940  0.00  0.00    +0.000 A 
ATOM     24  C   UNL     1       1.976   8.058  19.156  0.00  0.00    +0.000 A 
ATOM     25  C   UNL     1       1.265   9.020  19.921  0.00  0.00    +0.000 A 
ATOM     26  C   UNL     1       0.740  10.297  19.641  0.00  0.00    +0.000 A 
ATOM     27  C   UNL     1       0.088  11.007  20.653  0.00  0.00    +0.000 A 
ATOM     28  C   UNL     1      -0.046  10.460  21.928  0.00  0.00    +0.000 A 
ATOM     29  C   UNL     1       0.444   9.182  22.222  0.00  0.00    +0.000 A 
ATOM     30  C   UNL     1       1.092   8.482  21.195  0.00  0.00    +0.000 A 
ATOM     31  N   UNL     1       1.639   7.214  21.176  0.00  0.00    +0.000 N 
ATOM     32  H   UNL     1       1.592   6.567  21.951  0.00  0.00    +0.000 HD
ENDBRANCH  22  23
ENDBRANCH  21  22
ENDBRANCH   1  21
TORSDOF 11
ENDMDL
MODEL 6
REMARK VINA RESULT:      -7.2      4.416      7.791
REMARK  Name = 
REMARK  11 active torsions:
REMARK  status: ('A' for Active; 'I' for Inactive)
REMARK    1  A    between atoms: C_2  and  C_3
REMARK    2  A    between atoms: C_4  and  C_5
REMARK    3  A    between atoms: C_8  and  C_9
REMARK    4  A    between atoms: C_9  and  N_10
REMARK    5  A    between atoms: N_10  and  C_11
REMARK    6  A    between atoms: N_10  and  C_14
REMARK    7  A    between atoms: C_11  and  C_12
REMARK    8  A    between atoms: C_12  and  O_13
REMARK    9  A    between atoms: C_14  and  C_15
REMARK   10  A    between atoms: C_15  and  C_16
REMARK   11  A    between atoms: N_27  and  O_28
REMARK                            x       y       z     vdW  Elec       q    Type
REMARK                         _______ _______ _______ _____ _____    ______ ____
ROOT
ATOM      1  N   UNL     1       4.540   5.259  19.397  0.00  0.00    +0.000 NA
ENDROOT
BRANCH   1   2
ATOM      2  C   UNL     1       3.118   5.513  19.753  0.00  0.00    +0.000 C 
BRANCH   2   6
ATOM      3  C   UNL     1       1.129   9.238  18.777  0.00  0.00    +0.000 A 
ATOM      4  C   UNL     1       1.887   8.560  17.810  0.00  0.00    +0.000 A 
ATOM      5  C   UNL     1       2.591   7.395  18.130  0.00  0.00    +0.000 A 
ATOM      6  C   UNL     1       2.572   6.892  19.436  0.00  0.00    +0.000 A 
ATOM      7  C   UNL     1       1.883   7.615  20.421  0.00  0.00    +0.000 A 
ATOM      8  C   UNL     1       1.173   8.778  20.098  0.00  0.00    +0.000 A 
BRANCH   3  10
ATOM      9  C   UNL     1      -1.030  10.305  18.241  0.00  0.00    +0.000 C 
ATOM     10  C   UNL     1       0.293  10.405  18.440  0.00  0.00    +0.000 C 
BRANCH   9  12
ATOM     11  O   UNL     1      -1.507  12.649  18.113  0.00  0.00    +0.000 OA
ATOM     12  C   UNL     1      -1.863  11.495  17.929  0.00  0.00    +0.000 C 
ATOM     13  N   UNL     1      -3.089  11.151  17.420  0.00  0.00    +0.000 N 
ATOM     14  H   UNL     1      -3.438  10.206  17.317  0.00  0.00    +0.000 HD
BRANCH  13  15
ATOM     15  O   UNL     1      -4.003  12.195  17.162  0.00  0.00    +0.000 OA
ATOM     16  H   UNL     1      -4.681  11.754  16.606  0.00  0.00    +0.000 HD
ENDBRANCH  13  15
ENDBRANCH   9  12
ENDBRANCH   3  10
ENDBRANCH   2   6
ENDBRANCH   1   2
BRANCH   1  17
ATOM     17  C   UNL     1       4.751   3.788  19.318  0.00  0.00    +0.000 C 
BRANCH  17  18
ATOM     18  C   UNL     1       3.743   2.995  18.468  0.00  0.00    +0.000 C 
BRANCH  18  19
ATOM     19  O   UNL     1       4.069   1.603  18.479  0.00  0.00    +0.000 OA
ATOM     20  H   UNL     1       3.951   1.286  19.391  0.00  0.00    +0.000 HD
ENDBRANCH  18  19
ENDBRANCH  17  18
ENDBRANCH   1  17
BRANCH   1  21
ATOM     21  C   UNL     1       4.846   5.926  18.094  0.00  0.00    +0.000 C 
BRANCH  21  22
ATOM     22  C   UNL     1       6.308   5.727  17.617  0.00  0.00    +0.000 C 
BRANCH  22  23
ATOM     23  C   UNL     1       6.438   5.164  16.234  0.00  0.00    +0.000 A 
ATOM     24  C   UNL     1       5.647   4.236  15.585  0.00  0.00    +0.000 A 
ATOM     25  C   UNL     1       6.072   4.151  14.232  0.00  0.00    +0.000 A 
ATOM     26  C   UNL     1       5.615   3.435  13.108  0.00  0.00    +0.000 A 
ATOM     27  C   UNL     1       6.288   3.570  11.890  0.00  0.00    +0.000 A 
ATOM     28  C   UNL     1       7.399   4.405  11.784  0.00  0.00    +0.000 A 
ATOM     29  C   UNL     1       7.854   5.146  12.881  0.00  0.00    +0.000 A 
ATOM     30  C   UNL     1       7.166   5.002  14.094  0.00  0.00    +0.000 A 
ATOM     31  N   UNL     1       7.358   5.617  15.315  0.00  0.00    +0.000 N 
ATOM     32  H   UNL     1       8.044   6.340  15.483  0.00  0.00    +0.000 HD
ENDBRANCH  22  23
ENDBRANCH  21  22
ENDBRANCH   1  21
TORSDOF 11
ENDMDL
MODEL 7
REMARK VINA RESULT:      -7.2      1.153      1.666
REMARK  Name = 
REMARK  11 active torsions:
REMARK  status: ('A' for Active; 'I' for Inactive)
REMARK    1  A    between atoms: C_2  and  C_3
REMARK    2  A    between atoms: C_4  and  C_5
REMARK    3  A    between atoms: C_8  and  C_9
REMARK    4  A    between atoms: C_9  and  N_10
REMARK    5  A    between atoms: N_10  and  C_11
REMARK    6  A    between atoms: N_10  and  C_14
REMARK    7  A    between atoms: C_11  and  C_12
REMARK    8  A    between atoms: C_12  and  O_13
REMARK    9  A    between atoms: C_14  and  C_15
REMARK   10  A    between atoms: C_15  and  C_16
REMARK   11  A    between atoms: N_27  and  O_28
REMARK                            x       y       z     vdW  Elec       q    Type
REMARK                         _______ _______ _______ _____ _____    ______ ____
ROOT
ATOM      1  N   UNL     1       3.029   3.914  18.198  0.00  0.00    +0.000 NA
ENDROOT
BRANCH   1   2
ATOM      2  C   UNL     1       4.055   3.826  17.124  0.00  0.00    +0.000 C 
BRANCH   2   6
ATOM      3  C   UNL     1       7.207   6.722  17.805  0.00  0.00    +0.000 A 
ATOM      4  C   UNL     1       6.087   7.057  17.028  0.00  0.00    +0.000 A 
ATOM      5  C   UNL     1       5.097   6.111  16.743  0.00  0.00    +0.000 A 
ATOM      6  C   UNL     1       5.217   4.797  17.209  0.00  0.00    +0.000 A 
ATOM      7  C   UNL     1       6.376   4.440  17.914  0.00  0.00    +0.000 A 
ATOM      8  C   UNL     1       7.364   5.390  18.205  0.00  0.00    +0.000 A 
BRANCH   3  10
ATOM      9  C   UNL     1       7.949   9.042  18.191  0.00  0.00    +0.000 C 
ATOM     10  C   UNL     1       8.208   7.726  18.209  0.00  0.00    +0.000 C 
BRANCH   9  12
ATOM     11  O   UNL     1       9.545  10.001  19.699  0.00  0.00    +0.000 OA
ATOM     12  C   UNL     1       8.959  10.041  18.627  0.00  0.00    +0.000 C 
ATOM     13  N   UNL     1       9.152  11.027  17.694  0.00  0.00    +0.000 N 
ATOM     14  H   UNL     1       8.636  11.124  16.827  0.00  0.00    +0.000 HD
BRANCH  13  15
ATOM     15  O   UNL     1      10.028  12.081  18.030  0.00  0.00    +0.000 OA
ATOM     16  H   UNL     1      10.006  12.073  19.011  0.00  0.00    +0.000 HD
ENDBRANCH  13  15
ENDBRANCH   9  12
ENDBRANCH   3  10
ENDBRANCH   2   6
ENDBRANCH   1   2
BRANCH   1  17
ATOM     17  C   UNL     1       2.481   2.551  18.439  0.00  0.00    +0.000 C 
BRANCH  17  18
ATOM     18  C   UNL     1       0.953   2.440  18.571  0.00  0.00    +0.000 C 
BRANCH  18  19
ATOM     19  O   UNL     1       0.556   2.616  19.933  0.00  0.00    +0.000 OA
ATOM     20  H   UNL     1      -0.360   2.944  19.927  0.00  0.00    +0.000 HD
ENDBRANCH  18  19
ENDBRANCH  17  18
ENDBRANCH   1  17
BRANCH   1  21
ATOM     21  C   UNL     1       3.660   4.476  19.432  0.00  0.00    +0.000 C 
BRANCH  21  22
ATOM     22  C   UNL     1       2.650   5.141  20.403  0.00  0.00    +0.000 C 
BRANCH  22  23
ATOM     23  C   UNL     1       2.307   6.561  20.066  0.00  0.00    +0.000 A 
ATOM     24  C   UNL     1       2.459   7.242  18.874  0.00  0.00    +0.000 A 
ATOM     25  C   UNL     1       1.833   8.511  18.998  0.00  0.00    +0.000 A 
ATOM     26  C   UNL     1       1.621   9.587  18.113  0.00  0.00    +0.000 A 
ATOM     27  C   UNL     1       0.962  10.731  18.572  0.00  0.00    +0.000 A 
ATOM     28  C   UNL     1       0.515  10.810  19.889  0.00  0.00    +0.000 A 
ATOM     29  C   UNL     1       0.690   9.743  20.778  0.00  0.00    +0.000 A 
ATOM     30  C   UNL     1       1.350   8.601  20.302  0.00  0.00    +0.000 A 
ATOM     31  N   UNL     1       1.634   7.402  20.923  0.00  0.00    +0.000 N 
ATOM     32  H   UNL     1       1.334   7.165  21.859  0.00  0.00    +0.000 HD
ENDBRANCH  22  23
ENDBRANCH  21  22
ENDBRANCH   1  21
TORSDOF 11
ENDMDL
MODEL 8
REMARK VINA RESULT:      -7.1      3.282      6.122
REMARK  Name = 
REMARK  11 active torsions:
REMARK  status: ('A' for Active; 'I' for Inactive)
REMARK    1  A    between atoms: C_2  and  C_3
REMARK    2  A    between atoms: C_4  and  C_5
REMARK    3  A    between atoms: C_8  and  C_9
REMARK    4  A    between atoms: C_9  and  N_10
REMARK    5  A    between atoms: N_10  and  C_11
REMARK    6  A    between atoms: N_10  and  C_14
REMARK    7  A    between atoms: C_11  and  C_12
REMARK    8  A    between atoms: C_12  and  O_13
REMARK    9  A    between atoms: C_14  and  C_15
REMARK   10  A    between atoms: C_15  and  C_16
REMARK   11  A    between atoms: N_27  and  O_28
REMARK                            x       y       z     vdW  Elec       q    Type
REMARK                         _______ _______ _______ _____ _____    ______ ____
ROOT
ATOM      1  N   UNL     1       3.570   3.034  19.604  0.00  0.00    +0.000 NA
ENDROOT
BRANCH   1   2
ATOM      2  C   UNL     1       2.172   3.489  19.829  0.00  0.00    +0.000 C 
BRANCH   2   6
ATOM      3  C   UNL     1       1.847   7.775  19.272  0.00  0.00    +0.000 A 
ATOM      4  C   UNL     1       1.581   7.196  20.523  0.00  0.00    +0.000 A 
ATOM      5  C   UNL     1       1.614   5.809  20.699  0.00  0.00    +0.000 A 
ATOM      6  C   UNL     1       1.891   4.964  19.618  0.00  0.00    +0.000 A 
ATOM      7  C   UNL     1       2.074   5.538  18.350  0.00  0.00    +0.000 A 
ATOM      8  C   UNL     1       2.047   6.927  18.177  0.00  0.00    +0.000 A 
BRANCH   3  10
ATOM      9  C   UNL     1       0.876  10.042  19.312  0.00  0.00    +0.000 C 
ATOM     10  C   UNL     1       1.924   9.235  19.086  0.00  0.00    +0.000 C 
BRANCH   9  12
ATOM     11  O   UNL     1       1.697  12.234  19.825  0.00  0.00    +0.000 OA
ATOM     12  C   UNL     1       0.977  11.515  19.147  0.00  0.00    +0.000 C 
ATOM     13  N   UNL     1       0.157  11.983  18.153  0.00  0.00    +0.000 N 
ATOM     14  H   UNL     1      -0.497  11.425  17.619  0.00  0.00    +0.000 HD
BRANCH  13  15
ATOM     15  O   UNL     1       0.103  13.380  17.957  0.00  0.00    +0.000 OA
ATOM     16  H   UNL     1      -0.395  13.459  17.115  0.00  0.00    +0.000 HD
ENDBRANCH  13  15
ENDBRANCH   9  12
ENDBRANCH   3  10
ENDBRANCH   2   6
ENDBRANCH   1   2
BRANCH   1  17
ATOM     17  C   UNL     1       4.071   2.408  20.857  0.00  0.00    +0.000 C 
BRANCH  17  18
ATOM     18  C   UNL     1       5.142   1.316  20.698  0.00  0.00    +0.000 C 
BRANCH  18  19
ATOM     19  O   UNL     1       5.783   1.060  21.950  0.00  0.00    +0.000 OA
ATOM     20  H   UNL     1       5.200   0.469  22.457  0.00  0.00    +0.000 HD
ENDBRANCH  18  19
ENDBRANCH  17  18
ENDBRANCH   1  17
BRANCH   1  21
ATOM     21  C   UNL     1       3.593   2.067  18.463  0.00  0.00    +0.000 C 
BRANCH  21  22
ATOM     22  C   UNL     1       4.037   2.697  17.117  0.00  0.00    +0.000 C 
BRANCH  22  23
ATOM     23  C   UNL     1       5.022   3.819  17.252  0.00  0.00    +0.000 A 
ATOM     24  C   UNL     1       5.096   5.012  16.559  0.00  0.00    +0.000 A 
ATOM     25  C   UNL     1       6.098   5.820  17.160  0.00  0.00    +0.000 A 
ATOM     26  C   UNL     1       6.567   7.127  16.929  0.00  0.00    +0.000 A 
ATOM     27  C   UNL     1       7.608   7.631  17.715  0.00  0.00    +0.000 A 
ATOM     28  C   UNL     1       8.176   6.851  18.720  0.00  0.00    +0.000 A 
ATOM     29  C   UNL     1       7.708   5.559  18.986  0.00  0.00    +0.000 A 
ATOM     30  C   UNL     1       6.662   5.070  18.191  0.00  0.00    +0.000 A 
ATOM     31  N   UNL     1       5.982   3.869  18.237  0.00  0.00    +0.000 N 
ATOM     32  H   UNL     1       6.139   3.158  18.938  0.00  0.00    +0.000 HD
ENDBRANCH  22  23
ENDBRANCH  21  22
ENDBRANCH   1  21
TORSDOF 11
ENDMDL
MODEL 9
REMARK VINA RESULT:      -7.1      4.059      7.248
REMARK  Name = 
REMARK  11 active torsions:
REMARK  status: ('A' for Active; 'I' for Inactive)
REMARK    1  A    between atoms: C_2  and  C_3
REMARK    2  A    between atoms: C_4  and  C_5
REMARK    3  A    between atoms: C_8  and  C_9
REMARK    4  A    between atoms: C_9  and  N_10
REMARK    5  A    between atoms: N_10  and  C_11
REMARK    6  A    between atoms: N_10  and  C_14
REMARK    7  A    between atoms: C_11  and  C_12
REMARK    8  A    between atoms: C_12  and  O_13
REMARK    9  A    between atoms: C_14  and  C_15
REMARK   10  A    between atoms: C_15  and  C_16
REMARK   11  A    between atoms: N_27  and  O_28
REMARK                            x       y       z     vdW  Elec       q    Type
REMARK                         _______ _______ _______ _____ _____    ______ ____
ROOT
ATOM      1  N   UNL     1       4.456   5.872  19.001  0.00  0.00    +0.000 NA
ENDROOT
BRANCH   1   2
ATOM      2  C   UNL     1       3.078   5.936  18.445  0.00  0.00    +0.000 C 
BRANCH   2   6
ATOM      3  C   UNL     1       1.283   9.804  19.218  0.00  0.00    +0.000 A 
ATOM      4  C   UNL     1       1.362   8.839  20.234  0.00  0.00    +0.000 A 
ATOM      5  C   UNL     1       1.875   7.563  19.980  0.00  0.00    +0.000 A 
ATOM      6  C   UNL     1       2.300   7.214  18.693  0.00  0.00    +0.000 A 
ATOM      7  C   UNL     1       2.144   8.150  17.660  0.00  0.00    +0.000 A 
ATOM      8  C   UNL     1       1.636   9.429  17.917  0.00  0.00    +0.000 A 
BRANCH   3  10
ATOM      9  C   UNL     1       1.349  12.237  18.816  0.00  0.00    +0.000 C 
ATOM     10  C   UNL     1       0.848  11.187  19.484  0.00  0.00    +0.000 C 
BRANCH   9  12
ATOM     11  O   UNL     1       1.506  14.448  19.725  0.00  0.00    +0.000 OA
ATOM     12  C   UNL     1       0.880  13.622  19.076  0.00  0.00    +0.000 C 
ATOM     13  N   UNL     1      -0.347  13.870  18.516  0.00  0.00    +0.000 N 
ATOM     14  H   UNL     1      -0.919  13.190  18.030  0.00  0.00    +0.000 HD
BRANCH  13  15
ATOM     15  O   UNL     1      -0.936  15.128  18.766  0.00  0.00    +0.000 OA
ATOM     16  H   UNL     1      -0.253  15.581  19.306  0.00  0.00    +0.000 HD
ENDBRANCH  13  15
ENDBRANCH   9  12
ENDBRANCH   3  10
ENDBRANCH   2   6
ENDBRANCH   1   2
BRANCH   1  17
ATOM     17  C   UNL     1       4.753   4.461  19.367  0.00  0.00    +0.000 C 
BRANCH  17  18
ATOM     18  C   UNL     1       3.714   3.409  18.944  0.00  0.00    +0.000 C 
BRANCH  18  19
ATOM     19  O   UNL     1       4.349   2.332  18.252  0.00  0.00    +0.000 OA
ATOM     20  H   UNL     1       5.289   2.341  18.503  0.00  0.00    +0.000 HD
ENDBRANCH  18  19
ENDBRANCH  17  18
ENDBRANCH   1  17
BRANCH   1  21
ATOM     21  C   UNL     1       5.420   6.386  17.980  0.00  0.00    +0.000 C 
BRANCH  21  22
ATOM     22  C   UNL     1       6.591   5.414  17.678  0.00  0.00    +0.000 C 
BRANCH  22  23
ATOM     23  C   UNL     1       6.645   4.929  16.261  0.00  0.00    +0.000 A 
ATOM     24  C   UNL     1       5.845   4.005  15.617  0.00  0.00    +0.000 A 
ATOM     25  C   UNL     1       6.177   4.007  14.237  0.00  0.00    +0.000 A 
ATOM     26  C   UNL     1       5.670   3.332  13.109  0.00  0.00    +0.000 A 
ATOM     27  C   UNL     1       6.251   3.556  11.857  0.00  0.00    +0.000 A 
ATOM     28  C   UNL     1       7.321   4.439  11.722  0.00  0.00    +0.000 A 
ATOM     29  C   UNL     1       7.825   5.140  12.825  0.00  0.00    +0.000 A 
ATOM     30  C   UNL     1       7.228   4.907  14.072  0.00  0.00    +0.000 A 
ATOM     31  N   UNL     1       7.482   5.465  15.309  0.00  0.00    +0.000 N 
ATOM     32  H   UNL     1       8.152   6.204  15.468  0.00  0.00    +0.000 HD
ENDBRANCH  22  23
ENDBRANCH  21  22
ENDBRANCH   1  21
TORSDOF 11
ENDMDL
