MODEL 1
REMARK VINA RESULT:      -7.9      0.000      0.000
REMARK  Name = 
REMARK  5 active torsions:
REMARK  status: ('A' for Active; 'I' for Inactive)
REMARK    1  A    between atoms: C_1  and  C_2
REMARK    2  A    between atoms: C_4  and  N_5
REMARK    3  A    between atoms: C_20  and  N_21
REMARK    4  A    between atoms: C_22  and  C_24
REMARK    5  A    between atoms: C_28  and  C_29
REMARK                            x       y       z     vdW  Elec       q    Type
REMARK                         _______ _______ _______ _____ _____    ______ ____
ROOT
ATOM      1  C   UNL     1       0.400  10.222  17.894  0.00  0.00    +0.000 C 
ATOM      2  C   UNL     1       0.995   9.123  18.736  0.00  0.00    +0.000 A 
ATOM      3  C   UNL     1       1.802   8.175  18.068  0.00  0.00    +0.000 A 
ATOM      4  C   UNL     1       2.360   7.082  18.739  0.00  0.00    +0.000 A 
ATOM      5  C   UNL     1       2.116   6.957  20.103  0.00  0.00    +0.000 A 
ATOM      6  F   UNL     1       2.692   5.969  20.807  0.00  0.00    +0.000 F 
ATOM      7  C   UNL     1       1.345   7.897  20.786  0.00  0.00    +0.000 A 
ATOM      8  C   UNL     1       0.769   8.992  20.125  0.00  0.00    +0.000 A 
ENDROOT
BRANCH   4   9
ATOM      9  N   UNL     1       3.152   6.121  18.032  0.00  0.00    +0.000 N 
ATOM     10  C   UNL     1       2.587   4.861  17.817  0.00  0.00    +0.000 C 
ATOM     11  O   UNL     1       1.432   4.556  18.134  0.00  0.00    +0.000 OA
ATOM     12  C   UNL     1       3.417   3.833  17.089  0.00  0.00    +0.000 C 
ATOM     13  C   UNL     1       4.694   4.313  16.479  0.00  0.00    +0.000 A 
ATOM     14  C   UNL     1       5.442   3.448  15.666  0.00  0.00    +0.000 A 
ATOM     15  C   UNL     1       6.654   3.860  15.111  0.00  0.00    +0.000 A 
ATOM     16  C   UNL     1       7.133   5.142  15.366  0.00  0.00    +0.000 A 
ATOM     17  C   UNL     1       6.395   6.008  16.169  0.00  0.00    +0.000 A 
ATOM     18  C   UNL     1       5.171   5.598  16.720  0.00  0.00    +0.000 A 
ATOM     19  C   UNL     1       4.394   6.549  17.542  0.00  0.00    +0.000 C 
ATOM     20  O   UNL     1       4.888   7.656  17.755  0.00  0.00    +0.000 OA
ENDBRANCH   4   9
BRANCH   8  21
ATOM     21  N   UNL     1       0.007   9.969  20.823  0.00  0.00    +0.000 N 
ATOM     22  C   UNL     1       0.425  11.235  21.228  0.00  0.00    +0.000 C 
ATOM     23  O   UNL     1       1.565  11.670  21.103  0.00  0.00    +0.000 OA
ATOM     24  H   UNL     1      -0.965   9.763  21.022  0.00  0.00    +0.000 HD
BRANCH  22  25
ATOM     25  C   UNL     1      -0.626  12.054  21.816  0.00  0.00    +0.000 A 
ATOM     26  O   UNL     1      -0.575  12.367  23.150  0.00  0.00    +0.000 OA
ATOM     27  C   UNL     1      -1.671  13.121  23.426  0.00  0.00    +0.000 A 
ATOM     28  C   UNL     1      -2.435  13.297  22.297  0.00  0.00    +0.000 A 
ATOM     29  C   UNL     1      -1.767  12.612  21.246  0.00  0.00    +0.000 A 
ATOM     30  C   UNL     1      -2.215  12.506  19.832  0.00  0.00    +0.000 C 
ENDBRANCH  22  25
ENDBRANCH   8  21
TORSDOF 3
ENDMDL
MODEL 2
REMARK VINA RESULT:      -7.9      0.948      1.004
REMARK  Name = 
REMARK  5 active torsions:
REMARK  status: ('A' for Active; 'I' for Inactive)
REMARK    1  A    between atoms: C_1  and  C_2
REMARK    2  A    between atoms: C_4  and  N_5
REMARK    3  A    between atoms: C_20  and  N_21
REMARK    4  A    between atoms: C_22  and  C_24
REMARK    5  A    between atoms: C_28  and  C_29
REMARK                            x       y       z     vdW  Elec       q    Type
REMARK                         _______ _______ _______ _____ _____    ______ ____
ROOT
ATOM      1  C   UNL     1       0.621  10.361  18.008  0.00  0.00    +0.000 C 
ATOM      2  C   UNL     1       1.095   9.182  18.816  0.00  0.00    +0.000 A 
ATOM      3  C   UNL     1       1.911   8.240  18.150  0.00  0.00    +0.000 A 
ATOM      4  C   UNL     1       2.364   7.079  18.786  0.00  0.00    +0.000 A 
ATOM      5  C   UNL     1       2.005   6.878  20.115  0.00  0.00    +0.000 A 
ATOM      6  F   UNL     1       2.477   5.820  20.793  0.00  0.00    +0.000 F 
ATOM      7  C   UNL     1       1.223   7.810  20.798  0.00  0.00    +0.000 A 
ATOM      8  C   UNL     1       0.753   8.973  20.171  0.00  0.00    +0.000 A 
ENDROOT
BRANCH   4   9
ATOM      9  N   UNL     1       3.167   6.127  18.079  0.00  0.00    +0.000 N 
ATOM     10  C   UNL     1       2.596   4.880  17.816  0.00  0.00    +0.000 C 
ATOM     11  O   UNL     1       1.428   4.579  18.091  0.00  0.00    +0.000 OA
ATOM     12  C   UNL     1       3.436   3.861  17.087  0.00  0.00    +0.000 C 
ATOM     13  C   UNL     1       4.736   4.342  16.528  0.00  0.00    +0.000 A 
ATOM     14  C   UNL     1       5.499   3.489  15.716  0.00  0.00    +0.000 A 
ATOM     15  C   UNL     1       6.731   3.902  15.206  0.00  0.00    +0.000 A 
ATOM     16  C   UNL     1       7.215   5.172  15.507  0.00  0.00    +0.000 A 
ATOM     17  C   UNL     1       6.462   6.026  16.310  0.00  0.00    +0.000 A 
ATOM     18  C   UNL     1       5.219   5.616  16.815  0.00  0.00    +0.000 A 
ATOM     19  C   UNL     1       4.427   6.554  17.636  0.00  0.00    +0.000 C 
ATOM     20  O   UNL     1       4.925   7.650  17.892  0.00  0.00    +0.000 OA
ENDBRANCH   4   9
BRANCH   8  21
ATOM     21  N   UNL     1      -0.019   9.940  20.872  0.00  0.00    +0.000 N 
ATOM     22  C   UNL     1       0.129  10.338  22.199  0.00  0.00    +0.000 C 
ATOM     23  O   UNL     1       0.921   9.844  22.995  0.00  0.00    +0.000 OA
ATOM     24  H   UNL     1      -0.737  10.441  20.360  0.00  0.00    +0.000 HD
BRANCH  22  25
ATOM     25  C   UNL     1      -0.737  11.441  22.595  0.00  0.00    +0.000 A 
ATOM     26  O   UNL     1      -1.866  11.185  23.329  0.00  0.00    +0.000 OA
ATOM     27  C   UNL     1      -2.481  12.378  23.544  0.00  0.00    +0.000 A 
ATOM     28  C   UNL     1      -1.774  13.400  22.959  0.00  0.00    +0.000 A 
ATOM     29  C   UNL     1      -0.639  12.806  22.342  0.00  0.00    +0.000 A 
ATOM     30  C   UNL     1       0.420  13.509  21.571  0.00  0.00    +0.000 C 
ENDBRANCH  22  25
ENDBRANCH   8  21
TORSDOF 3
ENDMDL
MODEL 3
REMARK VINA RESULT:      -7.8      2.619      9.005
REMARK  Name = 
REMARK  5 active torsions:
REMARK  status: ('A' for Active; 'I' for Inactive)
REMARK    1  A    between atoms: C_1  and  C_2
REMARK    2  A    between atoms: C_4  and  N_5
REMARK    3  A    between atoms: C_20  and  N_21
REMARK    4  A    between atoms: C_22  and  C_24
REMARK    5  A    between atoms: C_28  and  C_29
REMARK                            x       y       z     vdW  Elec       q    Type
REMARK                         _______ _______ _______ _____ _____    ______ ____
ROOT
ATOM      1  C   UNL     1       2.875   7.978  17.580  0.00  0.00    +0.000 C 
ATOM      2  C   UNL     1       2.083   8.257  18.831  0.00  0.00    +0.000 A 
ATOM      3  C   UNL     1       1.419   9.502  18.900  0.00  0.00    +0.000 A 
ATOM      4  C   UNL     1       0.699   9.890  20.034  0.00  0.00    +0.000 A 
ATOM      5  C   UNL     1       0.633   9.002  21.103  0.00  0.00    +0.000 A 
ATOM      6  F   UNL     1      -0.109   9.295  22.183  0.00  0.00    +0.000 F 
ATOM      7  C   UNL     1       1.258   7.757  21.044  0.00  0.00    +0.000 A 
ATOM      8  C   UNL     1       1.993   7.358  19.918  0.00  0.00    +0.000 A 
ENDROOT
BRANCH   4   9
ATOM      9  N   UNL     1       0.059  11.170  20.088  0.00  0.00    +0.000 N 
ATOM     10  C   UNL     1      -1.196  11.283  19.485  0.00  0.00    +0.000 C 
ATOM     11  O   UNL     1      -1.810  10.337  18.976  0.00  0.00    +0.000 OA
ATOM     12  C   UNL     1      -1.875  12.630  19.519  0.00  0.00    +0.000 C 
ATOM     13  C   UNL     1      -1.239  13.678  20.373  0.00  0.00    +0.000 A 
ATOM     14  C   UNL     1      -1.892  14.905  20.567  0.00  0.00    +0.000 A 
ATOM     15  C   UNL     1      -1.306  15.913  21.334  0.00  0.00    +0.000 A 
ATOM     16  C   UNL     1      -0.057  15.705  21.913  0.00  0.00    +0.000 A 
ATOM     17  C   UNL     1       0.597  14.490  21.729  0.00  0.00    +0.000 A 
ATOM     18  C   UNL     1       0.004  13.472  20.966  0.00  0.00    +0.000 A 
ATOM     19  C   UNL     1       0.705  12.181  20.814  0.00  0.00    +0.000 C 
ATOM     20  O   UNL     1       1.820  12.072  21.325  0.00  0.00    +0.000 OA
ENDBRANCH   4   9
BRANCH   8  21
ATOM     21  N   UNL     1       2.606   6.077  19.841  0.00  0.00    +0.000 N 
ATOM     22  C   UNL     1       2.011   4.840  20.079  0.00  0.00    +0.000 C 
ATOM     23  O   UNL     1       0.861   4.680  20.473  0.00  0.00    +0.000 OA
ATOM     24  H   UNL     1       3.574   6.029  19.540  0.00  0.00    +0.000 HD
BRANCH  22  25
ATOM     25  C   UNL     1       2.871   3.698  19.800  0.00  0.00    +0.000 A 
ATOM     26  O   UNL     1       3.531   3.079  20.829  0.00  0.00    +0.000 OA
ATOM     27  C   UNL     1       4.258   2.067  20.287  0.00  0.00    +0.000 A 
ATOM     28  C   UNL     1       4.085   2.022  18.925  0.00  0.00    +0.000 A 
ATOM     29  C   UNL     1       3.187   3.073  18.596  0.00  0.00    +0.000 A 
ATOM     30  C   UNL     1       2.703   3.433  17.237  0.00  0.00    +0.000 C 
ENDBRANCH  22  25
ENDBRANCH   8  21
TORSDOF 3
ENDMDL
MODEL 4
REMARK VINA RESULT:      -7.5      3.493      4.967
REMARK  Name = 
REMARK  5 active torsions:
REMARK  status: ('A' for Active; 'I' for Inactive)
REMARK    1  A    between atoms: C_1  and  C_2
REMARK    2  A    between atoms: C_4  and  N_5
REMARK    3  A    between atoms: C_20  and  N_21
REMARK    4  A    between atoms: C_22  and  C_24
REMARK    5  A    between atoms: C_28  and  C_29
REMARK                            x       y       z     vdW  Elec       q    Type
REMARK                         _______ _______ _______ _____ _____    ______ ____
ROOT
ATOM      1  C   UNL     1       2.517  13.770  18.868  0.00  0.00    +0.000 C 
ATOM      2  C   UNL     1       1.435  12.723  18.922  0.00  0.00    +0.000 A 
ATOM      3  C   UNL     1       1.839  11.403  19.223  0.00  0.00    +0.000 A 
ATOM      4  C   UNL     1       0.928  10.342  19.247  0.00  0.00    +0.000 A 
ATOM      5  C   UNL     1      -0.408  10.621  18.981  0.00  0.00    +0.000 A 
ATOM      6  F   UNL     1      -1.333   9.651  19.066  0.00  0.00    +0.000 F 
ATOM      7  C   UNL     1      -0.832  11.921  18.707  0.00  0.00    +0.000 A 
ATOM      8  C   UNL     1       0.071  12.994  18.670  0.00  0.00    +0.000 A 
ENDROOT
BRANCH   4   9
ATOM      9  N   UNL     1       1.370   9.009  19.529  0.00  0.00    +0.000 N 
ATOM     10  C   UNL     1       1.067   8.489  20.790  0.00  0.00    +0.000 C 
ATOM     11  O   UNL     1       0.387   9.077  21.638  0.00  0.00    +0.000 OA
ATOM     12  C   UNL     1       1.541   7.092  21.106  0.00  0.00    +0.000 C 
ATOM     13  C   UNL     1       2.117   6.307  19.973  0.00  0.00    +0.000 A 
ATOM     14  C   UNL     1       2.444   4.955  20.161  0.00  0.00    +0.000 A 
ATOM     15  C   UNL     1       3.012   4.208  19.129  0.00  0.00    +0.000 A 
ATOM     16  C   UNL     1       3.263   4.806  17.897  0.00  0.00    +0.000 A 
ATOM     17  C   UNL     1       2.940   6.147  17.701  0.00  0.00    +0.000 A 
ATOM     18  C   UNL     1       2.359   6.896  18.735  0.00  0.00    +0.000 A 
ATOM     19  C   UNL     1       1.996   8.307  18.489  0.00  0.00    +0.000 C 
ATOM     20  O   UNL     1       2.273   8.785  17.389  0.00  0.00    +0.000 OA
ENDBRANCH   4   9
BRANCH   8  21
ATOM     21  N   UNL     1      -0.362  14.325  18.422  0.00  0.00    +0.000 N 
ATOM     22  C   UNL     1      -0.526  15.348  19.354  0.00  0.00    +0.000 C 
ATOM     23  O   UNL     1      -0.389  15.220  20.566  0.00  0.00    +0.000 OA
ATOM     24  H   UNL     1      -0.535  14.600  17.461  0.00  0.00    +0.000 HD
BRANCH  22  25
ATOM     25  C   UNL     1      -0.865  16.640  18.773  0.00  0.00    +0.000 A 
ATOM     26  O   UNL     1      -0.076  17.165  17.782  0.00  0.00    +0.000 OA
ATOM     27  C   UNL     1      -0.612  18.365  17.439  0.00  0.00    +0.000 A 
ATOM     28  C   UNL     1      -1.730  18.631  18.192  0.00  0.00    +0.000 A 
ATOM     29  C   UNL     1      -1.906  17.519  19.060  0.00  0.00    +0.000 A 
ATOM     30  C   UNL     1      -2.979  17.348  20.076  0.00  0.00    +0.000 C 
ENDBRANCH  22  25
ENDBRANCH   8  21
TORSDOF 3
ENDMDL
MODEL 5
REMARK VINA RESULT:      -7.4      2.499      9.304
REMARK  Name = 
REMARK  5 active torsions:
REMARK  status: ('A' for Active; 'I' for Inactive)
REMARK    1  A    between atoms: C_1  and  C_2
REMARK    2  A    between atoms: C_4  and  N_5
REMARK    3  A    between atoms: C_20  and  N_21
REMARK    4  A    between atoms: C_22  and  C_24
REMARK    5  A    between atoms: C_28  and  C_29
REMARK                            x       y       z     vdW  Elec       q    Type
REMARK                         _______ _______ _______ _____ _____    ______ ____
ROOT
ATOM      1  C   UNL     1       2.512   8.645  17.819  0.00  0.00    +0.000 C 
ATOM      2  C   UNL     1       1.693   8.821  19.072  0.00  0.00    +0.000 A 
ATOM      3  C   UNL     1       0.885   9.978  19.147  0.00  0.00    +0.000 A 
ATOM      4  C   UNL     1       0.124  10.271  20.284  0.00  0.00    +0.000 A 
ATOM      5  C   UNL     1       0.167   9.376  21.348  0.00  0.00    +0.000 A 
ATOM      6  F   UNL     1      -0.604   9.572  22.430  0.00  0.00    +0.000 F 
ATOM      7  C   UNL     1       0.937   8.215  21.283  0.00  0.00    +0.000 A 
ATOM      8  C   UNL     1       1.713   7.913  20.154  0.00  0.00    +0.000 A 
ENDROOT
BRANCH   4   9
ATOM      9  N   UNL     1      -0.665  11.464  20.344  0.00  0.00    +0.000 N 
ATOM     10  C   UNL     1      -1.838  11.494  19.586  0.00  0.00    +0.000 C 
ATOM     11  O   UNL     1      -2.265  10.537  18.930  0.00  0.00    +0.000 OA
ATOM     12  C   UNL     1      -2.670  12.752  19.627  0.00  0.00    +0.000 C 
ATOM     13  C   UNL     1      -2.277  13.782  20.634  0.00  0.00    +0.000 A 
ATOM     14  C   UNL     1      -3.090  14.910  20.827  0.00  0.00    +0.000 A 
ATOM     15  C   UNL     1      -2.731  15.903  21.739  0.00  0.00    +0.000 A 
ATOM     16  C   UNL     1      -1.549  15.780  22.466  0.00  0.00    +0.000 A 
ATOM     17  C   UNL     1      -0.737  14.664  22.283  0.00  0.00    +0.000 A 
ATOM     18  C   UNL     1      -1.104  13.660  21.373  0.00  0.00    +0.000 A 
ATOM     19  C   UNL     1      -0.241  12.470  21.224  0.00  0.00    +0.000 C 
ATOM     20  O   UNL     1       0.805  12.438  21.872  0.00  0.00    +0.000 OA
ENDBRANCH   4   9
BRANCH   8  21
ATOM     21  N   UNL     1       2.475   6.716  20.071  0.00  0.00    +0.000 N 
ATOM     22  C   UNL     1       2.012   5.408  20.203  0.00  0.00    +0.000 C 
ATOM     23  O   UNL     1       0.861   5.098  20.491  0.00  0.00    +0.000 OA
ATOM     24  H   UNL     1       3.462   6.793  19.850  0.00  0.00    +0.000 HD
BRANCH  22  25
ATOM     25  C   UNL     1       3.018   4.387  19.944  0.00  0.00    +0.000 A 
ATOM     26  O   UNL     1       3.950   4.588  18.959  0.00  0.00    +0.000 OA
ATOM     27  C   UNL     1       4.745   3.486  18.930  0.00  0.00    +0.000 A 
ATOM     28  C   UNL     1       4.343   2.573  19.875  0.00  0.00    +0.000 A 
ATOM     29  C   UNL     1       3.226   3.146  20.541  0.00  0.00    +0.000 A 
ATOM     30  C   UNL     1       2.436   2.528  21.639  0.00  0.00    +0.000 C 
ENDBRANCH  22  25
ENDBRANCH   8  21
TORSDOF 3
ENDMDL
MODEL 6
REMARK VINA RESULT:      -7.2      1.884      9.300
REMARK  Name = 
REMARK  5 active torsions:
REMARK  status: ('A' for Active; 'I' for Inactive)
REMARK    1  A    between atoms: C_1  and  C_2
REMARK    2  A    between atoms: C_4  and  N_5
REMARK    3  A    between atoms: C_20  and  N_21
REMARK    4  A    between atoms: C_22  and  C_24
REMARK    5  A    between atoms: C_28  and  C_29
REMARK                            x       y       z     vdW  Elec       q    Type
REMARK                         _______ _______ _______ _____ _____    ______ ____
ROOT
ATOM      1  C   UNL     1       2.302   5.434  19.556  0.00  0.00    +0.000 C 
ATOM      2  C   UNL     1       2.192   6.879  19.142  0.00  0.00    +0.000 A 
ATOM      3  C   UNL     1       1.392   7.714  19.954  0.00  0.00    +0.000 A 
ATOM      4  C   UNL     1       1.174   9.059  19.635  0.00  0.00    +0.000 A 
ATOM      5  C   UNL     1       1.787   9.569  18.495  0.00  0.00    +0.000 A 
ATOM      6  F   UNL     1       1.673  10.871  18.189  0.00  0.00    +0.000 F 
ATOM      7  C   UNL     1       2.602   8.768  17.696  0.00  0.00    +0.000 A 
ATOM      8  C   UNL     1       2.822   7.415  17.996  0.00  0.00    +0.000 A 
ENDROOT
BRANCH   4   9
ATOM      9  N   UNL     1       0.337   9.877  20.460  0.00  0.00    +0.000 N 
ATOM     10  C   UNL     1       0.692  10.002  21.806  0.00  0.00    +0.000 C 
ATOM     11  O   UNL     1       1.713   9.513  22.303  0.00  0.00    +0.000 OA
ATOM     12  C   UNL     1      -0.192  10.846  22.690  0.00  0.00    +0.000 C 
ATOM     13  C   UNL     1      -1.256  11.643  22.009  0.00  0.00    +0.000 A 
ATOM     14  C   UNL     1      -2.019  12.559  22.750  0.00  0.00    +0.000 A 
ATOM     15  C   UNL     1      -3.040  13.293  22.146  0.00  0.00    +0.000 A 
ATOM     16  C   UNL     1      -3.312  13.115  20.792  0.00  0.00    +0.000 A 
ATOM     17  C   UNL     1      -2.559  12.210  20.048  0.00  0.00    +0.000 A 
ATOM     18  C   UNL     1      -1.525  11.479  20.653  0.00  0.00    +0.000 A 
ATOM     19  C   UNL     1      -0.721  10.551  19.833  0.00  0.00    +0.000 C 
ATOM     20  O   UNL     1      -1.033  10.416  18.650  0.00  0.00    +0.000 OA
ENDBRANCH   4   9
BRANCH   8  21
ATOM     21  N   UNL     1       3.676   6.603  17.202  0.00  0.00    +0.000 N 
ATOM     22  C   UNL     1       5.068   6.637  17.152  0.00  0.00    +0.000 C 
ATOM     23  O   UNL     1       5.771   7.446  17.748  0.00  0.00    +0.000 OA
ATOM     24  H   UNL     1       3.251   5.881  16.630  0.00  0.00    +0.000 HD
BRANCH  22  25
ATOM     25  C   UNL     1       5.664   5.593  16.329  0.00  0.00    +0.000 A 
ATOM     26  O   UNL     1       6.634   5.920  15.418  0.00  0.00    +0.000 OA
ATOM     27  C   UNL     1       6.999   4.771  14.792  0.00  0.00    +0.000 A 
ATOM     28  C   UNL     1       6.280   3.706  15.277  0.00  0.00    +0.000 A 
ATOM     29  C   UNL     1       5.412   4.225  16.276  0.00  0.00    +0.000 A 
ATOM     30  C   UNL     1       4.427   3.456  17.082  0.00  0.00    +0.000 C 
ENDBRANCH  22  25
ENDBRANCH   8  21
TORSDOF 3
ENDMDL
MODEL 7
REMARK VINA RESULT:      -7.2      2.205      9.569
REMARK  Name = 
REMARK  5 active torsions:
REMARK  status: ('A' for Active; 'I' for Inactive)
REMARK    1  A    between atoms: C_1  and  C_2
REMARK    2  A    between atoms: C_4  and  N_5
REMARK    3  A    between atoms: C_20  and  N_21
REMARK    4  A    between atoms: C_22  and  C_24
REMARK    5  A    between atoms: C_28  and  C_29
REMARK                            x       y       z     vdW  Elec       q    Type
REMARK                         _______ _______ _______ _____ _____    ______ ____
ROOT
ATOM      1  C   UNL     1       2.135   9.894  17.791  0.00  0.00    +0.000 C 
ATOM      2  C   UNL     1       1.326   9.683  19.044  0.00  0.00    +0.000 A 
ATOM      3  C   UNL     1       0.405  10.698  19.386  0.00  0.00    +0.000 A 
ATOM      4  C   UNL     1      -0.360  10.633  20.556  0.00  0.00    +0.000 A 
ATOM      5  C   UNL     1      -0.205   9.522  21.379  0.00  0.00    +0.000 A 
ATOM      6  F   UNL     1      -0.971   9.376  22.472  0.00  0.00    +0.000 F 
ATOM      7  C   UNL     1       0.679   8.497  21.045  0.00  0.00    +0.000 A 
ATOM      8  C   UNL     1       1.460   8.552  19.881  0.00  0.00    +0.000 A 
ENDROOT
BRANCH   4   9
ATOM      9  N   UNL     1      -1.267  11.689  20.892  0.00  0.00    +0.000 N 
ATOM     10  C   UNL     1      -2.346  11.904  20.031  0.00  0.00    +0.000 C 
ATOM     11  O   UNL     1      -2.600  11.199  19.048  0.00  0.00    +0.000 OA
ATOM     12  C   UNL     1      -3.299  13.024  20.365  0.00  0.00    +0.000 C 
ATOM     13  C   UNL     1      -3.125  13.678  21.696  0.00  0.00    +0.000 A 
ATOM     14  C   UNL     1      -4.064  14.626  22.132  0.00  0.00    +0.000 A 
ATOM     15  C   UNL     1      -3.908  15.275  23.357  0.00  0.00    +0.000 A 
ATOM     16  C   UNL     1      -2.808  14.985  24.160  0.00  0.00    +0.000 A 
ATOM     17  C   UNL     1      -1.873  14.043  23.737  0.00  0.00    +0.000 A 
ATOM     18  C   UNL     1      -2.034  13.383  22.509  0.00  0.00    +0.000 A 
ATOM     19  C   UNL     1      -1.045  12.365  22.101  0.00  0.00    +0.000 C 
ATOM     20  O   UNL     1      -0.079  12.178  22.840  0.00  0.00    +0.000 OA
ENDBRANCH   4   9
BRANCH   8  21
ATOM     21  N   UNL     1       2.341   7.495  19.522  0.00  0.00    +0.000 N 
ATOM     22  C   UNL     1       2.268   6.162  19.922  0.00  0.00    +0.000 C 
ATOM     23  O   UNL     1       1.455   5.714  20.723  0.00  0.00    +0.000 OA
ATOM     24  H   UNL     1       3.089   7.698  18.868  0.00  0.00    +0.000 HD
BRANCH  22  25
ATOM     25  C   UNL     1       3.247   5.291  19.286  0.00  0.00    +0.000 A 
ATOM     26  O   UNL     1       4.570   5.389  19.634  0.00  0.00    +0.000 OA
ATOM     27  C   UNL     1       5.248   4.479  18.889  0.00  0.00    +0.000 A 
ATOM     28  C   UNL     1       4.392   3.796  18.059  0.00  0.00    +0.000 A 
ATOM     29  C   UNL     1       3.091   4.312  18.309  0.00  0.00    +0.000 A 
ATOM     30  C   UNL     1       1.829   3.894  17.642  0.00  0.00    +0.000 C 
ENDBRANCH  22  25
ENDBRANCH   8  21
TORSDOF 3
ENDMDL
MODEL 8
REMARK VINA RESULT:      -7.1      2.262      9.589
REMARK  Name = 
REMARK  5 active torsions:
REMARK  status: ('A' for Active; 'I' for Inactive)
REMARK    1  A    between atoms: C_1  and  C_2
REMARK    2  A    between atoms: C_4  and  N_5
REMARK    3  A    between atoms: C_20  and  N_21
REMARK    4  A    between atoms: C_22  and  C_24
REMARK    5  A    between atoms: C_28  and  C_29
REMARK                            x       y       z     vdW  Elec       q    Type
REMARK                         _______ _______ _______ _____ _____    ______ ____
ROOT
ATOM      1  C   UNL     1       1.397   8.953  17.755  0.00  0.00    +0.000 C 
ATOM      2  C   UNL     1       1.328   9.006  19.259  0.00  0.00    +0.000 A 
ATOM      3  C   UNL     1       0.738  10.157  19.829  0.00  0.00    +0.000 A 
ATOM      4  C   UNL     1       0.670  10.338  21.215  0.00  0.00    +0.000 A 
ATOM      5  C   UNL     1       1.186   9.337  22.032  0.00  0.00    +0.000 A 
ATOM      6  F   UNL     1       1.075   9.428  23.367  0.00  0.00    +0.000 F 
ATOM      7  C   UNL     1       1.747   8.182  21.489  0.00  0.00    +0.000 A 
ATOM      8  C   UNL     1       1.833   7.990  20.102  0.00  0.00    +0.000 A 
ENDROOT
BRANCH   4   9
ATOM      9  N   UNL     1       0.092  11.526  21.766  0.00  0.00    +0.000 N 
ATOM     10  C   UNL     1       0.692  12.743  21.433  0.00  0.00    +0.000 C 
ATOM     11  O   UNL     1       1.636  12.858  20.644  0.00  0.00    +0.000 OA
ATOM     12  C   UNL     1       0.103  14.001  22.021  0.00  0.00    +0.000 C 
ATOM     13  C   UNL     1      -1.196  13.859  22.745  0.00  0.00    +0.000 A 
ATOM     14  C   UNL     1      -1.871  15.005  23.191  0.00  0.00    +0.000 A 
ATOM     15  C   UNL     1      -3.070  14.899  23.897  0.00  0.00    +0.000 A 
ATOM     16  C   UNL     1      -3.604  13.642  24.169  0.00  0.00    +0.000 A 
ATOM     17  C   UNL     1      -2.942  12.499  23.729  0.00  0.00    +0.000 A 
ATOM     18  C   UNL     1      -1.742  12.606  23.010  0.00  0.00    +0.000 A 
ATOM     19  C   UNL     1      -1.078  11.378  22.526  0.00  0.00    +0.000 C 
ATOM     20  O   UNL     1      -1.585  10.297  22.827  0.00  0.00    +0.000 OA
ENDBRANCH   4   9
BRANCH   8  21
ATOM     21  N   UNL     1       2.376   6.801  19.544  0.00  0.00    +0.000 N 
ATOM     22  C   UNL     1       2.062   5.487  19.886  0.00  0.00    +0.000 C 
ATOM     23  O   UNL     1       1.304   5.161  20.794  0.00  0.00    +0.000 OA
ATOM     24  H   UNL     1       3.038   6.891  18.781  0.00  0.00    +0.000 HD
BRANCH  22  25
ATOM     25  C   UNL     1       2.700   4.481  19.048  0.00  0.00    +0.000 A 
ATOM     26  O   UNL     1       3.995   4.664  18.636  0.00  0.00    +0.000 OA
ATOM     27  C   UNL     1       4.325   3.592  17.870  0.00  0.00    +0.000 A 
ATOM     28  C   UNL     1       3.268   2.720  17.773  0.00  0.00    +0.000 A 
ATOM     29  C   UNL     1       2.208   3.284  18.535  0.00  0.00    +0.000 A 
ATOM     30  C   UNL     1       0.849   2.710  18.723  0.00  0.00    +0.000 C 
ENDBRANCH  22  25
ENDBRANCH   8  21
TORSDOF 3
ENDMDL
MODEL 9
REMARK VINA RESULT:      -7.1      3.097      5.164
REMARK  Name = 
REMARK  5 active torsions:
REMARK  status: ('A' for Active; 'I' for Inactive)
REMARK    1  A    between atoms: C_1  and  C_2
REMARK    2  A    between atoms: C_4  and  N_5
REMARK    3  A    between atoms: C_20  and  N_21
REMARK    4  A    between atoms: C_22  and  C_24
REMARK    5  A    between atoms: C_28  and  C_29
REMARK                            x       y       z     vdW  Elec       q    Type
REMARK                         _______ _______ _______ _____ _____    ______ ____
ROOT
ATOM      1  C   UNL     1      -0.420  13.812  21.984  0.00  0.00    +0.000 C 
ATOM      2  C   UNL     1      -0.814  12.749  20.991  0.00  0.00    +0.000 A 
ATOM      3  C   UNL     1      -0.004  11.593  20.941  0.00  0.00    +0.000 A 
ATOM      4  C   UNL     1      -0.244  10.566  20.022  0.00  0.00    +0.000 A 
ATOM      5  C   UNL     1      -1.325  10.701  19.157  0.00  0.00    +0.000 A 
ATOM      6  F   UNL     1      -1.644   9.710  18.309  0.00  0.00    +0.000 F 
ATOM      7  C   UNL     1      -2.153  11.822  19.209  0.00  0.00    +0.000 A 
ATOM      8  C   UNL     1      -1.919  12.865  20.118  0.00  0.00    +0.000 A 
ENDROOT
BRANCH   4   9
ATOM      9  N   UNL     1       0.609   9.417  19.974  0.00  0.00    +0.000 N 
ATOM     10  C   UNL     1       0.444   8.456  20.974  0.00  0.00    +0.000 C 
ATOM     11  O   UNL     1      -0.433   8.504  21.845  0.00  0.00    +0.000 OA
ATOM     12  C   UNL     1       1.347   7.248  20.945  0.00  0.00    +0.000 C 
ATOM     13  C   UNL     1       2.206   7.082  19.734  0.00  0.00    +0.000 A 
ATOM     14  C   UNL     1       2.962   5.911  19.574  0.00  0.00    +0.000 A 
ATOM     15  C   UNL     1       3.796   5.744  18.468  0.00  0.00    +0.000 A 
ATOM     16  C   UNL     1       3.885   6.750  17.509  0.00  0.00    +0.000 A 
ATOM     17  C   UNL     1       3.136   7.915  17.658  0.00  0.00    +0.000 A 
ATOM     18  C   UNL     1       2.290   8.079  18.766  0.00  0.00    +0.000 A 
ATOM     19  C   UNL     1       1.482   9.311  18.881  0.00  0.00    +0.000 C 
ATOM     20  O   UNL     1       1.630  10.175  18.017  0.00  0.00    +0.000 OA
ENDBRANCH   4   9
BRANCH   8  21
ATOM     21  N   UNL     1      -2.778  13.995  20.195  0.00  0.00    +0.000 N 
ATOM     22  C   UNL     1      -3.979  14.098  20.895  0.00  0.00    +0.000 C 
ATOM     23  O   UNL     1      -4.518  13.178  21.500  0.00  0.00    +0.000 OA
ATOM     24  H   UNL     1      -2.486  14.850  19.733  0.00  0.00    +0.000 HD
BRANCH  22  25
ATOM     25  C   UNL     1      -4.569  15.430  20.881  0.00  0.00    +0.000 A 
ATOM     26  O   UNL     1      -5.613  15.699  20.033  0.00  0.00    +0.000 OA
ATOM     27  C   UNL     1      -5.954  17.001  20.220  0.00  0.00    +0.000 A 
ATOM     28  C   UNL     1      -5.147  17.582  21.169  0.00  0.00    +0.000 A 
ATOM     29  C   UNL     1      -4.247  16.573  21.607  0.00  0.00    +0.000 A 
ATOM     30  C   UNL     1      -3.171  16.724  22.623  0.00  0.00    +0.000 C 
ENDBRANCH  22  25
ENDBRANCH   8  21
TORSDOF 3
ENDMDL
