MODEL 1
REMARK VINA RESULT:      -7.2      0.000      0.000
REMARK  Name = 
REMARK  6 active torsions:
REMARK  status: ('A' for Active; 'I' for Inactive)
REMARK    1  A    between atoms: C_2  and  O_3
REMARK    2  A    between atoms: C_2  and  C_4
REMARK    3  A    between atoms: C_4  and  C_5
REMARK    4  A    between atoms: C_5  and  C_6
REMARK    5  A    between atoms: N_10  and  C_11
REMARK    6  A    between atoms: N_14  and  C_15
REMARK                            x       y       z     vdW  Elec       q    Type
REMARK                         _______ _______ _______ _____ _____    ______ ____
ROOT
ATOM      1  C   UNL     1       3.035   7.155  18.753  0.00  0.00    +0.000 C 
ATOM      2  C   UNL     1       2.892   8.097  17.548  0.00  0.00    +0.000 C 
ATOM      3  C   UNL     1       2.243   9.331  18.144  0.00  0.00    +0.000 C 
ATOM      4  N   UNL     1       1.389   8.801  19.181  0.00  0.00    +0.000 N 
ATOM      5  C   UNL     1       1.890   7.594  19.679  0.00  0.00    +0.000 C 
ATOM      6  O   UNL     1       1.519   7.021  20.694  0.00  0.00    +0.000 OA
ENDROOT
BRANCH   4   7
ATOM      7  C   UNL     1       0.574   9.666  19.945  0.00  0.00    +0.000 A 
ATOM      8  C   UNL     1       0.857   9.866  21.305  0.00  0.00    +0.000 A 
ATOM      9  C   UNL     1       0.073  10.727  22.075  0.00  0.00    +0.000 A 
ATOM     10  C   UNL     1      -1.016  11.378  21.501  0.00  0.00    +0.000 A 
ATOM     11  C   UNL     1      -1.324  11.168  20.156  0.00  0.00    +0.000 A 
ATOM     12  C   UNL     1      -0.529  10.321  19.376  0.00  0.00    +0.000 A 
ATOM     13 CL   UNL     1      -1.024  10.035  17.743  0.00  0.00    +0.000 Cl
ENDBRANCH   4   7
BRANCH   1  18
ATOM     14  C   UNL     1       1.748   3.713  17.754  0.00  0.00    +0.000 C 
ATOM     15  C   UNL     1       2.867   3.279  16.791  0.00  0.00    +0.000 C 
ATOM     16  C   UNL     1       4.220   3.840  17.219  0.00  0.00    +0.000 C 
ATOM     17  C   UNL     1       4.160   5.351  17.471  0.00  0.00    +0.000 C 
ATOM     18  N   UNL     1       3.087   5.706  18.420  0.00  0.00    +0.000 NA
ATOM     19  C   UNL     1       1.788   5.245  17.886  0.00  0.00    +0.000 C 
BRANCH  14  20
ATOM     20  C   UNL     1       1.859   2.979  19.107  0.00  0.00    +0.000 C 
BRANCH  20  21
ATOM     21  C   UNL     1       1.075   3.659  20.228  0.00  0.00    +0.000 C 
BRANCH  21  23
ATOM     22  O   UNL     1       1.744   2.869  22.405  0.00  0.00    +0.000 OA
ATOM     23  C   UNL     1       1.861   3.697  21.510  0.00  0.00    +0.000 C 
BRANCH  23  24
ATOM     24  O   UNL     1       2.688   4.760  21.605  0.00  0.00    +0.000 OA
ATOM     25  H   UNL     1       3.635   4.524  21.564  0.00  0.00    +0.000 HD
ENDBRANCH  23  24
ENDBRANCH  21  23
ENDBRANCH  20  21
ENDBRANCH  14  20
ENDBRANCH   1  18
TORSDOF 6
ENDMDL
MODEL 2
REMARK VINA RESULT:      -7.0      2.552      3.587
REMARK  Name = 
REMARK  6 active torsions:
REMARK  status: ('A' for Active; 'I' for Inactive)
REMARK    1  A    between atoms: C_2  and  O_3
REMARK    2  A    between atoms: C_2  and  C_4
REMARK    3  A    between atoms: C_4  and  C_5
REMARK    4  A    between atoms: C_5  and  C_6
REMARK    5  A    between atoms: N_10  and  C_11
REMARK    6  A    between atoms: N_14  and  C_15
REMARK                            x       y       z     vdW  Elec       q    Type
REMARK                         _______ _______ _______ _____ _____    ______ ____
ROOT
ATOM      1  C   UNL     1       3.044   7.166  18.532  0.00  0.00    +0.000 C 
ATOM      2  C   UNL     1       2.593   8.278  17.572  0.00  0.00    +0.000 C 
ATOM      3  C   UNL     1       2.007   9.324  18.501  0.00  0.00    +0.000 C 
ATOM      4  N   UNL     1       1.424   8.546  19.569  0.00  0.00    +0.000 N 
ATOM      5  C   UNL     1       2.094   7.328  19.728  0.00  0.00    +0.000 C 
ATOM      6  O   UNL     1       1.981   6.559  20.672  0.00  0.00    +0.000 OA
ENDROOT
BRANCH   4   7
ATOM      7  C   UNL     1       0.735   9.185  20.623  0.00  0.00    +0.000 A 
ATOM      8  C   UNL     1       1.130   8.957  21.950  0.00  0.00    +0.000 A 
ATOM      9  C   UNL     1       0.471   9.589  23.006  0.00  0.00    +0.000 A 
ATOM     10  C   UNL     1      -0.604  10.436  22.749  0.00  0.00    +0.000 A 
ATOM     11  C   UNL     1      -1.024  10.651  21.435  0.00  0.00    +0.000 A 
ATOM     12  C   UNL     1      -0.354  10.035  20.373  0.00  0.00    +0.000 A 
ATOM     13 CL   UNL     1      -0.985  10.274  18.780  0.00  0.00    +0.000 Cl
ENDBRANCH   4   7
BRANCH   1  18
ATOM     14  C   UNL     1       4.495   3.743  17.709  0.00  0.00    +0.000 C 
ATOM     15  C   UNL     1       3.229   2.879  17.835  0.00  0.00    +0.000 C 
ATOM     16  C   UNL     1       1.982   3.650  17.411  0.00  0.00    +0.000 C 
ATOM     17  C   UNL     1       1.886   5.012  18.109  0.00  0.00    +0.000 C 
ATOM     18  N   UNL     1       3.117   5.807  17.933  0.00  0.00    +0.000 NA
ATOM     19  C   UNL     1       4.267   5.055  18.479  0.00  0.00    +0.000 C 
BRANCH  14  20
ATOM     20  C   UNL     1       4.879   3.960  16.230  0.00  0.00    +0.000 C 
BRANCH  20  21
ATOM     21  C   UNL     1       5.667   5.247  15.993  0.00  0.00    +0.000 C 
BRANCH  21  23
ATOM     22  O   UNL     1       7.857   4.433  16.583  0.00  0.00    +0.000 OA
ATOM     23  C   UNL     1       7.127   4.968  15.760  0.00  0.00    +0.000 C 
BRANCH  23  24
ATOM     24  O   UNL     1       7.575   5.402  14.562  0.00  0.00    +0.000 OA
ATOM     25  H   UNL     1       7.957   6.301  14.589  0.00  0.00    +0.000 HD
ENDBRANCH  23  24
ENDBRANCH  21  23
ENDBRANCH  20  21
ENDBRANCH  14  20
ENDBRANCH   1  18
TORSDOF 6
ENDMDL
MODEL 3
REMARK VINA RESULT:      -6.9      1.153      1.327
REMARK  Name = 
REMARK  6 active torsions:
REMARK  status: ('A' for Active; 'I' for Inactive)
REMARK    1  A    between atoms: C_2  and  O_3
REMARK    2  A    between atoms: C_2  and  C_4
REMARK    3  A    between atoms: C_4  and  C_5
REMARK    4  A    between atoms: C_5  and  C_6
REMARK    5  A    between atoms: N_10  and  C_11
REMARK    6  A    between atoms: N_14  and  C_15
REMARK                            x       y       z     vdW  Elec       q    Type
REMARK                         _______ _______ _______ _____ _____    ______ ____
ROOT
ATOM      1  C   UNL     1       2.672   7.758  19.063  0.00  0.00    +0.000 C 
ATOM      2  C   UNL     1       2.499   8.327  17.646  0.00  0.00    +0.000 C 
ATOM      3  C   UNL     1       1.822   9.662  17.887  0.00  0.00    +0.000 C 
ATOM      4  N   UNL     1       0.987   9.420  19.040  0.00  0.00    +0.000 N 
ATOM      5  C   UNL     1       1.521   8.409  19.845  0.00  0.00    +0.000 C 
ATOM      6  O   UNL     1       1.171   8.130  20.983  0.00  0.00    +0.000 OA
ENDROOT
BRANCH   4   7
ATOM      7  C   UNL     1       0.154  10.443  19.545  0.00  0.00    +0.000 A 
ATOM      8  C   UNL     1       0.533  11.138  20.704  0.00  0.00    +0.000 A 
ATOM      9  C   UNL     1      -0.268  12.162  21.212  0.00  0.00    +0.000 A 
ATOM     10  C   UNL     1      -1.467  12.485  20.583  0.00  0.00    +0.000 A 
ATOM     11  C   UNL     1      -1.869  11.784  19.445  0.00  0.00    +0.000 A 
ATOM     12  C   UNL     1      -1.060  10.771  18.921  0.00  0.00    +0.000 A 
ATOM     13 CL   UNL     1      -1.663   9.883  17.564  0.00  0.00    +0.000 Cl
ENDBRANCH   4   7
BRANCH   1  18
ATOM     14  C   UNL     1       1.852   4.125  18.268  0.00  0.00    +0.000 C 
ATOM     15  C   UNL     1       3.270   3.528  18.255  0.00  0.00    +0.000 C 
ATOM     16  C   UNL     1       4.182   4.233  19.256  0.00  0.00    +0.000 C 
ATOM     17  C   UNL     1       4.141   5.757  19.095  0.00  0.00    +0.000 C 
ATOM     18  N   UNL     1       2.760   6.276  19.142  0.00  0.00    +0.000 NA
ATOM     19  C   UNL     1       1.964   5.646  18.067  0.00  0.00    +0.000 C 
BRANCH  14  20
ATOM     20  C   UNL     1       1.093   3.732  19.553  0.00  0.00    +0.000 C 
BRANCH  20  21
ATOM     21  C   UNL     1       1.475   2.350  20.080  0.00  0.00    +0.000 C 
BRANCH  21  23
ATOM     22  O   UNL     1       3.037   2.393  21.916  0.00  0.00    +0.000 OA
ATOM     23  C   UNL     1       1.875   2.401  21.530  0.00  0.00    +0.000 C 
BRANCH  23  24
ATOM     24  O   UNL     1       0.825   2.418  22.380  0.00  0.00    +0.000 OA
ATOM     25  H   UNL     1       0.198   1.683  22.241  0.00  0.00    +0.000 HD
ENDBRANCH  23  24
ENDBRANCH  21  23
ENDBRANCH  20  21
ENDBRANCH  14  20
ENDBRANCH   1  18
TORSDOF 6
ENDMDL
MODEL 4
REMARK VINA RESULT:      -6.7      2.487      3.608
REMARK  Name = 
REMARK  6 active torsions:
REMARK  status: ('A' for Active; 'I' for Inactive)
REMARK    1  A    between atoms: C_2  and  O_3
REMARK    2  A    between atoms: C_2  and  C_4
REMARK    3  A    between atoms: C_4  and  C_5
REMARK    4  A    between atoms: C_5  and  C_6
REMARK    5  A    between atoms: N_10  and  C_11
REMARK    6  A    between atoms: N_14  and  C_15
REMARK                            x       y       z     vdW  Elec       q    Type
REMARK                         _______ _______ _______ _____ _____    ______ ____
ROOT
ATOM      1  C   UNL     1       2.874   7.502  18.426  0.00  0.00    +0.000 C 
ATOM      2  C   UNL     1       2.185   8.492  17.474  0.00  0.00    +0.000 C 
ATOM      3  C   UNL     1       1.596   9.527  18.413  0.00  0.00    +0.000 C 
ATOM      4  N   UNL     1       1.240   8.763  19.585  0.00  0.00    +0.000 N 
ATOM      5  C   UNL     1       2.060   7.639  19.722  0.00  0.00    +0.000 C 
ATOM      6  O   UNL     1       2.151   6.927  20.712  0.00  0.00    +0.000 OA
ENDROOT
BRANCH   4   7
ATOM      7  C   UNL     1       0.611   9.393  20.682  0.00  0.00    +0.000 A 
ATOM      8  C   UNL     1      -0.061   8.615  21.638  0.00  0.00    +0.000 A 
ATOM      9  C   UNL     1      -0.677   9.216  22.737  0.00  0.00    +0.000 A 
ATOM     10  C   UNL     1      -0.649  10.601  22.879  0.00  0.00    +0.000 A 
ATOM     11  C   UNL     1      -0.007  11.388  21.923  0.00  0.00    +0.000 A 
ATOM     12  C   UNL     1       0.628  10.789  20.830  0.00  0.00    +0.000 A 
ATOM     13 CL   UNL     1       1.324  11.830  19.636  0.00  0.00    +0.000 Cl
ENDBRANCH   4   7
BRANCH   1  18
ATOM     14  C   UNL     1       4.586   4.188  17.661  0.00  0.00    +0.000 C 
ATOM     15  C   UNL     1       3.426   3.217  17.942  0.00  0.00    +0.000 C 
ATOM     16  C   UNL     1       2.078   3.840  17.588  0.00  0.00    +0.000 C 
ATOM     17  C   UNL     1       1.904   5.226  18.220  0.00  0.00    +0.000 C 
ATOM     18  N   UNL     1       3.032   6.122  17.896  0.00  0.00    +0.000 NA
ATOM     19  C   UNL     1       4.291   5.517  18.378  0.00  0.00    +0.000 C 
BRANCH  14  20
ATOM     20  C   UNL     1       4.824   4.350  16.145  0.00  0.00    +0.000 C 
BRANCH  20  21
ATOM     21  C   UNL     1       6.235   3.956  15.711  0.00  0.00    +0.000 C 
BRANCH  21  23
ATOM     22  O   UNL     1       7.434   5.999  16.159  0.00  0.00    +0.000 OA
ATOM     23  C   UNL     1       7.279   4.806  16.384  0.00  0.00    +0.000 C 
BRANCH  23  24
ATOM     24  O   UNL     1       8.066   4.118  17.240  0.00  0.00    +0.000 OA
ATOM     25  H   UNL     1       8.757   3.589  16.797  0.00  0.00    +0.000 HD
ENDBRANCH  23  24
ENDBRANCH  21  23
ENDBRANCH  20  21
ENDBRANCH  14  20
ENDBRANCH   1  18
TORSDOF 6
ENDMDL
MODEL 5
REMARK VINA RESULT:      -6.7      3.311      7.502
REMARK  Name = 
REMARK  6 active torsions:
REMARK  status: ('A' for Active; 'I' for Inactive)
REMARK    1  A    between atoms: C_2  and  O_3
REMARK    2  A    between atoms: C_2  and  C_4
REMARK    3  A    between atoms: C_4  and  C_5
REMARK    4  A    between atoms: C_5  and  C_6
REMARK    5  A    between atoms: N_10  and  C_11
REMARK    6  A    between atoms: N_14  and  C_15
REMARK                            x       y       z     vdW  Elec       q    Type
REMARK                         _______ _______ _______ _____ _____    ______ ____
ROOT
ATOM      1  C   UNL     1       1.791   9.239  19.547  0.00  0.00    +0.000 C 
ATOM      2  C   UNL     1       1.425   8.159  20.577  0.00  0.00    +0.000 C 
ATOM      3  C   UNL     1       2.319   6.995  20.195  0.00  0.00    +0.000 C 
ATOM      4  N   UNL     1       2.420   7.097  18.758  0.00  0.00    +0.000 N 
ATOM      5  C   UNL     1       2.265   8.421  18.335  0.00  0.00    +0.000 C 
ATOM      6  O   UNL     1       2.511   8.858  17.219  0.00  0.00    +0.000 OA
ENDROOT
BRANCH   4   7
ATOM      7  C   UNL     1       3.154   6.139  18.025  0.00  0.00    +0.000 A 
ATOM      8  C   UNL     1       4.326   6.525  17.356  0.00  0.00    +0.000 A 
ATOM      9  C   UNL     1       5.074   5.591  16.638  0.00  0.00    +0.000 A 
ATOM     10  C   UNL     1       4.645   4.268  16.558  0.00  0.00    +0.000 A 
ATOM     11  C   UNL     1       3.467   3.877  17.196  0.00  0.00    +0.000 A 
ATOM     12  C   UNL     1       2.725   4.805  17.933  0.00  0.00    +0.000 A 
ATOM     13 CL   UNL     1       1.229   4.273  18.620  0.00  0.00    +0.000 Cl
ENDBRANCH   4   7
BRANCH   1  18
ATOM     14  C   UNL     1      -1.714  10.596  18.941  0.00  0.00    +0.000 C 
ATOM     15  C   UNL     1      -1.649  11.886  19.776  0.00  0.00    +0.000 C 
ATOM     16  C   UNL     1      -0.246  12.486  19.768  0.00  0.00    +0.000 C 
ATOM     17  C   UNL     1       0.823  11.449  20.130  0.00  0.00    +0.000 C 
ATOM     18  N   UNL     1       0.729  10.245  19.282  0.00  0.00    +0.000 NA
ATOM     19  C   UNL     1      -0.612   9.643  19.433  0.00  0.00    +0.000 C 
BRANCH  14  20
ATOM     20  C   UNL     1      -1.629  10.903  17.431  0.00  0.00    +0.000 C 
BRANCH  20  21
ATOM     21  C   UNL     1      -2.322   9.854  16.562  0.00  0.00    +0.000 C 
BRANCH  21  23
ATOM     22  O   UNL     1      -2.866   9.901  14.215  0.00  0.00    +0.000 OA
ATOM     23  C   UNL     1      -2.883  10.459  15.304  0.00  0.00    +0.000 C 
BRANCH  23  24
ATOM     24  O   UNL     1      -3.376  11.705  15.476  0.00  0.00    +0.000 OA
ATOM     25  H   UNL     1      -4.023  11.772  16.205  0.00  0.00    +0.000 HD
ENDBRANCH  23  24
ENDBRANCH  21  23
ENDBRANCH  20  21
ENDBRANCH  14  20
ENDBRANCH   1  18
TORSDOF 6
ENDMDL
MODEL 6
REMARK VINA RESULT:      -6.6      3.331      7.575
REMARK  Name = 
REMARK  6 active torsions:
REMARK  status: ('A' for Active; 'I' for Inactive)
REMARK    1  A    between atoms: C_2  and  O_3
REMARK    2  A    between atoms: C_2  and  C_4
REMARK    3  A    between atoms: C_4  and  C_5
REMARK    4  A    between atoms: C_5  and  C_6
REMARK    5  A    between atoms: N_10  and  C_11
REMARK    6  A    between atoms: N_14  and  C_15
REMARK                            x       y       z     vdW  Elec       q    Type
REMARK                         _______ _______ _______ _____ _____    ______ ____
ROOT
ATOM      1  C   UNL     1       1.867   9.019  19.329  0.00  0.00    +0.000 C 
ATOM      2  C   UNL     1       1.449   7.936  20.335  0.00  0.00    +0.000 C 
ATOM      3  C   UNL     1       2.412   6.801  20.047  0.00  0.00    +0.000 C 
ATOM      4  N   UNL     1       2.634   6.894  18.623  0.00  0.00    +0.000 N 
ATOM      5  C   UNL     1       2.473   8.208  18.173  0.00  0.00    +0.000 C 
ATOM      6  O   UNL     1       2.801   8.643  17.078  0.00  0.00    +0.000 OA
ENDROOT
BRANCH   4   7
ATOM      7  C   UNL     1       3.462   5.955  17.968  0.00  0.00    +0.000 A 
ATOM      8  C   UNL     1       4.791   6.293  17.665  0.00  0.00    +0.000 A 
ATOM      9  C   UNL     1       5.629   5.375  17.030  0.00  0.00    +0.000 A 
ATOM     10  C   UNL     1       5.143   4.121  16.669  0.00  0.00    +0.000 A 
ATOM     11  C   UNL     1       3.817   3.782  16.941  0.00  0.00    +0.000 A 
ATOM     12  C   UNL     1       2.979   4.692  17.594  0.00  0.00    +0.000 A 
ATOM     13 CL   UNL     1       1.323   4.240  17.816  0.00  0.00    +0.000 Cl
ENDBRANCH   4   7
BRANCH   1  18
ATOM     14  C   UNL     1      -1.571  10.655  19.341  0.00  0.00    +0.000 C 
ATOM     15  C   UNL     1      -1.162  12.137  19.306  0.00  0.00    +0.000 C 
ATOM     16  C   UNL     1       0.126  12.342  18.512  0.00  0.00    +0.000 C 
ATOM     17  C   UNL     1       1.239  11.394  18.971  0.00  0.00    +0.000 C 
ATOM     18  N   UNL     1       0.799   9.985  18.961  0.00  0.00    +0.000 NA
ATOM     19  C   UNL     1      -0.374   9.832  19.847  0.00  0.00    +0.000 C 
BRANCH  14  20
ATOM     20  C   UNL     1      -2.098  10.188  17.967  0.00  0.00    +0.000 C 
BRANCH  20  21
ATOM     21  C   UNL     1      -3.609  10.353  17.813  0.00  0.00    +0.000 C 
BRANCH  21  23
ATOM     22  O   UNL     1      -5.067  11.819  16.574  0.00  0.00    +0.000 OA
ATOM     23  C   UNL     1      -3.951  11.341  16.731  0.00  0.00    +0.000 C 
BRANCH  23  24
ATOM     24  O   UNL     1      -2.915  11.626  15.913  0.00  0.00    +0.000 OA
ATOM     25  H   UNL     1      -2.992  12.494  15.472  0.00  0.00    +0.000 HD
ENDBRANCH  23  24
ENDBRANCH  21  23
ENDBRANCH  20  21
ENDBRANCH  14  20
ENDBRANCH   1  18
TORSDOF 6
ENDMDL
MODEL 7
REMARK VINA RESULT:      -6.5      2.998      7.114
REMARK  Name = 
REMARK  6 active torsions:
REMARK  status: ('A' for Active; 'I' for Inactive)
REMARK    1  A    between atoms: C_2  and  O_3
REMARK    2  A    between atoms: C_2  and  C_4
REMARK    3  A    between atoms: C_4  and  C_5
REMARK    4  A    between atoms: C_5  and  C_6
REMARK    5  A    between atoms: N_10  and  C_11
REMARK    6  A    between atoms: N_14  and  C_15
REMARK                            x       y       z     vdW  Elec       q    Type
REMARK                         _______ _______ _______ _____ _____    ______ ____
ROOT
ATOM      1  C   UNL     1       1.468   9.178  19.610  0.00  0.00    +0.000 C 
ATOM      2  C   UNL     1       1.242   8.018  20.592  0.00  0.00    +0.000 C 
ATOM      3  C   UNL     1       2.278   6.995  20.168  0.00  0.00    +0.000 C 
ATOM      4  N   UNL     1       2.366   7.169  18.738  0.00  0.00    +0.000 N 
ATOM      5  C   UNL     1       2.044   8.479  18.368  0.00  0.00    +0.000 C 
ATOM      6  O   UNL     1       2.233   8.989  17.273  0.00  0.00    +0.000 OA
ENDROOT
BRANCH   4   7
ATOM      7  C   UNL     1       3.218   6.344  17.970  0.00  0.00    +0.000 A 
ATOM      8  C   UNL     1       4.373   6.888  17.388  0.00  0.00    +0.000 A 
ATOM      9  C   UNL     1       5.235   6.087  16.638  0.00  0.00    +0.000 A 
ATOM     10  C   UNL     1       4.939   4.741  16.439  0.00  0.00    +0.000 A 
ATOM     11  C   UNL     1       3.780   4.193  16.990  0.00  0.00    +0.000 A 
ATOM     12  C   UNL     1       2.923   4.987  17.759  0.00  0.00    +0.000 A 
ATOM     13 CL   UNL     1       1.459   4.266  18.333  0.00  0.00    +0.000 Cl
ENDBRANCH   4   7
BRANCH   1  18
ATOM     14  C   UNL     1      -0.542  12.400  19.330  0.00  0.00    +0.000 C 
ATOM     15  C   UNL     1      -1.389  12.079  18.086  0.00  0.00    +0.000 C 
ATOM     16  C   UNL     1      -1.722  10.592  18.006  0.00  0.00    +0.000 C 
ATOM     17  C   UNL     1      -0.473   9.716  18.158  0.00  0.00    +0.000 C 
ATOM     18  N   UNL     1       0.286  10.050  19.380  0.00  0.00    +0.000 NA
ATOM     19  C   UNL     1       0.685  11.472  19.334  0.00  0.00    +0.000 C 
BRANCH  14  20
ATOM     20  C   UNL     1      -1.385  12.306  20.620  0.00  0.00    +0.000 C 
BRANCH  20  21
ATOM     21  C   UNL     1      -0.541  12.306  21.893  0.00  0.00    +0.000 C 
BRANCH  21  23
ATOM     22  O   UNL     1      -2.223  11.392  23.358  0.00  0.00    +0.000 OA
ATOM     23  C   UNL     1      -1.082  11.345  22.916  0.00  0.00    +0.000 C 
BRANCH  23  24
ATOM     24  O   UNL     1      -0.174  10.439  23.340  0.00  0.00    +0.000 OA
ATOM     25  H   UNL     1       0.712  10.817  23.497  0.00  0.00    +0.000 HD
ENDBRANCH  23  24
ENDBRANCH  21  23
ENDBRANCH  20  21
ENDBRANCH  14  20
ENDBRANCH   1  18
TORSDOF 6
ENDMDL
MODEL 8
REMARK VINA RESULT:      -6.5      2.698      3.770
REMARK  Name = 
REMARK  6 active torsions:
REMARK  status: ('A' for Active; 'I' for Inactive)
REMARK    1  A    between atoms: C_2  and  O_3
REMARK    2  A    between atoms: C_2  and  C_4
REMARK    3  A    between atoms: C_4  and  C_5
REMARK    4  A    between atoms: C_5  and  C_6
REMARK    5  A    between atoms: N_10  and  C_11
REMARK    6  A    between atoms: N_14  and  C_15
REMARK                            x       y       z     vdW  Elec       q    Type
REMARK                         _______ _______ _______ _____ _____    ______ ____
ROOT
ATOM      1  C   UNL     1       1.669   7.380  18.928  0.00  0.00    +0.000 C 
ATOM      2  C   UNL     1       1.733   7.683  20.433  0.00  0.00    +0.000 C 
ATOM      3  C   UNL     1       1.072   9.043  20.544  0.00  0.00    +0.000 C 
ATOM      4  N   UNL     1       1.440   9.704  19.315  0.00  0.00    +0.000 N 
ATOM      5  C   UNL     1       1.658   8.778  18.290  0.00  0.00    +0.000 C 
ATOM      6  O   UNL     1       1.767   9.030  17.098  0.00  0.00    +0.000 OA
ENDROOT
BRANCH   4   7
ATOM      7  C   UNL     1       1.034  11.035  19.072  0.00  0.00    +0.000 A 
ATOM      8  C   UNL     1       1.955  12.083  19.230  0.00  0.00    +0.000 A 
ATOM      9  C   UNL     1       1.579  13.403  18.982  0.00  0.00    +0.000 A 
ATOM     10  C   UNL     1       0.272  13.695  18.598  0.00  0.00    +0.000 A 
ATOM     11  C   UNL     1      -0.661  12.665  18.463  0.00  0.00    +0.000 A 
ATOM     12  C   UNL     1      -0.283  11.338  18.692  0.00  0.00    +0.000 A 
ATOM     13 CL   UNL     1      -1.513  10.125  18.596  0.00  0.00    +0.000 Cl
ENDBRANCH   4   7
BRANCH   1  18
ATOM     14  C   UNL     1       4.927   5.409  18.897  0.00  0.00    +0.000 C 
ATOM     15  C   UNL     1       4.419   4.062  18.357  0.00  0.00    +0.000 C 
ATOM     16  C   UNL     1       3.266   4.253  17.374  0.00  0.00    +0.000 C 
ATOM     17  C   UNL     1       2.167   5.154  17.949  0.00  0.00    +0.000 C 
ATOM     18  N   UNL     1       2.708   6.442  18.428  0.00  0.00    +0.000 NA
ATOM     19  C   UNL     1       3.728   6.188  19.466  0.00  0.00    +0.000 C 
BRANCH  14  20
ATOM     20  C   UNL     1       5.705   6.188  17.815  0.00  0.00    +0.000 C 
BRANCH  20  21
ATOM     21  C   UNL     1       7.129   6.546  18.237  0.00  0.00    +0.000 C 
BRANCH  21  23
ATOM     22  O   UNL     1       8.147   4.362  18.300  0.00  0.00    +0.000 OA
ATOM     23  C   UNL     1       7.822   5.383  18.892  0.00  0.00    +0.000 C 
BRANCH  23  24
ATOM     24  O   UNL     1       8.022   5.551  20.218  0.00  0.00    +0.000 OA
ATOM     25  H   UNL     1       8.193   4.717  20.696  0.00  0.00    +0.000 HD
ENDBRANCH  23  24
ENDBRANCH  21  23
ENDBRANCH  20  21
ENDBRANCH  14  20
ENDBRANCH   1  18
TORSDOF 6
ENDMDL
MODEL 9
REMARK VINA RESULT:      -6.5      2.189      3.259
REMARK  Name = 
REMARK  6 active torsions:
REMARK  status: ('A' for Active; 'I' for Inactive)
REMARK    1  A    between atoms: C_2  and  O_3
REMARK    2  A    between atoms: C_2  and  C_4
REMARK    3  A    between atoms: C_4  and  C_5
REMARK    4  A    between atoms: C_5  and  C_6
REMARK    5  A    between atoms: N_10  and  C_11
REMARK    6  A    between atoms: N_14  and  C_15
REMARK                            x       y       z     vdW  Elec       q    Type
REMARK                         _______ _______ _______ _____ _____    ______ ____
ROOT
ATOM      1  C   UNL     1       2.996   7.483  18.592  0.00  0.00    +0.000 C 
ATOM      2  C   UNL     1       2.757   8.389  17.374  0.00  0.00    +0.000 C 
ATOM      3  C   UNL     1       2.071   9.603  17.972  0.00  0.00    +0.000 C 
ATOM      4  N   UNL     1       1.288   9.054  19.055  0.00  0.00    +0.000 N 
ATOM      5  C   UNL     1       1.870   7.886  19.555  0.00  0.00    +0.000 C 
ATOM      6  O   UNL     1       1.571   7.317  20.596  0.00  0.00    +0.000 OA
ENDROOT
BRANCH   4   7
ATOM      7  C   UNL     1       0.463   9.895  19.834  0.00  0.00    +0.000 A 
ATOM      8  C   UNL     1       0.807  10.164  21.168  0.00  0.00    +0.000 A 
ATOM      9  C   UNL     1       0.013  11.003  21.951  0.00  0.00    +0.000 A 
ATOM     10  C   UNL     1      -1.147  11.561  21.419  0.00  0.00    +0.000 A 
ATOM     11  C   UNL     1      -1.515  11.280  20.103  0.00  0.00    +0.000 A 
ATOM     12  C   UNL     1      -0.712  10.456  19.308  0.00  0.00    +0.000 A 
ATOM     13 CL   UNL     1      -1.277  10.077  17.717  0.00  0.00    +0.000 Cl
ENDBRANCH   4   7
BRANCH   1  18
ATOM     14  C   UNL     1       4.267   3.904  18.868  0.00  0.00    +0.000 C 
ATOM     15  C   UNL     1       2.941   3.138  18.723  0.00  0.00    +0.000 C 
ATOM     16  C   UNL     1       1.973   3.868  17.797  0.00  0.00    +0.000 C 
ATOM     17  C   UNL     1       1.807   5.342  18.187  0.00  0.00    +0.000 C 
ATOM     18  N   UNL     1       3.108   6.032  18.286  0.00  0.00    +0.000 NA
ATOM     19  C   UNL     1       3.950   5.349  19.291  0.00  0.00    +0.000 C 
BRANCH  14  20
ATOM     20  C   UNL     1       5.109   3.815  17.578  0.00  0.00    +0.000 C 
BRANCH  20  21
ATOM     21  C   UNL     1       6.356   4.696  17.609  0.00  0.00    +0.000 C 
BRANCH  21  23
ATOM     22  O   UNL     1       7.463   5.871  15.819  0.00  0.00    +0.000 OA
ATOM     23  C   UNL     1       6.425   5.601  16.409  0.00  0.00    +0.000 C 
BRANCH  23  24
ATOM     24  O   UNL     1       5.231   6.127  16.059  0.00  0.00    +0.000 OA
ATOM     25  H   UNL     1       4.686   6.402  16.822  0.00  0.00    +0.000 HD
ENDBRANCH  23  24
ENDBRANCH  21  23
ENDBRANCH  20  21
ENDBRANCH  14  20
ENDBRANCH   1  18
TORSDOF 6
ENDMDL
