MODEL 1
REMARK VINA RESULT:      -6.8      0.000      0.000
REMARK  Name = 
REMARK  5 active torsions:
REMARK  status: ('A' for Active; 'I' for Inactive)
REMARK    1  A    between atoms: C_2  and  O_3
REMARK    2  A    between atoms: C_2  and  C_4
REMARK    3  A    between atoms: C_4  and  C_5
REMARK    4  A    between atoms: C_5  and  C_6
REMARK    5  A    between atoms: C_15  and  C_17
REMARK                            x       y       z     vdW  Elec       q    Type
REMARK                         _______ _______ _______ _____ _____    ______ ____
ROOT
ATOM      1  C   UNL     1       4.572   5.801  17.055  0.00  0.00    +0.000 A 
ATOM      2  C   UNL     1       4.267   7.028  17.662  0.00  0.00    +0.000 A 
ATOM      3  C   UNL     1       3.087   6.806  18.333  0.00  0.00    +0.000 A 
ATOM      4  N   UNL     1       2.784   5.490  18.151  0.00  0.00    +0.000 N 
ATOM      5  N   UNL     1       3.673   4.855  17.360  0.00  0.00    +0.000 NA
ATOM      6  C   UNL     1       1.584   4.806  18.585  0.00  0.00    +0.000 C 
ATOM      7  C   UNL     1       1.120   5.063  20.024  0.00  0.00    +0.000 C 
ATOM      8  C   UNL     1       1.912   6.111  20.827  0.00  0.00    +0.000 C 
ATOM      9  N   UNL     1       1.710   7.447  20.292  0.00  0.00    +0.000 N 
ATOM     10  C   UNL     1       0.948   8.372  21.044  0.00  0.00    +0.000 C 
ATOM     11  O   UNL     1       0.435   8.046  22.118  0.00  0.00    +0.000 OA
ATOM     12  C   UNL     1       2.243   7.790  18.976  0.00  0.00    +0.000 C 
ENDROOT
BRANCH  10  13
ATOM     13  C   UNL     1       0.640   9.657  20.445  0.00  0.00    +0.000 A 
ATOM     14  C   UNL     1       1.259  10.852  20.748  0.00  0.00    +0.000 A 
ATOM     15  C   UNL     1       0.638  11.962  20.104  0.00  0.00    +0.000 A 
ATOM     16  C   UNL     1       0.786  13.345  20.287  0.00  0.00    +0.000 A 
ATOM     17  C   UNL     1       0.544  14.192  19.224  0.00  0.00    +0.000 A 
ATOM     18  C   UNL     1      -0.345  13.774  18.252  0.00  0.00    +0.000 A 
ATOM     19  C   UNL     1      -0.911  12.498  18.306  0.00  0.00    +0.000 A 
ATOM     20  C   UNL     1      -0.279  11.560  19.138  0.00  0.00    +0.000 A 
ATOM     21  S   UNL     1      -0.476   9.859  19.158  0.00  0.00    +0.000 S 
ENDBRANCH  10  13
BRANCH   1  22
ATOM     22  C   UNL     1       5.693   5.541  16.112  0.00  0.00    +0.000 C 
BRANCH  22  23
ATOM     23  C   UNL     1       7.032   5.973  16.701  0.00  0.00    +0.000 C 
BRANCH  23  25
ATOM     24  O   UNL     1       7.270   5.139  18.954  0.00  0.00    +0.000 OA
ATOM     25  C   UNL     1       7.483   5.010  17.755  0.00  0.00    +0.000 C 
BRANCH  25  26
ATOM     26  O   UNL     1       8.211   3.986  17.267  0.00  0.00    +0.000 OA
ATOM     27  H   UNL     1       8.626   3.435  17.957  0.00  0.00    +0.000 HD
ENDBRANCH  25  26
ENDBRANCH  23  25
ENDBRANCH  22  23
ENDBRANCH   1  22
TORSDOF 5
ENDMDL
MODEL 2
REMARK VINA RESULT:      -6.8      3.833      8.230
REMARK  Name = 
REMARK  5 active torsions:
REMARK  status: ('A' for Active; 'I' for Inactive)
REMARK    1  A    between atoms: C_2  and  O_3
REMARK    2  A    between atoms: C_2  and  C_4
REMARK    3  A    between atoms: C_4  and  C_5
REMARK    4  A    between atoms: C_5  and  C_6
REMARK    5  A    between atoms: C_15  and  C_17
REMARK                            x       y       z     vdW  Elec       q    Type
REMARK                         _______ _______ _______ _____ _____    ______ ____
ROOT
ATOM      1  C   UNL     1      -2.314  11.231  17.151  0.00  0.00    +0.000 A 
ATOM      2  C   UNL     1      -1.929   9.978  17.650  0.00  0.00    +0.000 A 
ATOM      3  C   UNL     1      -0.816  10.230  18.419  0.00  0.00    +0.000 A 
ATOM      4  N   UNL     1      -0.630  11.580  18.391  0.00  0.00    +0.000 N 
ATOM      5  N   UNL     1      -1.528  12.215  17.610  0.00  0.00    +0.000 NA
ATOM      6  C   UNL     1       0.472  12.318  18.971  0.00  0.00    +0.000 C 
ATOM      7  C   UNL     1       0.875  11.952  20.405  0.00  0.00    +0.000 C 
ATOM      8  C   UNL     1       0.142  10.758  21.043  0.00  0.00    +0.000 C 
ATOM      9  N   UNL     1       0.501   9.510  20.391  0.00  0.00    +0.000 N 
ATOM     10  C   UNL     1       1.303   8.582  21.096  0.00  0.00    +0.000 C 
ATOM     11  O   UNL     1       1.720   8.835  22.229  0.00  0.00    +0.000 OA
ATOM     12  C   UNL     1       0.079   9.262  19.015  0.00  0.00    +0.000 C 
ENDROOT
BRANCH  10  13
ATOM     13  C   UNL     1       1.766   7.400  20.393  0.00  0.00    +0.000 A 
ATOM     14  C   UNL     1       1.514   6.096  20.763  0.00  0.00    +0.000 A 
ATOM     15  C   UNL     1       2.225   5.156  19.959  0.00  0.00    +0.000 A 
ATOM     16  C   UNL     1       2.439   3.778  20.109  0.00  0.00    +0.000 A 
ATOM     17  C   UNL     1       2.642   3.005  18.984  0.00  0.00    +0.000 A 
ATOM     18  C   UNL     1       3.191   3.613  17.870  0.00  0.00    +0.000 A 
ATOM     19  C   UNL     1       3.448   4.986  17.863  0.00  0.00    +0.000 A 
ATOM     20  C   UNL     1       2.804   5.756  18.846  0.00  0.00    +0.000 A 
ATOM     21  S   UNL     1       2.606   7.456  18.898  0.00  0.00    +0.000 S 
ENDBRANCH  10  13
BRANCH   1  22
ATOM     22  C   UNL     1      -3.398  11.489  16.166  0.00  0.00    +0.000 C 
BRANCH  22  23
ATOM     23  C   UNL     1      -4.017  10.189  15.661  0.00  0.00    +0.000 C 
BRANCH  23  25
ATOM     24  O   UNL     1      -2.530   9.955  13.774  0.00  0.00    +0.000 OA
ATOM     25  C   UNL     1      -3.669   9.960  14.222  0.00  0.00    +0.000 C 
BRANCH  25  26
ATOM     26  O   UNL     1      -4.748   9.808  13.429  0.00  0.00    +0.000 OA
ATOM     27  H   UNL     1      -5.596   9.961  13.886  0.00  0.00    +0.000 HD
ENDBRANCH  25  26
ENDBRANCH  23  25
ENDBRANCH  22  23
ENDBRANCH   1  22
TORSDOF 5
ENDMDL
MODEL 3
REMARK VINA RESULT:      -6.7      3.441      8.903
REMARK  Name = 
REMARK  5 active torsions:
REMARK  status: ('A' for Active; 'I' for Inactive)
REMARK    1  A    between atoms: C_2  and  O_3
REMARK    2  A    between atoms: C_2  and  C_4
REMARK    3  A    between atoms: C_4  and  C_5
REMARK    4  A    between atoms: C_5  and  C_6
REMARK    5  A    between atoms: C_15  and  C_17
REMARK                            x       y       z     vdW  Elec       q    Type
REMARK                         _______ _______ _______ _____ _____    ______ ____
ROOT
ATOM      1  C   UNL     1      -0.495  10.411  22.047  0.00  0.00    +0.000 A 
ATOM      2  C   UNL     1       0.461   9.399  21.881  0.00  0.00    +0.000 A 
ATOM      3  C   UNL     1       0.573   9.239  20.519  0.00  0.00    +0.000 A 
ATOM      4  N   UNL     1      -0.248  10.170  19.955  0.00  0.00    +0.000 N 
ATOM      5  N   UNL     1      -0.924  10.892  20.872  0.00  0.00    +0.000 NA
ATOM      6  C   UNL     1      -0.545  10.329  18.548  0.00  0.00    +0.000 C 
ATOM      7  C   UNL     1       0.644  10.298  17.579  0.00  0.00    +0.000 C 
ATOM      8  C   UNL     1       2.022   9.986  18.189  0.00  0.00    +0.000 C 
ATOM      9  N   UNL     1       2.090   8.614  18.662  0.00  0.00    +0.000 N 
ATOM     10  C   UNL     1       2.899   7.692  17.955  0.00  0.00    +0.000 C 
ATOM     11  O   UNL     1       3.509   8.032  16.939  0.00  0.00    +0.000 OA
ATOM     12  C   UNL     1       1.290   8.201  19.811  0.00  0.00    +0.000 C 
ENDROOT
BRANCH  10  13
ATOM     13  C   UNL     1       2.859   6.297  18.353  0.00  0.00    +0.000 A 
ATOM     14  C   UNL     1       1.943   5.364  17.916  0.00  0.00    +0.000 A 
ATOM     15  C   UNL     1       2.071   4.117  18.597  0.00  0.00    +0.000 A 
ATOM     16  C   UNL     1       1.239   2.989  18.636  0.00  0.00    +0.000 A 
ATOM     17  C   UNL     1       1.800   1.750  18.869  0.00  0.00    +0.000 A 
ATOM     18  C   UNL     1       2.972   1.696  19.600  0.00  0.00    +0.000 A 
ATOM     19  C   UNL     1       3.609   2.870  20.012  0.00  0.00    +0.000 A 
ATOM     20  C   UNL     1       3.234   4.056  19.358  0.00  0.00    +0.000 A 
ATOM     21  S   UNL     1       4.046   5.563  19.350  0.00  0.00    +0.000 S 
ENDBRANCH  10  13
BRANCH   1  22
ATOM     22  C   UNL     1      -1.065  10.878  23.340  0.00  0.00    +0.000 C 
BRANCH  22  23
ATOM     23  C   UNL     1      -1.616  12.296  23.230  0.00  0.00    +0.000 C 
BRANCH  23  25
ATOM     24  O   UNL     1      -3.857  12.008  24.080  0.00  0.00    +0.000 OA
ATOM     25  C   UNL     1      -3.111  12.280  23.148  0.00  0.00    +0.000 C 
BRANCH  25  26
ATOM     26  O   UNL     1      -3.581  12.545  21.913  0.00  0.00    +0.000 OA
ATOM     27  H   UNL     1      -2.884  12.750  21.263  0.00  0.00    +0.000 HD
ENDBRANCH  25  26
ENDBRANCH  23  25
ENDBRANCH  22  23
ENDBRANCH   1  22
TORSDOF 5
ENDMDL
MODEL 4
REMARK VINA RESULT:      -6.7      1.420      1.673
REMARK  Name = 
REMARK  5 active torsions:
REMARK  status: ('A' for Active; 'I' for Inactive)
REMARK    1  A    between atoms: C_2  and  O_3
REMARK    2  A    between atoms: C_2  and  C_4
REMARK    3  A    between atoms: C_4  and  C_5
REMARK    4  A    between atoms: C_5  and  C_6
REMARK    5  A    between atoms: C_15  and  C_17
REMARK                            x       y       z     vdW  Elec       q    Type
REMARK                         _______ _______ _______ _____ _____    ______ ____
ROOT
ATOM      1  C   UNL     1       4.654   5.872  16.883  0.00  0.00    +0.000 A 
ATOM      2  C   UNL     1       4.340   7.092  17.500  0.00  0.00    +0.000 A 
ATOM      3  C   UNL     1       3.179   6.847  18.196  0.00  0.00    +0.000 A 
ATOM      4  N   UNL     1       2.896   5.526  18.016  0.00  0.00    +0.000 N 
ATOM      5  N   UNL     1       3.779   4.909  17.203  0.00  0.00    +0.000 NA
ATOM      6  C   UNL     1       1.718   4.819  18.472  0.00  0.00    +0.000 C 
ATOM      7  C   UNL     1       1.280   5.062  19.921  0.00  0.00    +0.000 C 
ATOM      8  C   UNL     1       2.069   6.121  20.711  0.00  0.00    +0.000 C 
ATOM      9  N   UNL     1       1.832   7.455  20.185  0.00  0.00    +0.000 N 
ATOM     10  C   UNL     1       1.069   8.364  20.957  0.00  0.00    +0.000 C 
ATOM     11  O   UNL     1       0.585   8.025  22.040  0.00  0.00    +0.000 OA
ATOM     12  C   UNL     1       2.331   7.813  18.860  0.00  0.00    +0.000 C 
ENDROOT
BRANCH  10  13
ATOM     13  C   UNL     1       0.726   9.645  20.370  0.00  0.00    +0.000 A 
ATOM     14  C   UNL     1       1.339  10.847  20.653  0.00  0.00    +0.000 A 
ATOM     15  C   UNL     1       0.683  11.950  20.030  0.00  0.00    +0.000 A 
ATOM     16  C   UNL     1       0.819  13.335  20.209  0.00  0.00    +0.000 A 
ATOM     17  C   UNL     1       0.532  14.179  19.156  0.00  0.00    +0.000 A 
ATOM     18  C   UNL     1      -0.383  13.750  18.213  0.00  0.00    +0.000 A 
ATOM     19  C   UNL     1      -0.931  12.467  18.284  0.00  0.00    +0.000 A 
ATOM     20  C   UNL     1      -0.259  11.536  19.095  0.00  0.00    +0.000 A 
ATOM     21  S   UNL     1      -0.434   9.834  19.120  0.00  0.00    +0.000 S 
ENDBRANCH  10  13
BRANCH   1  22
ATOM     22  C   UNL     1       5.759   5.636  15.915  0.00  0.00    +0.000 C 
BRANCH  22  23
ATOM     23  C   UNL     1       5.487   4.416  15.040  0.00  0.00    +0.000 C 
BRANCH  23  25
ATOM     24  O   UNL     1       7.332   5.178  13.681  0.00  0.00    +0.000 OA
ATOM     25  C   UNL     1       6.489   4.325  13.931  0.00  0.00    +0.000 C 
BRANCH  25  26
ATOM     26  O   UNL     1       6.348   3.220  13.173  0.00  0.00    +0.000 OA
ATOM     27  H   UNL     1       5.886   2.489  13.626  0.00  0.00    +0.000 HD
ENDBRANCH  25  26
ENDBRANCH  23  25
ENDBRANCH  22  23
ENDBRANCH   1  22
TORSDOF 5
ENDMDL
MODEL 5
REMARK VINA RESULT:      -6.7      4.061      8.165
REMARK  Name = 
REMARK  5 active torsions:
REMARK  status: ('A' for Active; 'I' for Inactive)
REMARK    1  A    between atoms: C_2  and  O_3
REMARK    2  A    between atoms: C_2  and  C_4
REMARK    3  A    between atoms: C_4  and  C_5
REMARK    4  A    between atoms: C_5  and  C_6
REMARK    5  A    between atoms: C_15  and  C_17
REMARK                            x       y       z     vdW  Elec       q    Type
REMARK                         _______ _______ _______ _____ _____    ______ ____
ROOT
ATOM      1  C   UNL     1      -2.464  10.982  16.652  0.00  0.00    +0.000 A 
ATOM      2  C   UNL     1      -1.841   9.773  16.996  0.00  0.00    +0.000 A 
ATOM      3  C   UNL     1      -0.890  10.120  17.928  0.00  0.00    +0.000 A 
ATOM      4  N   UNL     1      -1.025  11.461  18.133  0.00  0.00    +0.000 N 
ATOM      5  N   UNL     1      -1.976  12.014  17.352  0.00  0.00    +0.000 NA
ATOM      6  C   UNL     1      -0.183  12.304  18.954  0.00  0.00    +0.000 C 
ATOM      7  C   UNL     1       0.167  11.783  20.354  0.00  0.00    +0.000 C 
ATOM      8  C   UNL     1      -0.317  10.365  20.703  0.00  0.00    +0.000 C 
ATOM      9  N   UNL     1       0.381   9.362  19.916  0.00  0.00    +0.000 N 
ATOM     10  C   UNL     1       1.315   8.519  20.565  0.00  0.00    +0.000 C 
ATOM     11  O   UNL     1       1.559   8.650  21.767  0.00  0.00    +0.000 OA
ATOM     12  C   UNL     1       0.152   9.279  18.476  0.00  0.00    +0.000 C 
ENDROOT
BRANCH  10  13
ATOM     13  C   UNL     1       2.102   7.611  19.752  0.00  0.00    +0.000 A 
ATOM     14  C   UNL     1       2.303   6.272  20.011  0.00  0.00    +0.000 A 
ATOM     15  C   UNL     1       3.243   5.682  19.114  0.00  0.00    +0.000 A 
ATOM     16  C   UNL     1       3.898   4.442  19.138  0.00  0.00    +0.000 A 
ATOM     17  C   UNL     1       4.289   3.867  17.946  0.00  0.00    +0.000 A 
ATOM     18  C   UNL     1       4.560   4.705  16.880  0.00  0.00    +0.000 A 
ATOM     19  C   UNL     1       4.358   6.083  16.989  0.00  0.00    +0.000 A 
ATOM     20  C   UNL     1       3.545   6.522  18.048  0.00  0.00    +0.000 A 
ATOM     21  S   UNL     1       2.810   8.054  18.253  0.00  0.00    +0.000 S 
ENDBRANCH  10  13
BRANCH   1  22
ATOM     22  C   UNL     1      -3.488  11.170  15.589  0.00  0.00    +0.000 C 
BRANCH  22  23
ATOM     23  C   UNL     1      -3.860   9.847  14.928  0.00  0.00    +0.000 C 
BRANCH  23  25
ATOM     24  O   UNL     1      -4.515  10.018  12.611  0.00  0.00    +0.000 OA
ATOM     25  C   UNL     1      -3.629   9.909  13.450  0.00  0.00    +0.000 C 
BRANCH  25  26
ATOM     26  O   UNL     1      -2.333   9.778  13.104  0.00  0.00    +0.000 OA
ATOM     27  H   UNL     1      -2.188   9.712  12.142  0.00  0.00    +0.000 HD
ENDBRANCH  25  26
ENDBRANCH  23  25
ENDBRANCH  22  23
ENDBRANCH   1  22
TORSDOF 5
ENDMDL
MODEL 6
REMARK VINA RESULT:      -6.7      4.004      8.104
REMARK  Name = 
REMARK  5 active torsions:
REMARK  status: ('A' for Active; 'I' for Inactive)
REMARK    1  A    between atoms: C_2  and  O_3
REMARK    2  A    between atoms: C_2  and  C_4
REMARK    3  A    between atoms: C_4  and  C_5
REMARK    4  A    between atoms: C_5  and  C_6
REMARK    5  A    between atoms: C_15  and  C_17
REMARK                            x       y       z     vdW  Elec       q    Type
REMARK                         _______ _______ _______ _____ _____    ______ ____
ROOT
ATOM      1  C   UNL     1      -2.310  11.054  16.787  0.00  0.00    +0.000 A 
ATOM      2  C   UNL     1      -1.793   9.818  17.201  0.00  0.00    +0.000 A 
ATOM      3  C   UNL     1      -0.830  10.133  18.132  0.00  0.00    +0.000 A 
ATOM      4  N   UNL     1      -0.857  11.488  18.268  0.00  0.00    +0.000 N 
ATOM      5  N   UNL     1      -1.748  12.077  17.443  0.00  0.00    +0.000 NA
ATOM      6  C   UNL     1       0.041  12.301  19.061  0.00  0.00    +0.000 C 
ATOM      7  C   UNL     1       0.328  11.825  20.490  0.00  0.00    +0.000 C 
ATOM      8  C   UNL     1      -0.276  10.470  20.900  0.00  0.00    +0.000 C 
ATOM      9  N   UNL     1       0.348   9.375  20.176  0.00  0.00    +0.000 N 
ATOM     10  C   UNL     1       1.200   8.493  20.882  0.00  0.00    +0.000 C 
ATOM     11  O   UNL     1       1.438   8.664  22.081  0.00  0.00    +0.000 OA
ATOM     12  C   UNL     1       0.132   9.238  18.739  0.00  0.00    +0.000 C 
ENDROOT
BRANCH  10  13
ATOM     13  C   UNL     1       1.921   7.484  20.129  0.00  0.00    +0.000 A 
ATOM     14  C   UNL     1       2.799   7.730  19.095  0.00  0.00    +0.000 A 
ATOM     15  C   UNL     1       3.235   6.532  18.457  0.00  0.00    +0.000 A 
ATOM     16  C   UNL     1       3.934   6.316  17.259  0.00  0.00    +0.000 A 
ATOM     17  C   UNL     1       4.717   5.188  17.133  0.00  0.00    +0.000 A 
ATOM     18  C   UNL     1       4.370   4.072  17.872  0.00  0.00    +0.000 A 
ATOM     19  C   UNL     1       3.310   4.121  18.780  0.00  0.00    +0.000 A 
ATOM     20  C   UNL     1       2.873   5.397  19.175  0.00  0.00    +0.000 A 
ATOM     21  S   UNL     1       1.880   5.811  20.506  0.00  0.00    +0.000 S 
ENDBRANCH  10  13
BRANCH   1  22
ATOM     22  C   UNL     1      -3.301  11.271  15.698  0.00  0.00    +0.000 C 
BRANCH  22  23
ATOM     23  C   UNL     1      -3.812   9.949  15.134  0.00  0.00    +0.000 C 
BRANCH  23  25
ATOM     24  O   UNL     1      -4.615   9.941  12.857  0.00  0.00    +0.000 OA
ATOM     25  C   UNL     1      -3.676   9.920  13.643  0.00  0.00    +0.000 C 
BRANCH  25  26
ATOM     26  O   UNL     1      -2.399   9.812  13.225  0.00  0.00    +0.000 OA
ATOM     27  H   UNL     1      -2.222  10.267  12.381  0.00  0.00    +0.000 HD
ENDBRANCH  25  26
ENDBRANCH  23  25
ENDBRANCH  22  23
ENDBRANCH   1  22
TORSDOF 5
ENDMDL
MODEL 7
REMARK VINA RESULT:      -6.6      6.289      8.541
REMARK  Name = 
REMARK  5 active torsions:
REMARK  status: ('A' for Active; 'I' for Inactive)
REMARK    1  A    between atoms: C_2  and  O_3
REMARK    2  A    between atoms: C_2  and  C_4
REMARK    3  A    between atoms: C_4  and  C_5
REMARK    4  A    between atoms: C_5  and  C_6
REMARK    5  A    between atoms: C_15  and  C_17
REMARK                            x       y       z     vdW  Elec       q    Type
REMARK                         _______ _______ _______ _____ _____    ______ ____
ROOT
ATOM      1  C   UNL     1      -2.448  10.224  16.727  0.00  0.00    +0.000 A 
ATOM      2  C   UNL     1      -3.153  11.254  17.366  0.00  0.00    +0.000 A 
ATOM      3  C   UNL     1      -2.456  11.489  18.529  0.00  0.00    +0.000 A 
ATOM      4  N   UNL     1      -1.375  10.660  18.503  0.00  0.00    +0.000 N 
ATOM      5  N   UNL     1      -1.355   9.864  17.414  0.00  0.00    +0.000 NA
ATOM      6  C   UNL     1      -0.399  10.470  19.554  0.00  0.00    +0.000 C 
ATOM      7  C   UNL     1       0.164  11.735  20.215  0.00  0.00    +0.000 C 
ATOM      8  C   UNL     1      -0.451  13.075  19.774  0.00  0.00    +0.000 C 
ATOM      9  N   UNL     1      -1.830  13.193  20.217  0.00  0.00    +0.000 N 
ATOM     10  C   UNL     1      -2.137  14.115  21.246  0.00  0.00    +0.000 C 
ATOM     11  O   UNL     1      -1.251  14.785  21.782  0.00  0.00    +0.000 OA
ATOM     12  C   UNL     1      -2.855  12.328  19.639  0.00  0.00    +0.000 C 
ENDROOT
BRANCH  10  13
ATOM     13  C   UNL     1      -3.488  14.133  21.773  0.00  0.00    +0.000 A 
ATOM     14  C   UNL     1      -3.939  13.400  22.850  0.00  0.00    +0.000 A 
ATOM     15  C   UNL     1      -5.349  13.517  23.035  0.00  0.00    +0.000 A 
ATOM     16  C   UNL     1      -6.244  12.799  23.841  0.00  0.00    +0.000 A 
ATOM     17  C   UNL     1      -7.394  13.420  24.284  0.00  0.00    +0.000 A 
ATOM     18  C   UNL     1      -7.916  14.442  23.514  0.00  0.00    +0.000 A 
ATOM     19  C   UNL     1      -7.248  14.885  22.369  0.00  0.00    +0.000 A 
ATOM     20  C   UNL     1      -5.895  14.526  22.248  0.00  0.00    +0.000 A 
ATOM     21  S   UNL     1      -4.716  15.185  21.197  0.00  0.00    +0.000 S 
ENDBRANCH  10  13
BRANCH   1  22
ATOM     22  C   UNL     1      -2.858   9.520  15.482  0.00  0.00    +0.000 C 
BRANCH  22  23
ATOM     23  C   UNL     1      -3.584  10.457  14.521  0.00  0.00    +0.000 C 
BRANCH  23  25
ATOM     24  O   UNL     1      -4.611   9.677  12.481  0.00  0.00    +0.000 OA
ATOM     25  C   UNL     1      -3.598   9.889  13.136  0.00  0.00    +0.000 C 
BRANCH  25  26
ATOM     26  O   UNL     1      -2.372   9.571  12.676  0.00  0.00    +0.000 OA
ATOM     27  H   UNL     1      -1.909   8.905  13.218  0.00  0.00    +0.000 HD
ENDBRANCH  25  26
ENDBRANCH  23  25
ENDBRANCH  22  23
ENDBRANCH   1  22
TORSDOF 5
ENDMDL
MODEL 8
REMARK VINA RESULT:      -6.6      7.992      9.415
REMARK  Name = 
REMARK  5 active torsions:
REMARK  status: ('A' for Active; 'I' for Inactive)
REMARK    1  A    between atoms: C_2  and  O_3
REMARK    2  A    between atoms: C_2  and  C_4
REMARK    3  A    between atoms: C_4  and  C_5
REMARK    4  A    between atoms: C_5  and  C_6
REMARK    5  A    between atoms: C_15  and  C_17
REMARK                            x       y       z     vdW  Elec       q    Type
REMARK                         _______ _______ _______ _____ _____    ______ ____
ROOT
ATOM      1  C   UNL     1      -3.578  11.353  16.972  0.00  0.00    +0.000 A 
ATOM      2  C   UNL     1      -3.275  11.549  18.327  0.00  0.00    +0.000 A 
ATOM      3  C   UNL     1      -4.441  12.019  18.885  0.00  0.00    +0.000 A 
ATOM      4  N   UNL     1      -5.369  12.026  17.887  0.00  0.00    +0.000 N 
ATOM      5  N   UNL     1      -4.860  11.634  16.700  0.00  0.00    +0.000 NA
ATOM      6  C   UNL     1      -6.723  12.531  17.962  0.00  0.00    +0.000 C 
ATOM      7  C   UNL     1      -7.550  12.123  19.187  0.00  0.00    +0.000 C 
ATOM      8  C   UNL     1      -6.820  11.310  20.271  0.00  0.00    +0.000 C 
ATOM      9  N   UNL     1      -5.816  12.115  20.946  0.00  0.00    +0.000 N 
ATOM     10  C   UNL     1      -6.045  12.504  22.287  0.00  0.00    +0.000 C 
ATOM     11  O   UNL     1      -7.090  12.198  22.866  0.00  0.00    +0.000 OA
ATOM     12  C   UNL     1      -4.626  12.550  20.219  0.00  0.00    +0.000 C 
ENDROOT
BRANCH  10  13
ATOM     13  C   UNL     1      -5.102  13.415  22.909  0.00  0.00    +0.000 A 
ATOM     14  C   UNL     1      -5.227  14.787  22.960  0.00  0.00    +0.000 A 
ATOM     15  C   UNL     1      -4.070  15.417  23.507  0.00  0.00    +0.000 A 
ATOM     16  C   UNL     1      -3.674  16.762  23.546  0.00  0.00    +0.000 A 
ATOM     17  C   UNL     1      -2.859  17.191  24.573  0.00  0.00    +0.000 A 
ATOM     18  C   UNL     1      -2.017  16.267  25.162  0.00  0.00    +0.000 A 
ATOM     19  C   UNL     1      -2.057  14.923  24.782  0.00  0.00    +0.000 A 
ATOM     20  C   UNL     1      -3.199  14.497  24.082  0.00  0.00    +0.000 A 
ATOM     21  S   UNL     1      -3.730  12.895  23.799  0.00  0.00    +0.000 S 
ENDBRANCH  10  13
BRANCH   1  22
ATOM     22  C   UNL     1      -2.618  10.965  15.903  0.00  0.00    +0.000 C 
BRANCH  22  23
ATOM     23  C   UNL     1      -3.008   9.640  15.255  0.00  0.00    +0.000 C 
BRANCH  23  25
ATOM     24  O   UNL     1      -4.470  10.018  13.372  0.00  0.00    +0.000 OA
ATOM     25  C   UNL     1      -3.341   9.834  13.808  0.00  0.00    +0.000 C 
BRANCH  25  26
ATOM     26  O   UNL     1      -2.270   9.735  12.995  0.00  0.00    +0.000 OA
ATOM     27  H   UNL     1      -1.964  10.591  12.643  0.00  0.00    +0.000 HD
ENDBRANCH  25  26
ENDBRANCH  23  25
ENDBRANCH  22  23
ENDBRANCH   1  22
TORSDOF 5
ENDMDL
MODEL 9
REMARK VINA RESULT:      -6.6      4.582      8.369
REMARK  Name = 
REMARK  5 active torsions:
REMARK  status: ('A' for Active; 'I' for Inactive)
REMARK    1  A    between atoms: C_2  and  O_3
REMARK    2  A    between atoms: C_2  and  C_4
REMARK    3  A    between atoms: C_4  and  C_5
REMARK    4  A    between atoms: C_5  and  C_6
REMARK    5  A    between atoms: C_15  and  C_17
REMARK                            x       y       z     vdW  Elec       q    Type
REMARK                         _______ _______ _______ _____ _____    ______ ____
ROOT
ATOM      1  C   UNL     1      -2.975  10.609  15.959  0.00  0.00    +0.000 A 
ATOM      2  C   UNL     1      -2.237   9.536  16.479  0.00  0.00    +0.000 A 
ATOM      3  C   UNL     1      -1.370  10.109  17.381  0.00  0.00    +0.000 A 
ATOM      4  N   UNL     1      -1.661  11.441  17.400  0.00  0.00    +0.000 N 
ATOM      5  N   UNL     1      -2.634  11.774  16.526  0.00  0.00    +0.000 NA
ATOM      6  C   UNL     1      -0.952  12.476  18.122  0.00  0.00    +0.000 C 
ATOM      7  C   UNL     1      -0.605  12.187  19.587  0.00  0.00    +0.000 C 
ATOM      8  C   UNL     1      -0.944  10.780  20.112  0.00  0.00    +0.000 C 
ATOM      9  N   UNL     1      -0.106   9.770  19.486  0.00  0.00    +0.000 N 
ATOM     10  C   UNL     1       0.887   9.132  20.267  0.00  0.00    +0.000 C 
ATOM     11  O   UNL     1       1.065   9.446  21.446  0.00  0.00    +0.000 OA
ATOM     12  C   UNL     1      -0.265   9.473  18.065  0.00  0.00    +0.000 C 
ENDROOT
BRANCH  10  13
ATOM     13  C   UNL     1       1.803   8.223  19.605  0.00  0.00    +0.000 A 
ATOM     14  C   UNL     1       2.137   6.959  20.045  0.00  0.00    +0.000 A 
ATOM     15  C   UNL     1       3.173   6.369  19.262  0.00  0.00    +0.000 A 
ATOM     16  C   UNL     1       3.958   5.225  19.469  0.00  0.00    +0.000 A 
ATOM     17  C   UNL     1       4.461   4.550  18.376  0.00  0.00    +0.000 A 
ATOM     18  C   UNL     1       4.685   5.269  17.217  0.00  0.00    +0.000 A 
ATOM     19  C   UNL     1       4.330   6.618  17.136  0.00  0.00    +0.000 A 
ATOM     20  C   UNL     1       3.429   7.094  18.103  0.00  0.00    +0.000 A 
ATOM     21  S   UNL     1       2.524   8.547  18.082  0.00  0.00    +0.000 S 
ENDBRANCH  10  13
BRANCH   1  22
ATOM     22  C   UNL     1      -3.969  10.537  14.854  0.00  0.00    +0.000 C 
BRANCH  22  23
ATOM     23  C   UNL     1      -3.376   9.884  13.609  0.00  0.00    +0.000 C 
BRANCH  23  25
ATOM     24  O   UNL     1      -5.525   9.327  12.660  0.00  0.00    +0.000 OA
ATOM     25  C   UNL     1      -4.400   9.791  12.520  0.00  0.00    +0.000 C 
BRANCH  25  26
ATOM     26  O   UNL     1      -3.951  10.224  11.326  0.00  0.00    +0.000 OA
ATOM     27  H   UNL     1      -3.000  10.444  11.320  0.00  0.00    +0.000 HD
ENDBRANCH  25  26
ENDBRANCH  23  25
ENDBRANCH  22  23
ENDBRANCH   1  22
TORSDOF 5
ENDMDL
