MODEL 1
REMARK VINA RESULT:      -6.8      0.000      0.000
REMARK  Name = 
REMARK  4 active torsions:
REMARK  status: ('A' for Active; 'I' for Inactive)
REMARK    1  A    between atoms: C_1  and  C_2
REMARK    2  A    between atoms: C_2  and  C_3
REMARK    3  A    between atoms: C_5  and  C_6
REMARK    4  A    between atoms: C_6  and  N_7
REMARK                            x       y       z     vdW  Elec       q    Type
REMARK                         _______ _______ _______ _____ _____    ______ ____
ROOT
ATOM      1  N   UNL     1       3.983   4.416  17.397  0.00  0.00    +0.000 N 
ATOM      2  N   UNL     1       4.136   3.022  17.399  0.00  0.00    +0.000 NA
ATOM      3  C   UNL     1       3.435   2.320  18.237  0.00  0.00    +0.000 A 
ATOM      4  N   UNL     1       2.544   2.922  19.110  0.00  0.00    +0.000 N 
ATOM      5  C   UNL     1       1.733   2.332  20.046  0.00  0.00    +0.000 A 
ATOM      6  C   UNL     1       1.021   3.329  20.680  0.00  0.00    +0.000 A 
ATOM      7  C   UNL     1       1.409   4.562  20.097  0.00  0.00    +0.000 A 
ATOM      8  C   UNL     1       2.353   4.276  19.131  0.00  0.00    +0.000 A 
ATOM      9  C   UNL     1       3.098   5.119  18.232  0.00  0.00    +0.000 A 
ATOM     10  O   UNL     1       2.967   6.340  18.202  0.00  0.00    +0.000 OA
ENDROOT
BRANCH   1  11
ATOM     11  C   UNL     1       4.830   5.166  16.473  0.00  0.00    +0.000 C 
BRANCH  11  14
ATOM     12  C   UNL     1       7.336   7.498  17.651  0.00  0.00    +0.000 A 
ATOM     13  N   UNL     1       6.299   7.127  16.934  0.00  0.00    +0.000 NA
ATOM     14  C   UNL     1       5.964   5.808  17.215  0.00  0.00    +0.000 A 
ATOM     15  C   UNL     1       6.744   5.219  18.194  0.00  0.00    +0.000 A 
ATOM     16  S   UNL     1       7.922   6.324  18.760  0.00  0.00    +0.000 S 
BRANCH  12  18
ATOM     17  C   UNL     1       8.765   9.183  18.783  0.00  0.00    +0.000 C 
ATOM     18  C   UNL     1       8.012   8.824  17.510  0.00  0.00    +0.000 C 
ENDBRANCH  12  18
ENDBRANCH  11  14
ENDBRANCH   1  11
TORSDOF 3
ENDMDL
MODEL 2
REMARK VINA RESULT:      -6.7      1.730      2.041
REMARK  Name = 
REMARK  4 active torsions:
REMARK  status: ('A' for Active; 'I' for Inactive)
REMARK    1  A    between atoms: C_1  and  C_2
REMARK    2  A    between atoms: C_2  and  C_3
REMARK    3  A    between atoms: C_5  and  C_6
REMARK    4  A    between atoms: C_6  and  N_7
REMARK                            x       y       z     vdW  Elec       q    Type
REMARK                         _______ _______ _______ _____ _____    ______ ____
ROOT
ATOM      1  N   UNL     1       3.343   3.429  17.696  0.00  0.00    +0.000 N 
ATOM      2  N   UNL     1       4.397   2.850  18.417  0.00  0.00    +0.000 NA
ATOM      3  C   UNL     1       4.202   2.537  19.662  0.00  0.00    +0.000 A 
ATOM      4  N   UNL     1       2.980   2.757  20.276  0.00  0.00    +0.000 N 
ATOM      5  C   UNL     1       2.612   2.484  21.569  0.00  0.00    +0.000 A 
ATOM      6  C   UNL     1       1.298   2.876  21.727  0.00  0.00    +0.000 A 
ATOM      7  C   UNL     1       0.858   3.392  20.482  0.00  0.00    +0.000 A 
ATOM      8  C   UNL     1       1.922   3.306  19.606  0.00  0.00    +0.000 A 
ATOM      9  C   UNL     1       2.065   3.681  18.224  0.00  0.00    +0.000 A 
ATOM     10  O   UNL     1       1.150   4.174  17.569  0.00  0.00    +0.000 OA
ENDROOT
BRANCH   1  11
ATOM     11  C   UNL     1       3.626   3.810  16.315  0.00  0.00    +0.000 C 
BRANCH  11  14
ATOM     12  C   UNL     1       6.601   5.822  16.767  0.00  0.00    +0.000 A 
ATOM     13  N   UNL     1       5.373   5.437  17.033  0.00  0.00    +0.000 NA
ATOM     14  C   UNL     1       5.009   4.379  16.209  0.00  0.00    +0.000 A 
ATOM     15  C   UNL     1       6.012   3.951  15.356  0.00  0.00    +0.000 A 
ATOM     16  S   UNL     1       7.423   4.894  15.577  0.00  0.00    +0.000 S 
BRANCH  12  18
ATOM     17  C   UNL     1       7.955   6.604  18.696  0.00  0.00    +0.000 C 
ATOM     18  C   UNL     1       7.258   7.005  17.404  0.00  0.00    +0.000 C 
ENDBRANCH  12  18
ENDBRANCH  11  14
ENDBRANCH   1  11
TORSDOF 3
ENDMDL
MODEL 3
REMARK VINA RESULT:      -6.6      2.505      3.200
REMARK  Name = 
REMARK  4 active torsions:
REMARK  status: ('A' for Active; 'I' for Inactive)
REMARK    1  A    between atoms: C_1  and  C_2
REMARK    2  A    between atoms: C_2  and  C_3
REMARK    3  A    between atoms: C_5  and  C_6
REMARK    4  A    between atoms: C_6  and  N_7
REMARK                            x       y       z     vdW  Elec       q    Type
REMARK                         _______ _______ _______ _____ _____    ______ ____
ROOT
ATOM      1  N   UNL     1       5.161   4.662  18.684  0.00  0.00    +0.000 N 
ATOM      2  N   UNL     1       5.422   3.366  19.152  0.00  0.00    +0.000 NA
ATOM      3  C   UNL     1       4.505   2.755  19.838  0.00  0.00    +0.000 A 
ATOM      4  N   UNL     1       3.285   3.356  20.103  0.00  0.00    +0.000 N 
ATOM      5  C   UNL     1       2.219   2.852  20.803  0.00  0.00    +0.000 A 
ATOM      6  C   UNL     1       1.224   3.809  20.807  0.00  0.00    +0.000 A 
ATOM      7  C   UNL     1       1.706   4.923  20.074  0.00  0.00    +0.000 A 
ATOM      8  C   UNL     1       2.984   4.612  19.654  0.00  0.00    +0.000 A 
ATOM      9  C   UNL     1       3.953   5.351  18.888  0.00  0.00    +0.000 A 
ATOM     10  O   UNL     1       3.739   6.480  18.454  0.00  0.00    +0.000 OA
ENDROOT
BRANCH   1  11
ATOM     11  C   UNL     1       6.242   5.328  17.961  0.00  0.00    +0.000 C 
BRANCH  11  14
ATOM     12  C   UNL     1       7.004   4.971  14.440  0.00  0.00    +0.000 A 
ATOM     13  N   UNL     1       7.236   5.358  15.675  0.00  0.00    +0.000 NA
ATOM     14  C   UNL     1       6.201   4.952  16.510  0.00  0.00    +0.000 A 
ATOM     15  C   UNL     1       5.218   4.211  15.878  0.00  0.00    +0.000 A 
ATOM     16  S   UNL     1       5.584   4.032  14.216  0.00  0.00    +0.000 S 
BRANCH  12  18
ATOM     17  C   UNL     1       7.424   4.607  12.020  0.00  0.00    +0.000 C 
ATOM     18  C   UNL     1       7.871   5.338  13.278  0.00  0.00    +0.000 C 
ENDBRANCH  12  18
ENDBRANCH  11  14
ENDBRANCH   1  11
TORSDOF 3
ENDMDL
MODEL 4
REMARK VINA RESULT:      -6.5      2.710      3.582
REMARK  Name = 
REMARK  4 active torsions:
REMARK  status: ('A' for Active; 'I' for Inactive)
REMARK    1  A    between atoms: C_1  and  C_2
REMARK    2  A    between atoms: C_2  and  C_3
REMARK    3  A    between atoms: C_5  and  C_6
REMARK    4  A    between atoms: C_6  and  N_7
REMARK                            x       y       z     vdW  Elec       q    Type
REMARK                         _______ _______ _______ _____ _____    ______ ____
ROOT
ATOM      1  N   UNL     1       4.926   5.032  18.650  0.00  0.00    +0.000 N 
ATOM      2  N   UNL     1       4.062   6.106  18.390  0.00  0.00    +0.000 NA
ATOM      3  C   UNL     1       2.847   6.050  18.844  0.00  0.00    +0.000 A 
ATOM      4  N   UNL     1       2.402   4.963  19.578  0.00  0.00    +0.000 N 
ATOM      5  C   UNL     1       1.163   4.751  20.126  0.00  0.00    +0.000 A 
ATOM      6  C   UNL     1       1.186   3.529  20.766  0.00  0.00    +0.000 A 
ATOM      7  C   UNL     1       2.488   2.992  20.607  0.00  0.00    +0.000 A 
ATOM      8  C   UNL     1       3.216   3.902  19.866  0.00  0.00    +0.000 A 
ATOM      9  C   UNL     1       4.576   3.893  19.394  0.00  0.00    +0.000 A 
ATOM     10  O   UNL     1       5.355   2.971  19.624  0.00  0.00    +0.000 OA
ENDROOT
BRANCH   1  11
ATOM     11  C   UNL     1       6.267   5.118  18.077  0.00  0.00    +0.000 C 
BRANCH  11  14
ATOM     12  C   UNL     1       7.013   4.939  14.539  0.00  0.00    +0.000 A 
ATOM     13  N   UNL     1       7.247   5.270  15.789  0.00  0.00    +0.000 NA
ATOM     14  C   UNL     1       6.223   4.812  16.610  0.00  0.00    +0.000 A 
ATOM     15  C   UNL     1       5.245   4.089  15.949  0.00  0.00    +0.000 A 
ATOM     16  S   UNL     1       5.603   3.994  14.278  0.00  0.00    +0.000 S 
BRANCH  12  18
ATOM     17  C   UNL     1       7.398   4.726  12.096  0.00  0.00    +0.000 C 
ATOM     18  C   UNL     1       7.868   5.372  13.391  0.00  0.00    +0.000 C 
ENDBRANCH  12  18
ENDBRANCH  11  14
ENDBRANCH   1  11
TORSDOF 3
ENDMDL
MODEL 5
REMARK VINA RESULT:      -6.5      2.217      5.855
REMARK  Name = 
REMARK  4 active torsions:
REMARK  status: ('A' for Active; 'I' for Inactive)
REMARK    1  A    between atoms: C_1  and  C_2
REMARK    2  A    between atoms: C_2  and  C_3
REMARK    3  A    between atoms: C_5  and  C_6
REMARK    4  A    between atoms: C_6  and  N_7
REMARK                            x       y       z     vdW  Elec       q    Type
REMARK                         _______ _______ _______ _____ _____    ______ ____
ROOT
ATOM      1  N   UNL     1       5.653   4.904  17.171  0.00  0.00    +0.000 N 
ATOM      2  N   UNL     1       6.370   4.368  18.251  0.00  0.00    +0.000 NA
ATOM      3  C   UNL     1       7.266   5.107  18.832  0.00  0.00    +0.000 A 
ATOM      4  N   UNL     1       7.513   6.403  18.409  0.00  0.00    +0.000 N 
ATOM      5  C   UNL     1       8.414   7.308  18.910  0.00  0.00    +0.000 A 
ATOM      6  C   UNL     1       8.305   8.468  18.170  0.00  0.00    +0.000 A 
ATOM      7  C   UNL     1       7.296   8.256  17.197  0.00  0.00    +0.000 A 
ATOM      8  C   UNL     1       6.827   6.968  17.370  0.00  0.00    +0.000 A 
ATOM      9  C   UNL     1       5.821   6.208  16.677  0.00  0.00    +0.000 A 
ATOM     10  O   UNL     1       5.169   6.663  15.740  0.00  0.00    +0.000 OA
ENDROOT
BRANCH   1  11
ATOM     11  C   UNL     1       4.693   4.017  16.519  0.00  0.00    +0.000 C 
BRANCH  11  14
ATOM     12  C   UNL     1       2.163   3.717  19.091  0.00  0.00    +0.000 A 
ATOM     13  N   UNL     1       2.919   4.368  18.234  0.00  0.00    +0.000 NA
ATOM     14  C   UNL     1       3.719   3.481  17.524  0.00  0.00    +0.000 A 
ATOM     15  C   UNL     1       3.507   2.149  17.836  0.00  0.00    +0.000 A 
ATOM     16  S   UNL     1       2.302   2.006  19.044  0.00  0.00    +0.000 S 
BRANCH  12  18
ATOM     17  C   UNL     1       1.859   5.709  20.542  0.00  0.00    +0.000 C 
ATOM     18  C   UNL     1       1.265   4.386  20.082  0.00  0.00    +0.000 C 
ENDBRANCH  12  18
ENDBRANCH  11  14
ENDBRANCH   1  11
TORSDOF 3
ENDMDL
MODEL 6
REMARK VINA RESULT:      -6.4      1.774      2.086
REMARK  Name = 
REMARK  4 active torsions:
REMARK  status: ('A' for Active; 'I' for Inactive)
REMARK    1  A    between atoms: C_1  and  C_2
REMARK    2  A    between atoms: C_2  and  C_3
REMARK    3  A    between atoms: C_5  and  C_6
REMARK    4  A    between atoms: C_6  and  N_7
REMARK                            x       y       z     vdW  Elec       q    Type
REMARK                         _______ _______ _______ _____ _____    ______ ____
ROOT
ATOM      1  N   UNL     1       3.878   3.397  17.905  0.00  0.00    +0.000 N 
ATOM      2  N   UNL     1       2.601   3.553  17.347  0.00  0.00    +0.000 NA
ATOM      3  C   UNL     1       1.565   3.422  18.119  0.00  0.00    +0.000 A 
ATOM      4  N   UNL     1       1.705   3.144  19.469  0.00  0.00    +0.000 N 
ATOM      5  C   UNL     1       0.724   2.979  20.414  0.00  0.00    +0.000 A 
ATOM      6  C   UNL     1       1.338   2.715  21.621  0.00  0.00    +0.000 A 
ATOM      7  C   UNL     1       2.738   2.733  21.397  0.00  0.00    +0.000 A 
ATOM      8  C   UNL     1       2.932   2.998  20.055  0.00  0.00    +0.000 A 
ATOM      9  C   UNL     1       4.125   3.127  19.261  0.00  0.00    +0.000 A 
ATOM     10  O   UNL     1       5.254   3.012  19.732  0.00  0.00    +0.000 OA
ENDROOT
BRANCH   1  11
ATOM     11  C   UNL     1       5.010   3.503  16.986  0.00  0.00    +0.000 C 
BRANCH  11  14
ATOM     12  C   UNL     1       6.986   6.461  17.653  0.00  0.00    +0.000 A 
ATOM     13  N   UNL     1       6.688   5.184  17.740  0.00  0.00    +0.000 NA
ATOM     14  C   UNL     1       5.552   4.900  16.992  0.00  0.00    +0.000 A 
ATOM     15  C   UNL     1       5.038   5.986  16.305  0.00  0.00    +0.000 A 
ATOM     16  S   UNL     1       5.979   7.383  16.610  0.00  0.00    +0.000 S 
BRANCH  12  18
ATOM     17  C   UNL     1       8.253   8.567  18.007  0.00  0.00    +0.000 C 
ATOM     18  C   UNL     1       8.090   7.112  18.424  0.00  0.00    +0.000 C 
ENDBRANCH  12  18
ENDBRANCH  11  14
ENDBRANCH   1  11
TORSDOF 3
ENDMDL
MODEL 7
REMARK VINA RESULT:      -6.4      2.165      3.285
REMARK  Name = 
REMARK  4 active torsions:
REMARK  status: ('A' for Active; 'I' for Inactive)
REMARK    1  A    between atoms: C_1  and  C_2
REMARK    2  A    between atoms: C_2  and  C_3
REMARK    3  A    between atoms: C_5  and  C_6
REMARK    4  A    between atoms: C_6  and  N_7
REMARK                            x       y       z     vdW  Elec       q    Type
REMARK                         _______ _______ _______ _____ _____    ______ ____
ROOT
ATOM      1  N   UNL     1       4.119   5.426  18.392  0.00  0.00    +0.000 N 
ATOM      2  N   UNL     1       4.925   4.320  18.701  0.00  0.00    +0.000 NA
ATOM      3  C   UNL     1       4.463   3.422  19.517  0.00  0.00    +0.000 A 
ATOM      4  N   UNL     1       3.199   3.538  20.073  0.00  0.00    +0.000 N 
ATOM      5  C   UNL     1       2.567   2.685  20.942  0.00  0.00    +0.000 A 
ATOM      6  C   UNL     1       1.322   3.212  21.222  0.00  0.00    +0.000 A 
ATOM      7  C   UNL     1       1.198   4.418  20.487  0.00  0.00    +0.000 A 
ATOM      8  C   UNL     1       2.377   4.592  19.788  0.00  0.00    +0.000 A 
ATOM      9  C   UNL     1       2.822   5.628  18.893  0.00  0.00    +0.000 A 
ATOM     10  O   UNL     1       2.127   6.597  18.596  0.00  0.00    +0.000 OA
ENDROOT
BRANCH   1  11
ATOM     11  C   UNL     1       4.702   6.434  17.510  0.00  0.00    +0.000 C 
BRANCH  11  14
ATOM     12  C   UNL     1       5.764   4.572  14.593  0.00  0.00    +0.000 A 
ATOM     13  N   UNL     1       4.883   5.117  15.401  0.00  0.00    +0.000 NA
ATOM     14  C   UNL     1       5.525   5.775  16.444  0.00  0.00    +0.000 A 
ATOM     15  C   UNL     1       6.906   5.750  16.367  0.00  0.00    +0.000 A 
ATOM     16  S   UNL     1       7.409   4.879  14.982  0.00  0.00    +0.000 S 
BRANCH  12  18
ATOM     17  C   UNL     1       6.514   3.701  12.392  0.00  0.00    +0.000 C 
ATOM     18  C   UNL     1       5.402   3.704  13.431  0.00  0.00    +0.000 C 
ENDBRANCH  12  18
ENDBRANCH  11  14
ENDBRANCH   1  11
TORSDOF 3
ENDMDL
MODEL 8
REMARK VINA RESULT:      -6.3      2.028      2.923
REMARK  Name = 
REMARK  4 active torsions:
REMARK  status: ('A' for Active; 'I' for Inactive)
REMARK    1  A    between atoms: C_1  and  C_2
REMARK    2  A    between atoms: C_2  and  C_3
REMARK    3  A    between atoms: C_5  and  C_6
REMARK    4  A    between atoms: C_6  and  N_7
REMARK                            x       y       z     vdW  Elec       q    Type
REMARK                         _______ _______ _______ _____ _____    ______ ____
ROOT
ATOM      1  N   UNL     1       3.222   5.091  17.957  0.00  0.00    +0.000 N 
ATOM      2  N   UNL     1       2.915   3.893  17.296  0.00  0.00    +0.000 NA
ATOM      3  C   UNL     1       2.356   2.935  17.970  0.00  0.00    +0.000 A 
ATOM      4  N   UNL     1       2.056   3.082  19.315  0.00  0.00    +0.000 N 
ATOM      5  C   UNL     1       1.470   2.178  20.164  0.00  0.00    +0.000 A 
ATOM      6  C   UNL     1       1.374   2.766  21.408  0.00  0.00    +0.000 A 
ATOM      7  C   UNL     1       1.910   4.074  21.301  0.00  0.00    +0.000 A 
ATOM      8  C   UNL     1       2.326   4.238  19.994  0.00  0.00    +0.000 A 
ATOM      9  C   UNL     1       2.947   5.342  19.312  0.00  0.00    +0.000 A 
ATOM     10  O   UNL     1       3.209   6.407  19.868  0.00  0.00    +0.000 OA
ENDROOT
BRANCH   1  11
ATOM     11  C   UNL     1       3.895   6.120  17.169  0.00  0.00    +0.000 C 
BRANCH  11  14
ATOM     12  C   UNL     1       6.541   4.922  15.008  0.00  0.00    +0.000 A 
ATOM     13  N   UNL     1       5.354   5.422  15.272  0.00  0.00    +0.000 NA
ATOM     14  C   UNL     1       5.198   5.598  16.642  0.00  0.00    +0.000 A 
ATOM     15  C   UNL     1       6.314   5.264  17.389  0.00  0.00    +0.000 A 
ATOM     16  S   UNL     1       7.569   4.708  16.367  0.00  0.00    +0.000 S 
BRANCH  12  18
ATOM     17  C   UNL     1       5.927   3.659  12.960  0.00  0.00    +0.000 C 
ATOM     18  C   UNL     1       6.986   4.516  13.640  0.00  0.00    +0.000 C 
ENDBRANCH  12  18
ENDBRANCH  11  14
ENDBRANCH   1  11
TORSDOF 3
ENDMDL
MODEL 9
REMARK VINA RESULT:      -6.3      2.281      3.113
REMARK  Name = 
REMARK  4 active torsions:
REMARK  status: ('A' for Active; 'I' for Inactive)
REMARK    1  A    between atoms: C_1  and  C_2
REMARK    2  A    between atoms: C_2  and  C_3
REMARK    3  A    between atoms: C_5  and  C_6
REMARK    4  A    between atoms: C_6  and  N_7
REMARK                            x       y       z     vdW  Elec       q    Type
REMARK                         _______ _______ _______ _____ _____    ______ ____
ROOT
ATOM      1  N   UNL     1       4.887   4.565  19.442  0.00  0.00    +0.000 N 
ATOM      2  N   UNL     1       5.209   3.206  19.569  0.00  0.00    +0.000 NA
ATOM      3  C   UNL     1       4.303   2.391  20.016  0.00  0.00    +0.000 A 
ATOM      4  N   UNL     1       3.037   2.840  20.355  0.00  0.00    +0.000 N 
ATOM      5  C   UNL     1       1.974   2.117  20.835  0.00  0.00    +0.000 A 
ATOM      6  C   UNL     1       0.922   2.988  21.031  0.00  0.00    +0.000 A 
ATOM      7  C   UNL     1       1.365   4.279  20.645  0.00  0.00    +0.000 A 
ATOM      8  C   UNL     1       2.677   4.153  20.234  0.00  0.00    +0.000 A 
ATOM      9  C   UNL     1       3.631   5.115  19.747  0.00  0.00    +0.000 A 
ATOM     10  O   UNL     1       3.366   6.307  19.612  0.00  0.00    +0.000 OA
ENDROOT
BRANCH   1  11
ATOM     11  C   UNL     1       5.956   5.450  18.983  0.00  0.00    +0.000 C 
BRANCH  11  14
ATOM     12  C   UNL     1       6.310   5.097  15.398  0.00  0.00    +0.000 A 
ATOM     13  N   UNL     1       6.467   4.733  16.651  0.00  0.00    +0.000 NA
ATOM     14  C   UNL     1       5.860   5.651  17.500  0.00  0.00    +0.000 A 
ATOM     15  C   UNL     1       5.205   6.681  16.850  0.00  0.00    +0.000 A 
ATOM     16  S   UNL     1       5.362   6.509  15.154  0.00  0.00    +0.000 S 
BRANCH  12  18
ATOM     17  C   UNL     1       5.865   3.746  13.363  0.00  0.00    +0.000 C 
ATOM     18  C   UNL     1       6.932   4.383  14.241  0.00  0.00    +0.000 C 
ENDBRANCH  12  18
ENDBRANCH  11  14
ENDBRANCH   1  11
TORSDOF 3
ENDMDL
