MODEL 1
REMARK VINA RESULT:      -7.3      0.000      0.000
REMARK  Name = 
REMARK  3 active torsions:
REMARK  status: ('A' for Active; 'I' for Inactive)
REMARK    1  A    between atoms: C_1  and  C_2
REMARK    2  A    between atoms: N_12  and  N_13
REMARK    3  A    between atoms: N_17  and  C_18
REMARK                            x       y       z     vdW  Elec       q    Type
REMARK                         _______ _______ _______ _____ _____    ______ ____
ROOT
ATOM      1  C   UNL     1       4.486   7.022  16.646  0.00  0.00    +0.000 C 
ATOM      2  C   UNL     1       5.427   5.901  16.257  0.00  0.00    +0.000 A 
ATOM      3  N   UNL     1       6.295   6.259  15.367  0.00  0.00    +0.000 NA
ATOM      4  C   UNL     1       6.881   5.260  14.616  0.00  0.00    +0.000 A 
ATOM      5  C   UNL     1       7.836   5.687  13.695  0.00  0.00    +0.000 A 
ATOM      6  C   UNL     1       7.891   5.074  12.456  0.00  0.00    +0.000 A 
ATOM      7  C   UNL     1       7.010   4.026  12.181  0.00  0.00    +0.000 A 
ATOM      8  C   UNL     1       6.182   3.485  13.193  0.00  0.00    +0.000 A 
ATOM      9  C   UNL     1       6.167   4.076  14.461  0.00  0.00    +0.000 A 
ATOM     10  C   UNL     1       5.390   3.629  15.689  0.00  0.00    +0.000 A 
ATOM     11  O   UNL     1       4.864   2.519  15.696  0.00  0.00    +0.000 OA
ATOM     12  N   UNL     1       5.288   4.600  16.723  0.00  0.00    +0.000 N 
ENDROOT
BRANCH  12  13
ATOM     13  N   UNL     1       5.486   4.092  18.222  0.00  0.00    +0.000 NA
ATOM     14  C   UNL     1       4.585   3.673  19.102  0.00  0.00    +0.000 C 
ATOM     15  C   UNL     1       3.457   3.455  18.139  0.00  0.00    +0.000 C 
ATOM     16  O   UNL     1       2.772   4.462  17.920  0.00  0.00    +0.000 OA
ATOM     17  N   UNL     1       3.022   2.130  18.220  0.00  0.00    +0.000 N 
ATOM     18  C   UNL     1       3.929   0.958  18.328  0.00  0.00    +0.000 C 
ATOM     19  C   UNL     1       2.442   2.387  19.446  0.00  0.00    +0.000 A 
ATOM     20  C   UNL     1       1.088   2.772  19.381  0.00  0.00    +0.000 A 
ATOM     21  C   UNL     1       0.668   3.791  20.210  0.00  0.00    +0.000 A 
ATOM     22  C   UNL     1       1.535   4.246  21.212  0.00  0.00    +0.000 A 
ATOM     23  C   UNL     1       2.916   3.903  21.217  0.00  0.00    +0.000 A 
ATOM     24  C   UNL     1       3.429   3.149  20.158  0.00  0.00    +0.000 A 
ENDBRANCH  12  13
TORSDOF 1
ENDMDL
MODEL 2
REMARK VINA RESULT:      -7.1     11.348     13.323
REMARK  Name = 
REMARK  3 active torsions:
REMARK  status: ('A' for Active; 'I' for Inactive)
REMARK    1  A    between atoms: C_1  and  C_2
REMARK    2  A    between atoms: N_12  and  N_13
REMARK    3  A    between atoms: N_17  and  C_18
REMARK                            x       y       z     vdW  Elec       q    Type
REMARK                         _______ _______ _______ _____ _____    ______ ____
ROOT
ATOM      1  C   UNL     1      -7.062  11.270  18.927  0.00  0.00    +0.000 C 
ATOM      2  C   UNL     1      -5.708  11.738  18.434  0.00  0.00    +0.000 A 
ATOM      3  N   UNL     1      -5.453  11.351  17.226  0.00  0.00    +0.000 NA
ATOM      4  C   UNL     1      -4.127  11.308  16.843  0.00  0.00    +0.000 A 
ATOM      5  C   UNL     1      -3.900  10.921  15.523  0.00  0.00    +0.000 A 
ATOM      6  C   UNL     1      -2.819  10.106  15.242  0.00  0.00    +0.000 A 
ATOM      7  C   UNL     1      -1.972   9.723  16.286  0.00  0.00    +0.000 A 
ATOM      8  C   UNL     1      -2.112  10.279  17.579  0.00  0.00    +0.000 A 
ATOM      9  C   UNL     1      -3.177  11.145  17.846  0.00  0.00    +0.000 A 
ATOM     10  C   UNL     1      -3.480  11.879  19.142  0.00  0.00    +0.000 A 
ATOM     11  O   UNL     1      -2.624  11.924  20.022  0.00  0.00    +0.000 OA
ATOM     12  N   UNL     1      -4.798  12.406  19.242  0.00  0.00    +0.000 N 
ENDROOT
BRANCH  12  13
ATOM     13  N   UNL     1      -4.953  13.870  19.854  0.00  0.00    +0.000 NA
ATOM     14  C   UNL     1      -5.344  14.248  21.064  0.00  0.00    +0.000 C 
ATOM     15  C   UNL     1      -5.195  12.919  21.742  0.00  0.00    +0.000 C 
ATOM     16  O   UNL     1      -6.188  12.186  21.651  0.00  0.00    +0.000 OA
ATOM     17  N   UNL     1      -4.324  13.042  22.827  0.00  0.00    +0.000 N 
ATOM     18  C   UNL     1      -3.062  13.825  22.800  0.00  0.00    +0.000 C 
ATOM     19  C   UNL     1      -5.289  13.732  23.534  0.00  0.00    +0.000 A 
ATOM     20  C   UNL     1      -6.104  12.922  24.349  0.00  0.00    +0.000 A 
ATOM     21  C   UNL     1      -7.454  13.202  24.387  0.00  0.00    +0.000 A 
ATOM     22  C   UNL     1      -7.916  14.384  23.795  0.00  0.00    +0.000 A 
ATOM     23  C   UNL     1      -7.097  15.148  22.916  0.00  0.00    +0.000 A 
ATOM     24  C   UNL     1      -5.827  14.667  22.586  0.00  0.00    +0.000 A 
ENDBRANCH  12  13
TORSDOF 1
ENDMDL
MODEL 3
REMARK VINA RESULT:      -7.1      7.046      9.020
REMARK  Name = 
REMARK  3 active torsions:
REMARK  status: ('A' for Active; 'I' for Inactive)
REMARK    1  A    between atoms: C_1  and  C_2
REMARK    2  A    between atoms: N_12  and  N_13
REMARK    3  A    between atoms: N_17  and  C_18
REMARK                            x       y       z     vdW  Elec       q    Type
REMARK                         _______ _______ _______ _____ _____    ______ ____
ROOT
ATOM      1  C   UNL     1       1.471   8.906  22.352  0.00  0.00    +0.000 C 
ATOM      2  C   UNL     1       1.282   8.496  20.906  0.00  0.00    +0.000 A 
ATOM      3  N   UNL     1       1.723   7.305  20.660  0.00  0.00    +0.000 NA
ATOM      4  C   UNL     1       2.028   7.002  19.348  0.00  0.00    +0.000 A 
ATOM      5  C   UNL     1       2.464   5.697  19.123  0.00  0.00    +0.000 A 
ATOM      6  C   UNL     1       3.478   5.479  18.208  0.00  0.00    +0.000 A 
ATOM      7  C   UNL     1       4.010   6.571  17.517  0.00  0.00    +0.000 A 
ATOM      8  C   UNL     1       3.425   7.855  17.621  0.00  0.00    +0.000 A 
ATOM      9  C   UNL     1       2.365   8.060  18.510  0.00  0.00    +0.000 A 
ATOM     10  C   UNL     1       1.574   9.337  18.740  0.00  0.00    +0.000 A 
ATOM     11  O   UNL     1       1.690  10.267  17.945  0.00  0.00    +0.000 OA
ATOM     12  N   UNL     1       0.798   9.360  19.932  0.00  0.00    +0.000 N 
ENDROOT
BRANCH  12  13
ATOM     13  N   UNL     1      -0.674   9.964  19.833  0.00  0.00    +0.000 NA
ATOM     14  C   UNL     1      -1.145  11.128  20.265  0.00  0.00    +0.000 C 
ATOM     15  C   UNL     1       0.175  11.804  20.484  0.00  0.00    +0.000 C 
ATOM     16  O   UNL     1       0.676  11.595  21.596  0.00  0.00    +0.000 OA
ATOM     17  N   UNL     1       0.228  12.980  19.733  0.00  0.00    +0.000 N 
ATOM     18  C   UNL     1      -0.263  13.103  18.335  0.00  0.00    +0.000 C 
ATOM     19  C   UNL     1      -0.665  13.583  20.597  0.00  0.00    +0.000 A 
ATOM     20  C   UNL     1      -0.063  14.293  21.654  0.00  0.00    +0.000 A 
ATOM     21  C   UNL     1      -0.629  14.183  22.907  0.00  0.00    +0.000 A 
ATOM     22  C   UNL     1      -1.874  13.555  23.033  0.00  0.00    +0.000 A 
ATOM     23  C   UNL     1      -2.430  12.781  21.976  0.00  0.00    +0.000 A 
ATOM     24  C   UNL     1      -1.681  12.590  20.811  0.00  0.00    +0.000 A 
ENDBRANCH  12  13
TORSDOF 1
ENDMDL
MODEL 4
REMARK VINA RESULT:      -7.0      3.737      7.190
REMARK  Name = 
REMARK  3 active torsions:
REMARK  status: ('A' for Active; 'I' for Inactive)
REMARK    1  A    between atoms: C_1  and  C_2
REMARK    2  A    between atoms: N_12  and  N_13
REMARK    3  A    between atoms: N_17  and  C_18
REMARK                            x       y       z     vdW  Elec       q    Type
REMARK                         _______ _______ _______ _____ _____    ______ ____
ROOT
ATOM      1  C   UNL     1       3.312   9.101  17.471  0.00  0.00    +0.000 C 
ATOM      2  C   UNL     1       2.220   8.537  18.358  0.00  0.00    +0.000 A 
ATOM      3  N   UNL     1       1.320   9.413  18.666  0.00  0.00    +0.000 NA
ATOM      4  C   UNL     1       0.561   9.172  19.793  0.00  0.00    +0.000 A 
ATOM      5  C   UNL     1      -0.421  10.123  20.067  0.00  0.00    +0.000 A 
ATOM      6  C   UNL     1      -0.657  10.480  21.382  0.00  0.00    +0.000 A 
ATOM      7  C   UNL     1       0.074   9.853  22.394  0.00  0.00    +0.000 A 
ATOM      8  C   UNL     1       0.926   8.760  22.108  0.00  0.00    +0.000 A 
ATOM      9  C   UNL     1       1.122   8.367  20.781  0.00  0.00    +0.000 A 
ATOM     10  C   UNL     1       1.953   7.203  20.265  0.00  0.00    +0.000 A 
ATOM     11  O   UNL     1       2.351   6.353  21.056  0.00  0.00    +0.000 OA
ATOM     12  N   UNL     1       2.256   7.248  18.876  0.00  0.00    +0.000 N 
ENDROOT
BRANCH  12  13
ATOM     13  N   UNL     1       2.141   5.884  18.060  0.00  0.00    +0.000 NA
ATOM     14  C   UNL     1       3.096   5.065  17.635  0.00  0.00    +0.000 C 
ATOM     15  C   UNL     1       4.207   5.602  18.486  0.00  0.00    +0.000 C 
ATOM     16  O   UNL     1       4.811   6.562  17.990  0.00  0.00    +0.000 OA
ATOM     17  N   UNL     1       4.739   4.573  19.266  0.00  0.00    +0.000 N 
ATOM     18  C   UNL     1       3.922   3.542  19.959  0.00  0.00    +0.000 C 
ATOM     19  C   UNL     1       5.336   4.023  18.149  0.00  0.00    +0.000 A 
ATOM     20  C   UNL     1       6.656   4.460  17.920  0.00  0.00    +0.000 A 
ATOM     21  C   UNL     1       7.026   4.735  16.620  0.00  0.00    +0.000 A 
ATOM     22  C   UNL     1       6.160   4.374  15.581  0.00  0.00    +0.000 A 
ATOM     23  C   UNL     1       4.808   4.006  15.830  0.00  0.00    +0.000 A 
ATOM     24  C   UNL     1       4.318   4.073  17.137  0.00  0.00    +0.000 A 
ENDBRANCH  12  13
TORSDOF 1
ENDMDL
MODEL 5
REMARK VINA RESULT:      -6.9      1.662      2.607
REMARK  Name = 
REMARK  3 active torsions:
REMARK  status: ('A' for Active; 'I' for Inactive)
REMARK    1  A    between atoms: C_1  and  C_2
REMARK    2  A    between atoms: N_12  and  N_13
REMARK    3  A    between atoms: N_17  and  C_18
REMARK                            x       y       z     vdW  Elec       q    Type
REMARK                         _______ _______ _______ _____ _____    ______ ____
ROOT
ATOM      1  C   UNL     1       7.972   5.488  19.264  0.00  0.00    +0.000 C 
ATOM      2  C   UNL     1       6.743   5.172  18.435  0.00  0.00    +0.000 A 
ATOM      3  N   UNL     1       6.999   4.392  17.435  0.00  0.00    +0.000 NA
ATOM      4  C   UNL     1       6.109   4.403  16.380  0.00  0.00    +0.000 A 
ATOM      5  C   UNL     1       6.403   3.521  15.341  0.00  0.00    +0.000 A 
ATOM      6  C   UNL     1       6.184   3.927  14.038  0.00  0.00    +0.000 A 
ATOM      7  C   UNL     1       5.646   5.195  13.806  0.00  0.00    +0.000 A 
ATOM      8  C   UNL     1       5.180   5.995  14.876  0.00  0.00    +0.000 A 
ATOM      9  C   UNL     1       5.356   5.558  16.192  0.00  0.00    +0.000 A 
ATOM     10  C   UNL     1       4.894   6.238  17.471  0.00  0.00    +0.000 A 
ATOM     11  O   UNL     1       4.094   7.168  17.401  0.00  0.00    +0.000 OA
ATOM     12  N   UNL     1       5.505   5.759  18.663  0.00  0.00    +0.000 N 
ENDROOT
BRANCH  12  13
ATOM     13  N   UNL     1       4.563   5.548  19.931  0.00  0.00    +0.000 NA
ATOM     14  C   UNL     1       3.593   4.665  20.131  0.00  0.00    +0.000 C 
ATOM     15  C   UNL     1       3.943   3.733  19.011  0.00  0.00    +0.000 C 
ATOM     16  O   UNL     1       3.442   4.035  17.920  0.00  0.00    +0.000 OA
ATOM     17  N   UNL     1       4.165   2.451  19.520  0.00  0.00    +0.000 N 
ATOM     18  C   UNL     1       4.918   2.167  20.769  0.00  0.00    +0.000 C 
ATOM     19  C   UNL     1       2.811   2.297  19.744  0.00  0.00    +0.000 A 
ATOM     20  C   UNL     1       2.109   1.695  18.681  0.00  0.00    +0.000 A 
ATOM     21  C   UNL     1       0.872   2.210  18.354  0.00  0.00    +0.000 A 
ATOM     22  C   UNL     1       0.285   3.151  19.210  0.00  0.00    +0.000 A 
ATOM     23  C   UNL     1       1.033   3.800  20.231  0.00  0.00    +0.000 A 
ATOM     24  C   UNL     1       2.402   3.540  20.336  0.00  0.00    +0.000 A 
ENDBRANCH  12  13
TORSDOF 1
ENDMDL
MODEL 6
REMARK VINA RESULT:      -6.5     10.112     13.331
REMARK  Name = 
REMARK  3 active torsions:
REMARK  status: ('A' for Active; 'I' for Inactive)
REMARK    1  A    between atoms: C_1  and  C_2
REMARK    2  A    between atoms: N_12  and  N_13
REMARK    3  A    between atoms: N_17  and  C_18
REMARK                            x       y       z     vdW  Elec       q    Type
REMARK                         _______ _______ _______ _____ _____    ______ ____
ROOT
ATOM      1  C   UNL     1      -0.655  12.867  17.811  0.00  0.00    +0.000 C 
ATOM      2  C   UNL     1       0.026  12.650  19.146  0.00  0.00    +0.000 A 
ATOM      3  N   UNL     1       0.037  11.408  19.509  0.00  0.00    +0.000 NA
ATOM      4  C   UNL     1       0.199  11.143  20.854  0.00  0.00    +0.000 A 
ATOM      5  C   UNL     1       0.241   9.792  21.195  0.00  0.00    +0.000 A 
ATOM      6  C   UNL     1      -0.379   9.377  22.359  0.00  0.00    +0.000 A 
ATOM      7  C   UNL     1      -1.000  10.330  23.171  0.00  0.00    +0.000 A 
ATOM      8  C   UNL     1      -0.868  11.713  22.903  0.00  0.00    +0.000 A 
ATOM      9  C   UNL     1      -0.194  12.131  21.752  0.00  0.00    +0.000 A 
ATOM     10  C   UNL     1       0.096  13.555  21.305  0.00  0.00    +0.000 A 
ATOM     11  O   UNL     1      -0.069  14.478  22.099  0.00  0.00    +0.000 OA
ATOM     12  N   UNL     1       0.480  13.693  19.943  0.00  0.00    +0.000 N 
ENDROOT
BRANCH  12  13
ATOM     13  N   UNL     1       1.680  14.692  19.621  0.00  0.00    +0.000 NA
ATOM     14  C   UNL     1       1.651  15.926  19.134  0.00  0.00    +0.000 C 
ATOM     15  C   UNL     1       0.195  16.195  19.369  0.00  0.00    +0.000 C 
ATOM     16  O   UNL     1      -0.547  15.816  18.453  0.00  0.00    +0.000 OA
ATOM     17  N   UNL     1       0.051  17.332  20.167  0.00  0.00    +0.000 N 
ATOM     18  C   UNL     1       0.896  17.634  21.351  0.00  0.00    +0.000 C 
ATOM     19  C   UNL     1       0.427  18.133  19.107  0.00  0.00    +0.000 A 
ATOM     20  C   UNL     1      -0.645  18.610  18.328  0.00  0.00    +0.000 A 
ATOM     21  C   UNL     1      -0.489  18.623  16.957  0.00  0.00    +0.000 A 
ATOM     22  C   UNL     1       0.780  18.369  16.421  0.00  0.00    +0.000 A 
ATOM     23  C   UNL     1       1.828  17.819  17.211  0.00  0.00    +0.000 A 
ATOM     24  C   UNL     1       1.561  17.462  18.536  0.00  0.00    +0.000 A 
ENDBRANCH  12  13
TORSDOF 1
ENDMDL
MODEL 7
REMARK VINA RESULT:      -6.5     11.259     13.234
REMARK  Name = 
REMARK  3 active torsions:
REMARK  status: ('A' for Active; 'I' for Inactive)
REMARK    1  A    between atoms: C_1  and  C_2
REMARK    2  A    between atoms: N_12  and  N_13
REMARK    3  A    between atoms: N_17  and  C_18
REMARK                            x       y       z     vdW  Elec       q    Type
REMARK                         _______ _______ _______ _____ _____    ______ ____
ROOT
ATOM      1  C   UNL     1      -0.877  13.921  19.959  0.00  0.00    +0.000 C 
ATOM      2  C   UNL     1      -1.802  12.743  19.731  0.00  0.00    +0.000 A 
ATOM      3  N   UNL     1      -1.420  11.985  18.755  0.00  0.00    +0.000 NA
ATOM      4  C   UNL     1      -2.376  11.183  18.166  0.00  0.00    +0.000 A 
ATOM      5  C   UNL     1      -1.913  10.356  17.143  0.00  0.00    +0.000 A 
ATOM      6  C   UNL     1      -2.710  10.160  16.030  0.00  0.00    +0.000 A 
ATOM      7  C   UNL     1      -3.966  10.771  15.981  0.00  0.00    +0.000 A 
ATOM      8  C   UNL     1      -4.491  11.447  17.108  0.00  0.00    +0.000 A 
ATOM      9  C   UNL     1      -3.701  11.598  18.251  0.00  0.00    +0.000 A 
ATOM     10  C   UNL     1      -4.086  12.246  19.572  0.00  0.00    +0.000 A 
ATOM     11  O   UNL     1      -5.267  12.497  19.796  0.00  0.00    +0.000 OA
ATOM     12  N   UNL     1      -2.994  12.572  20.424  0.00  0.00    +0.000 N 
ENDROOT
BRANCH  12  13
ATOM     13  N   UNL     1      -3.163  12.258  21.978  0.00  0.00    +0.000 NA
ATOM     14  C   UNL     1      -3.493  13.068  22.977  0.00  0.00    +0.000 C 
ATOM     15  C   UNL     1      -4.025  14.197  22.146  0.00  0.00    +0.000 C 
ATOM     16  O   UNL     1      -3.164  15.006  21.776  0.00  0.00    +0.000 OA
ATOM     17  N   UNL     1      -5.345  14.466  22.512  0.00  0.00    +0.000 N 
ATOM     18  C   UNL     1      -6.364  13.421  22.792  0.00  0.00    +0.000 C 
ATOM     19  C   UNL     1      -4.912  15.026  23.697  0.00  0.00    +0.000 A 
ATOM     20  C   UNL     1      -4.701  16.418  23.640  0.00  0.00    +0.000 A 
ATOM     21  C   UNL     1      -3.587  16.926  24.277  0.00  0.00    +0.000 A 
ATOM     22  C   UNL     1      -2.846  16.084  25.115  0.00  0.00    +0.000 A 
ATOM     23  C   UNL     1      -3.026  14.672  25.103  0.00  0.00    +0.000 A 
ATOM     24  C   UNL     1      -3.917  14.112  24.183  0.00  0.00    +0.000 A 
ENDBRANCH  12  13
TORSDOF 1
ENDMDL
MODEL 8
REMARK VINA RESULT:      -6.3      9.412     11.309
REMARK  Name = 
REMARK  3 active torsions:
REMARK  status: ('A' for Active; 'I' for Inactive)
REMARK    1  A    between atoms: C_1  and  C_2
REMARK    2  A    between atoms: N_12  and  N_13
REMARK    3  A    between atoms: N_17  and  C_18
REMARK                            x       y       z     vdW  Elec       q    Type
REMARK                         _______ _______ _______ _____ _____    ______ ____
ROOT
ATOM      1  C   UNL     1      -2.770  10.974  18.046  0.00  0.00    +0.000 C 
ATOM      2  C   UNL     1      -1.362  11.019  18.604  0.00  0.00    +0.000 A 
ATOM      3  N   UNL     1      -0.538  10.266  17.950  0.00  0.00    +0.000 NA
ATOM      4  C   UNL     1       0.611   9.868  18.605  0.00  0.00    +0.000 A 
ATOM      5  C   UNL     1       1.487   9.088  17.852  0.00  0.00    +0.000 A 
ATOM      6  C   UNL     1       2.145   8.039  18.467  0.00  0.00    +0.000 A 
ATOM      7  C   UNL     1       1.934   7.815  19.830  0.00  0.00    +0.000 A 
ATOM      8  C   UNL     1       1.191   8.731  20.612  0.00  0.00    +0.000 A 
ATOM      9  C   UNL     1       0.570   9.821  19.995  0.00  0.00    +0.000 A 
ATOM     10  C   UNL     1      -0.229  10.935  20.652  0.00  0.00    +0.000 A 
ATOM     11  O   UNL     1      -0.187  11.064  21.873  0.00  0.00    +0.000 OA
ATOM     12  N   UNL     1      -1.030  11.706  19.765  0.00  0.00    +0.000 N 
ENDROOT
BRANCH  12  13
ATOM     13  N   UNL     1      -1.045  13.285  19.982  0.00  0.00    +0.000 NA
ATOM     14  C   UNL     1      -1.940  14.050  20.595  0.00  0.00    +0.000 C 
ATOM     15  C   UNL     1      -2.663  12.958  21.325  0.00  0.00    +0.000 C 
ATOM     16  O   UNL     1      -3.568  12.422  20.673  0.00  0.00    +0.000 OA
ATOM     17  N   UNL     1      -2.640  13.217  22.697  0.00  0.00    +0.000 N 
ATOM     18  C   UNL     1      -1.451  13.719  23.433  0.00  0.00    +0.000 C 
ATOM     19  C   UNL     1      -3.552  14.240  22.527  0.00  0.00    +0.000 A 
ATOM     20  C   UNL     1      -4.898  13.852  22.677  0.00  0.00    +0.000 A 
ATOM     21  C   UNL     1      -5.820  14.371  21.792  0.00  0.00    +0.000 A 
ATOM     22  C   UNL     1      -5.423  15.406  20.935  0.00  0.00    +0.000 A 
ATOM     23  C   UNL     1      -4.051  15.733  20.744  0.00  0.00    +0.000 A 
ATOM     24  C   UNL     1      -3.076  14.957  21.377  0.00  0.00    +0.000 A 
ENDBRANCH  12  13
TORSDOF 1
ENDMDL
MODEL 9
REMARK VINA RESULT:      -6.1      2.803      3.973
REMARK  Name = 
REMARK  3 active torsions:
REMARK  status: ('A' for Active; 'I' for Inactive)
REMARK    1  A    between atoms: C_1  and  C_2
REMARK    2  A    between atoms: N_12  and  N_13
REMARK    3  A    between atoms: N_17  and  C_18
REMARK                            x       y       z     vdW  Elec       q    Type
REMARK                         _______ _______ _______ _____ _____    ______ ____
ROOT
ATOM      1  C   UNL     1       7.044   4.286  15.584  0.00  0.00    +0.000 C 
ATOM      2  C   UNL     1       6.841   5.159  16.806  0.00  0.00    +0.000 A 
ATOM      3  N   UNL     1       6.705   6.411  16.511  0.00  0.00    +0.000 NA
ATOM      4  C   UNL     1       6.972   7.328  17.508  0.00  0.00    +0.000 A 
ATOM      5  C   UNL     1       6.778   8.663  17.159  0.00  0.00    +0.000 A 
ATOM      6  C   UNL     1       7.667   9.613  17.628  0.00  0.00    +0.000 A 
ATOM      7  C   UNL     1       8.712   9.206  18.463  0.00  0.00    +0.000 A 
ATOM      8  C   UNL     1       8.777   7.882  18.956  0.00  0.00    +0.000 A 
ATOM      9  C   UNL     1       7.844   6.937  18.520  0.00  0.00    +0.000 A 
ATOM     10  C   UNL     1       7.712   5.486  18.955  0.00  0.00    +0.000 A 
ATOM     11  O   UNL     1       8.327   5.098  19.946  0.00  0.00    +0.000 OA
ATOM     12  N   UNL     1       6.914   4.672  18.105  0.00  0.00    +0.000 N 
ENDROOT
BRANCH  12  13
ATOM     13  N   UNL     1       5.906   3.654  18.805  0.00  0.00    +0.000 NA
ATOM     14  C   UNL     1       4.633   3.817  19.143  0.00  0.00    +0.000 C 
ATOM     15  C   UNL     1       4.367   5.042  18.321  0.00  0.00    +0.000 C 
ATOM     16  O   UNL     1       4.653   6.106  18.885  0.00  0.00    +0.000 OA
ATOM     17  N   UNL     1       3.305   4.799  17.448  0.00  0.00    +0.000 N 
ATOM     18  C   UNL     1       3.121   3.536  16.686  0.00  0.00    +0.000 C 
ATOM     19  C   UNL     1       2.417   4.841  18.505  0.00  0.00    +0.000 A 
ATOM     20  C   UNL     1       1.858   6.111  18.746  0.00  0.00    +0.000 A 
ATOM     21  C   UNL     1       1.724   6.516  20.058  0.00  0.00    +0.000 A 
ATOM     22  C   UNL     1       1.945   5.583  21.078  0.00  0.00    +0.000 A 
ATOM     23  C   UNL     1       2.578   4.334  20.823  0.00  0.00    +0.000 A 
ATOM     24  C   UNL     1       3.049   4.065  19.535  0.00  0.00    +0.000 A 
ENDBRANCH  12  13
TORSDOF 1
ENDMDL
