MODEL 1
REMARK VINA RESULT:      -7.8      0.000      0.000
REMARK  Name = 
REMARK  8 active torsions:
REMARK  status: ('A' for Active; 'I' for Inactive)
REMARK    1  A    between atoms: C_1  and  O_2
REMARK    2  A    between atoms: O_2  and  C_3
REMARK    3  A    between atoms: C_6  and  C_7
REMARK    4  A    between atoms: C_14  and  N_15
REMARK    5  A    between atoms: C_16  and  C_18
REMARK    6  A    between atoms: C_21  and  O_22
REMARK    7  A    between atoms: O_22  and  C_23
REMARK    8  A    between atoms: C_23  and  C_24
REMARK                            x       y       z     vdW  Elec       q    Type
REMARK                         _______ _______ _______ _____ _____    ______ ____
ROOT
ATOM      1  C   UNL     1      -2.861  12.578  20.840  0.00  0.00    +0.000 A 
ATOM      2  C   UNL     1      -3.219  12.600  22.212  0.00  0.00    +0.000 A 
ATOM      3  C   UNL     1      -2.272  12.648  23.235  0.00  0.00    +0.000 A 
ATOM      4  C   UNL     1      -0.927  12.719  22.917  0.00  0.00    +0.000 A 
ATOM      5  C   UNL     1      -0.530  12.721  21.582  0.00  0.00    +0.000 A 
ATOM      6  C   UNL     1      -1.471  12.606  20.534  0.00  0.00    +0.000 A 
ATOM      7  C   UNL     1      -0.944  12.518  19.117  0.00  0.00    +0.000 C 
ATOM      8  C   UNL     1       0.551  12.207  19.051  0.00  0.00    +0.000 C 
ATOM      9  C   UNL     1       1.251  13.102  20.067  0.00  0.00    +0.000 C 
ATOM     10  O   UNL     1       0.828  12.798  21.402  0.00  0.00    +0.000 OA
ENDROOT
BRANCH   1  14
ATOM     11  C   UNL     1      -6.018  12.642  17.956  0.00  0.00    +0.000 A 
ATOM     12  N   UNL     1      -6.125  13.410  19.061  0.00  0.00    +0.000 NA
ATOM     13  C   UNL     1      -5.109  13.325  19.959  0.00  0.00    +0.000 A 
ATOM     14  C   UNL     1      -3.958  12.533  19.828  0.00  0.00    +0.000 A 
ATOM     15  C   UNL     1      -3.909  11.763  18.659  0.00  0.00    +0.000 A 
ATOM     16  C   UNL     1      -4.950  11.792  17.736  0.00  0.00    +0.000 A 
ATOM     17  F   UNL     1      -4.882  11.018  16.643  0.00  0.00    +0.000 F 
BRANCH  11  19
ATOM     18  C   UNL     1      -7.134  14.015  16.435  0.00  0.00    +0.000 C 
ATOM     19  O   UNL     1      -6.994  12.710  16.983  0.00  0.00    +0.000 OA
ENDBRANCH  11  19
ENDBRANCH   1  14
BRANCH   8  20
ATOM     20  N   UNL     1       0.794  10.787  19.307  0.00  0.00    +0.000 N 
ATOM     21  C   UNL     1       1.646  10.052  18.517  0.00  0.00    +0.000 C 
ATOM     22  O   UNL     1       2.241  10.510  17.550  0.00  0.00    +0.000 OA
ATOM     23  H   UNL     1       0.632  10.471  20.254  0.00  0.00    +0.000 HD
BRANCH  21  24
ATOM     24  C   UNL     1       1.822   8.632  18.904  0.00  0.00    +0.000 A 
ATOM     25  C   UNL     1       2.288   7.666  18.014  0.00  0.00    +0.000 A 
ATOM     26  C   UNL     1       2.490   6.358  18.460  0.00  0.00    +0.000 A 
ATOM     27  C   UNL     1       2.214   6.055  19.791  0.00  0.00    +0.000 A 
ATOM     28  N   UNL     1       1.766   6.976  20.665  0.00  0.00    +0.000 NA
ATOM     29  C   UNL     1       1.586   8.243  20.212  0.00  0.00    +0.000 A 
BRANCH  27  30
ATOM     30  O   UNL     1       2.452   4.839  20.361  0.00  0.00    +0.000 OA
BRANCH  30  31
ATOM     31  C   UNL     1       1.625   3.761  19.915  0.00  0.00    +0.000 C 
BRANCH  31  32
ATOM     32  C   UNL     1       2.455   2.659  19.261  0.00  0.00    +0.000 C 
ATOM     33  F   UNL     1       1.819   1.472  19.199  0.00  0.00    +0.000 F 
ATOM     34  F   UNL     1       2.803   3.004  17.999  0.00  0.00    +0.000 F 
ATOM     35  F   UNL     1       3.608   2.465  19.950  0.00  0.00    +0.000 F 
ENDBRANCH  31  32
ENDBRANCH  30  31
ENDBRANCH  27  30
ENDBRANCH  21  24
ENDBRANCH   8  20
TORSDOF 7
ENDMDL
MODEL 2
REMARK VINA RESULT:      -7.8      5.422      8.765
REMARK  Name = 
REMARK  8 active torsions:
REMARK  status: ('A' for Active; 'I' for Inactive)
REMARK    1  A    between atoms: C_1  and  O_2
REMARK    2  A    between atoms: O_2  and  C_3
REMARK    3  A    between atoms: C_6  and  C_7
REMARK    4  A    between atoms: C_14  and  N_15
REMARK    5  A    between atoms: C_16  and  C_18
REMARK    6  A    between atoms: C_21  and  O_22
REMARK    7  A    between atoms: O_22  and  C_23
REMARK    8  A    between atoms: C_23  and  C_24
REMARK                            x       y       z     vdW  Elec       q    Type
REMARK                         _______ _______ _______ _____ _____    ______ ____
ROOT
ATOM      1  C   UNL     1       2.553   5.679  19.727  0.00  0.00    +0.000 A 
ATOM      2  C   UNL     1       1.683   4.631  20.123  0.00  0.00    +0.000 A 
ATOM      3  C   UNL     1       2.100   3.303  20.218  0.00  0.00    +0.000 A 
ATOM      4  C   UNL     1       3.420   2.983  19.959  0.00  0.00    +0.000 A 
ATOM      5  C   UNL     1       4.316   3.982  19.587  0.00  0.00    +0.000 A 
ATOM      6  C   UNL     1       3.897   5.321  19.422  0.00  0.00    +0.000 A 
ATOM      7  C   UNL     1       4.915   6.325  18.920  0.00  0.00    +0.000 C 
ATOM      8  C   UNL     1       6.160   5.668  18.323  0.00  0.00    +0.000 C 
ATOM      9  C   UNL     1       6.592   4.557  19.273  0.00  0.00    +0.000 C 
ATOM     10  O   UNL     1       5.594   3.535  19.362  0.00  0.00    +0.000 OA
ENDROOT
BRANCH   1  14
ATOM     11  C   UNL     1       1.054   9.684  19.727  0.00  0.00    +0.000 A 
ATOM     12  N   UNL     1       0.979   8.957  20.862  0.00  0.00    +0.000 NA
ATOM     13  C   UNL     1       1.440   7.680  20.796  0.00  0.00    +0.000 A 
ATOM     14  C   UNL     1       2.002   7.065  19.667  0.00  0.00    +0.000 A 
ATOM     15  C   UNL     1       2.052   7.874  18.524  0.00  0.00    +0.000 A 
ATOM     16  C   UNL     1       1.552   9.173  18.543  0.00  0.00    +0.000 A 
ATOM     17  F   UNL     1       1.589   9.907  17.421  0.00  0.00    +0.000 F 
BRANCH  11  19
ATOM     18  C   UNL     1      -0.732  11.148  19.400  0.00  0.00    +0.000 C 
ATOM     19  O   UNL     1       0.643  11.001  19.734  0.00  0.00    +0.000 OA
ENDBRANCH  11  19
ENDBRANCH   1  14
BRANCH   8  20
ATOM     20  N   UNL     1       5.883   5.167  16.978  0.00  0.00    +0.000 N 
ATOM     21  C   UNL     1       6.731   5.428  15.927  0.00  0.00    +0.000 C 
ATOM     22  O   UNL     1       7.750   6.100  16.027  0.00  0.00    +0.000 OA
ATOM     23  H   UNL     1       5.294   4.347  16.920  0.00  0.00    +0.000 HD
BRANCH  21  24
ATOM     24  C   UNL     1       6.346   4.838  14.624  0.00  0.00    +0.000 A 
ATOM     25  C   UNL     1       7.241   4.720  13.561  0.00  0.00    +0.000 A 
ATOM     26  C   UNL     1       6.830   4.096  12.380  0.00  0.00    +0.000 A 
ATOM     27  C   UNL     1       5.528   3.610  12.299  0.00  0.00    +0.000 A 
ATOM     28  N   UNL     1       4.651   3.713  13.315  0.00  0.00    +0.000 NA
ATOM     29  C   UNL     1       5.075   4.314  14.457  0.00  0.00    +0.000 A 
BRANCH  27  30
ATOM     30  O   UNL     1       5.040   2.911  11.233  0.00  0.00    +0.000 OA
BRANCH  30  31
ATOM     31  C   UNL     1       3.622   2.938  11.056  0.00  0.00    +0.000 C 
BRANCH  31  32
ATOM     32  C   UNL     1       3.229   3.800   9.859  0.00  0.00    +0.000 C 
ATOM     33  F   UNL     1       4.274   4.426   9.281  0.00  0.00    +0.000 F 
ATOM     34  F   UNL     1       2.622   3.053   8.907  0.00  0.00    +0.000 F 
ATOM     35  F   UNL     1       2.343   4.756  10.237  0.00  0.00    +0.000 F 
ENDBRANCH  31  32
ENDBRANCH  30  31
ENDBRANCH  27  30
ENDBRANCH  21  24
ENDBRANCH   8  20
TORSDOF 7
ENDMDL
MODEL 3
REMARK VINA RESULT:      -7.7      5.414      8.762
REMARK  Name = 
REMARK  8 active torsions:
REMARK  status: ('A' for Active; 'I' for Inactive)
REMARK    1  A    between atoms: C_1  and  O_2
REMARK    2  A    between atoms: O_2  and  C_3
REMARK    3  A    between atoms: C_6  and  C_7
REMARK    4  A    between atoms: C_14  and  N_15
REMARK    5  A    between atoms: C_16  and  C_18
REMARK    6  A    between atoms: C_21  and  O_22
REMARK    7  A    between atoms: O_22  and  C_23
REMARK    8  A    between atoms: C_23  and  C_24
REMARK                            x       y       z     vdW  Elec       q    Type
REMARK                         _______ _______ _______ _____ _____    ______ ____
ROOT
ATOM      1  C   UNL     1       2.425   5.610  19.652  0.00  0.00    +0.000 A 
ATOM      2  C   UNL     1       1.455   4.597  19.862  0.00  0.00    +0.000 A 
ATOM      3  C   UNL     1       1.785   3.243  19.930  0.00  0.00    +0.000 A 
ATOM      4  C   UNL     1       3.110   2.858  19.831  0.00  0.00    +0.000 A 
ATOM      5  C   UNL     1       4.100   3.820  19.645  0.00  0.00    +0.000 A 
ATOM      6  C   UNL     1       3.778   5.189  19.508  0.00  0.00    +0.000 A 
ATOM      7  C   UNL     1       4.906   6.155  19.210  0.00  0.00    +0.000 C 
ATOM      8  C   UNL     1       6.185   5.458  18.747  0.00  0.00    +0.000 C 
ATOM      9  C   UNL     1       6.425   4.274  19.676  0.00  0.00    +0.000 C 
ATOM     10  O   UNL     1       5.371   3.310  19.567  0.00  0.00    +0.000 OA
ENDROOT
BRANCH   1  14
ATOM     11  C   UNL     1       1.186   9.703  19.681  0.00  0.00    +0.000 A 
ATOM     12  N   UNL     1       1.125   8.992  20.827  0.00  0.00    +0.000 NA
ATOM     13  C   UNL     1       1.500   7.688  20.753  0.00  0.00    +0.000 A 
ATOM     14  C   UNL     1       1.961   7.028  19.603  0.00  0.00    +0.000 A 
ATOM     15  C   UNL     1       2.001   7.822  18.450  0.00  0.00    +0.000 A 
ATOM     16  C   UNL     1       1.587   9.151  18.478  0.00  0.00    +0.000 A 
ATOM     17  F   UNL     1       1.611   9.871  17.348  0.00  0.00    +0.000 F 
BRANCH  11  19
ATOM     18  C   UNL     1       0.185  11.434  20.883  0.00  0.00    +0.000 C 
ATOM     19  O   UNL     1       0.860  11.043  19.693  0.00  0.00    +0.000 OA
ENDBRANCH  11  19
ENDBRANCH   1  14
BRANCH   8  20
ATOM     20  N   UNL     1       6.071   5.048  17.348  0.00  0.00    +0.000 N 
ATOM     21  C   UNL     1       6.813   5.652  16.361  0.00  0.00    +0.000 C 
ATOM     22  O   UNL     1       7.595   6.572  16.565  0.00  0.00    +0.000 OA
ATOM     23  H   UNL     1       5.742   4.105  17.186  0.00  0.00    +0.000 HD
BRANCH  21  24
ATOM     24  C   UNL     1       6.620   5.121  14.991  0.00  0.00    +0.000 A 
ATOM     25  C   UNL     1       7.583   5.258  13.992  0.00  0.00    +0.000 A 
ATOM     26  C   UNL     1       7.363   4.679  12.739  0.00  0.00    +0.000 A 
ATOM     27  C   UNL     1       6.179   3.981  12.524  0.00  0.00    +0.000 A 
ATOM     28  N   UNL     1       5.239   3.836  13.477  0.00  0.00    +0.000 NA
ATOM     29  C   UNL     1       5.477   4.398  14.690  0.00  0.00    +0.000 A 
BRANCH  27  30
ATOM     30  O   UNL     1       5.891   3.303  11.375  0.00  0.00    +0.000 OA
BRANCH  30  31
ATOM     31  C   UNL     1       5.499   1.937  11.529  0.00  0.00    +0.000 C 
BRANCH  31  32
ATOM     32  C   UNL     1       6.542   0.990  10.942  0.00  0.00    +0.000 C 
ATOM     33  F   UNL     1       6.171  -0.305  10.974  0.00  0.00    +0.000 F 
ATOM     34  F   UNL     1       6.808   1.308   9.653  0.00  0.00    +0.000 F 
ATOM     35  F   UNL     1       7.710   1.094  11.624  0.00  0.00    +0.000 F 
ENDBRANCH  31  32
ENDBRANCH  30  31
ENDBRANCH  27  30
ENDBRANCH  21  24
ENDBRANCH   8  20
TORSDOF 7
ENDMDL
MODEL 4
REMARK VINA RESULT:      -7.7      5.416      8.770
REMARK  Name = 
REMARK  8 active torsions:
REMARK  status: ('A' for Active; 'I' for Inactive)
REMARK    1  A    between atoms: C_1  and  O_2
REMARK    2  A    between atoms: O_2  and  C_3
REMARK    3  A    between atoms: C_6  and  C_7
REMARK    4  A    between atoms: C_14  and  N_15
REMARK    5  A    between atoms: C_16  and  C_18
REMARK    6  A    between atoms: C_21  and  O_22
REMARK    7  A    between atoms: O_22  and  C_23
REMARK    8  A    between atoms: C_23  and  C_24
REMARK                            x       y       z     vdW  Elec       q    Type
REMARK                         _______ _______ _______ _____ _____    ______ ____
ROOT
ATOM      1  C   UNL     1       2.372   5.645  19.676  0.00  0.00    +0.000 A 
ATOM      2  C   UNL     1       1.377   4.658  19.891  0.00  0.00    +0.000 A 
ATOM      3  C   UNL     1       1.671   3.295  19.952  0.00  0.00    +0.000 A 
ATOM      4  C   UNL     1       2.984   2.875  19.840  0.00  0.00    +0.000 A 
ATOM      5  C   UNL     1       3.997   3.810  19.649  0.00  0.00    +0.000 A 
ATOM      6  C   UNL     1       3.712   5.188  19.520  0.00  0.00    +0.000 A 
ATOM      7  C   UNL     1       4.864   6.124  19.215  0.00  0.00    +0.000 C 
ATOM      8  C   UNL     1       6.120   5.394  18.739  0.00  0.00    +0.000 C 
ATOM      9  C   UNL     1       6.334   4.200  19.662  0.00  0.00    +0.000 C 
ATOM     10  O   UNL     1       5.254   3.265  19.558  0.00  0.00    +0.000 OA
ENDROOT
BRANCH   1  14
ATOM     11  C   UNL     1       1.066   9.707  19.396  0.00  0.00    +0.000 A 
ATOM     12  N   UNL     1       1.554   9.099  18.294  0.00  0.00    +0.000 NA
ATOM     13  C   UNL     1       1.984   7.819  18.448  0.00  0.00    +0.000 A 
ATOM     14  C   UNL     1       1.947   7.075  19.637  0.00  0.00    +0.000 A 
ATOM     15  C   UNL     1       1.429   7.764  20.742  0.00  0.00    +0.000 A 
ATOM     16  C   UNL     1       1.015   9.089  20.632  0.00  0.00    +0.000 A 
ATOM     17  F   UNL     1       0.553   9.726  21.717  0.00  0.00    +0.000 F 
BRANCH  11  19
ATOM     18  C   UNL     1       1.555  11.928  18.875  0.00  0.00    +0.000 C 
ATOM     19  O   UNL     1       0.573  10.992  19.302  0.00  0.00    +0.000 OA
ENDBRANCH  11  19
ENDBRANCH   1  14
BRANCH   8  20
ATOM     20  N   UNL     1       5.982   4.993  17.340  0.00  0.00    +0.000 N 
ATOM     21  C   UNL     1       6.745   5.567  16.351  0.00  0.00    +0.000 C 
ATOM     22  O   UNL     1       7.566   6.452  16.554  0.00  0.00    +0.000 OA
ATOM     23  H   UNL     1       5.613   4.065  17.177  0.00  0.00    +0.000 HD
BRANCH  21  24
ATOM     24  C   UNL     1       6.524   5.048  14.980  0.00  0.00    +0.000 A 
ATOM     25  C   UNL     1       7.499   5.118  13.987  0.00  0.00    +0.000 A 
ATOM     26  C   UNL     1       7.248   4.553  12.734  0.00  0.00    +0.000 A 
ATOM     27  C   UNL     1       6.020   3.936  12.512  0.00  0.00    +0.000 A 
ATOM     28  N   UNL     1       5.068   3.857  13.460  0.00  0.00    +0.000 NA
ATOM     29  C   UNL     1       5.337   4.403  14.674  0.00  0.00    +0.000 A 
BRANCH  27  30
ATOM     30  O   UNL     1       5.694   3.278  11.362  0.00  0.00    +0.000 OA
BRANCH  30  31
ATOM     31  C   UNL     1       5.412   1.882  11.493  0.00  0.00    +0.000 C 
BRANCH  31  32
ATOM     32  C   UNL     1       6.563   1.031  10.962  0.00  0.00    +0.000 C 
ATOM     33  F   UNL     1       6.336  -0.295  11.049  0.00  0.00    +0.000 F 
ATOM     34  F   UNL     1       6.815   1.319   9.663  0.00  0.00    +0.000 F 
ATOM     35  F   UNL     1       7.701   1.294  11.653  0.00  0.00    +0.000 F 
ENDBRANCH  31  32
ENDBRANCH  30  31
ENDBRANCH  27  30
ENDBRANCH  21  24
ENDBRANCH   8  20
TORSDOF 7
ENDMDL
MODEL 5
REMARK VINA RESULT:      -7.7      0.817      1.176
REMARK  Name = 
REMARK  8 active torsions:
REMARK  status: ('A' for Active; 'I' for Inactive)
REMARK    1  A    between atoms: C_1  and  O_2
REMARK    2  A    between atoms: O_2  and  C_3
REMARK    3  A    between atoms: C_6  and  C_7
REMARK    4  A    between atoms: C_14  and  N_15
REMARK    5  A    between atoms: C_16  and  C_18
REMARK    6  A    between atoms: C_21  and  O_22
REMARK    7  A    between atoms: O_22  and  C_23
REMARK    8  A    between atoms: C_23  and  C_24
REMARK                            x       y       z     vdW  Elec       q    Type
REMARK                         _______ _______ _______ _____ _____    ______ ____
ROOT
ATOM      1  C   UNL     1      -2.545  12.397  20.688  0.00  0.00    +0.000 A 
ATOM      2  C   UNL     1      -2.899  12.527  22.055  0.00  0.00    +0.000 A 
ATOM      3  C   UNL     1      -1.949  12.619  23.073  0.00  0.00    +0.000 A 
ATOM      4  C   UNL     1      -0.604  12.625  22.751  0.00  0.00    +0.000 A 
ATOM      5  C   UNL     1      -0.209  12.521  21.420  0.00  0.00    +0.000 A 
ATOM      6  C   UNL     1      -1.154  12.361  20.382  0.00  0.00    +0.000 A 
ATOM      7  C   UNL     1      -0.633  12.156  18.975  0.00  0.00    +0.000 C 
ATOM      8  C   UNL     1       0.852  11.795  18.932  0.00  0.00    +0.000 C 
ATOM      9  C   UNL     1       1.580  12.737  19.882  0.00  0.00    +0.000 C 
ATOM     10  O   UNL     1       1.151  12.543  21.235  0.00  0.00    +0.000 OA
ENDROOT
BRANCH   1  14
ATOM     11  C   UNL     1      -5.726  12.350  17.831  0.00  0.00    +0.000 A 
ATOM     12  N   UNL     1      -5.892  13.032  18.985  0.00  0.00    +0.000 NA
ATOM     13  C   UNL     1      -4.862  12.986  19.870  0.00  0.00    +0.000 A 
ATOM     14  C   UNL     1      -3.644  12.315  19.682  0.00  0.00    +0.000 A 
ATOM     15  C   UNL     1      -3.536  11.629  18.465  0.00  0.00    +0.000 A 
ATOM     16  C   UNL     1      -4.586  11.620  17.551  0.00  0.00    +0.000 A 
ATOM     17  F   UNL     1      -4.459  10.927  16.410  0.00  0.00    +0.000 F 
BRANCH  11  19
ATOM     18  C   UNL     1      -7.420  13.624  16.856  0.00  0.00    +0.000 C 
ATOM     19  O   UNL     1      -6.715  12.388  16.870  0.00  0.00    +0.000 OA
ENDBRANCH  11  19
ENDBRANCH   1  14
BRANCH   8  20
ATOM     20  N   UNL     1       1.051  10.390  19.288  0.00  0.00    +0.000 N 
ATOM     21  C   UNL     1       1.785   9.546  18.489  0.00  0.00    +0.000 C 
ATOM     22  O   UNL     1       2.301   9.887  17.433  0.00  0.00    +0.000 OA
ATOM     23  H   UNL     1       0.969  10.163  20.270  0.00  0.00    +0.000 HD
BRANCH  21  24
ATOM     24  C   UNL     1       1.930   8.155  18.981  0.00  0.00    +0.000 A 
ATOM     25  C   UNL     1       1.605   7.784  20.285  0.00  0.00    +0.000 A 
ATOM     26  C   UNL     1       1.707   6.443  20.666  0.00  0.00    +0.000 A 
ATOM     27  C   UNL     1       2.135   5.512  19.724  0.00  0.00    +0.000 A 
ATOM     28  N   UNL     1       2.450   5.851  18.460  0.00  0.00    +0.000 NA
ATOM     29  C   UNL     1       2.335   7.158  18.109  0.00  0.00    +0.000 A 
BRANCH  27  30
ATOM     30  O   UNL     1       2.192   4.168  19.953  0.00  0.00    +0.000 OA
BRANCH  30  31
ATOM     31  C   UNL     1       3.251   3.462  19.301  0.00  0.00    +0.000 C 
BRANCH  31  32
ATOM     32  C   UNL     1       2.720   2.259  18.524  0.00  0.00    +0.000 C 
ATOM     33  F   UNL     1       2.209   2.581  17.318  0.00  0.00    +0.000 F 
ATOM     34  F   UNL     1       3.699   1.346  18.323  0.00  0.00    +0.000 F 
ATOM     35  F   UNL     1       1.739   1.640  19.227  0.00  0.00    +0.000 F 
ENDBRANCH  31  32
ENDBRANCH  30  31
ENDBRANCH  27  30
ENDBRANCH  21  24
ENDBRANCH   8  20
TORSDOF 7
ENDMDL
MODEL 6
REMARK VINA RESULT:      -7.6      1.045      1.297
REMARK  Name = 
REMARK  8 active torsions:
REMARK  status: ('A' for Active; 'I' for Inactive)
REMARK    1  A    between atoms: C_1  and  O_2
REMARK    2  A    between atoms: O_2  and  C_3
REMARK    3  A    between atoms: C_6  and  C_7
REMARK    4  A    between atoms: C_14  and  N_15
REMARK    5  A    between atoms: C_16  and  C_18
REMARK    6  A    between atoms: C_21  and  O_22
REMARK    7  A    between atoms: O_22  and  C_23
REMARK    8  A    between atoms: C_23  and  C_24
REMARK                            x       y       z     vdW  Elec       q    Type
REMARK                         _______ _______ _______ _____ _____    ______ ____
ROOT
ATOM      1  C   UNL     1      -2.950  12.723  21.088  0.00  0.00    +0.000 A 
ATOM      2  C   UNL     1      -3.356  12.479  22.425  0.00  0.00    +0.000 A 
ATOM      3  C   UNL     1      -2.474  12.552  23.504  0.00  0.00    +0.000 A 
ATOM      4  C   UNL     1      -1.157  12.915  23.285  0.00  0.00    +0.000 A 
ATOM      5  C   UNL     1      -0.718  13.184  21.991  0.00  0.00    +0.000 A 
ATOM      6  C   UNL     1      -1.580  13.051  20.879  0.00  0.00    +0.000 A 
ATOM      7  C   UNL     1      -0.993  13.268  19.499  0.00  0.00    +0.000 C 
ATOM      8  C   UNL     1       0.535  13.251  19.488  0.00  0.00    +0.000 C 
ATOM      9  C   UNL     1       1.012  14.102  20.659  0.00  0.00    +0.000 C 
ATOM     10  O   UNL     1       0.606  13.536  21.910  0.00  0.00    +0.000 OA
ENDROOT
BRANCH   1  14
ATOM     11  C   UNL     1      -5.914  12.633  18.008  0.00  0.00    +0.000 A 
ATOM     12  N   UNL     1      -6.093  13.453  19.065  0.00  0.00    +0.000 NA
ATOM     13  C   UNL     1      -5.137  13.417  20.029  0.00  0.00    +0.000 A 
ATOM     14  C   UNL     1      -3.979  12.624  20.012  0.00  0.00    +0.000 A 
ATOM     15  C   UNL     1      -3.854  11.798  18.888  0.00  0.00    +0.000 A 
ATOM     16  C   UNL     1      -4.833  11.777  17.899  0.00  0.00    +0.000 A 
ATOM     17  F   UNL     1      -4.695  10.951  16.853  0.00  0.00    +0.000 F 
BRANCH  11  19
ATOM     18  C   UNL     1      -7.048  13.955  16.455  0.00  0.00    +0.000 C 
ATOM     19  O   UNL     1      -6.826  12.648  16.972  0.00  0.00    +0.000 OA
ENDBRANCH  11  19
ENDBRANCH   1  14
BRANCH   8  20
ATOM     20  N   UNL     1       1.035  11.878  19.564  0.00  0.00    +0.000 N 
ATOM     21  C   UNL     1       0.521  10.883  18.768  0.00  0.00    +0.000 C 
ATOM     22  O   UNL     1      -0.387  11.056  17.965  0.00  0.00    +0.000 OA
ATOM     23  H   UNL     1       1.977  11.766  19.916  0.00  0.00    +0.000 HD
BRANCH  21  24
ATOM     24  C   UNL     1       1.137   9.545  18.927  0.00  0.00    +0.000 A 
ATOM     25  C   UNL     1       1.840   8.917  17.899  0.00  0.00    +0.000 A 
ATOM     26  C   UNL     1       2.450   7.682  18.136  0.00  0.00    +0.000 A 
ATOM     27  C   UNL     1       2.333   7.110  19.400  0.00  0.00    +0.000 A 
ATOM     28  N   UNL     1       1.662   7.703  20.404  0.00  0.00    +0.000 NA
ATOM     29  C   UNL     1       1.085   8.907  20.155  0.00  0.00    +0.000 A 
BRANCH  27  30
ATOM     30  O   UNL     1       2.954   5.954  19.773  0.00  0.00    +0.000 OA
BRANCH  30  31
ATOM     31  C   UNL     1       2.238   5.121  20.689  0.00  0.00    +0.000 C 
BRANCH  31  32
ATOM     32  C   UNL     1       1.694   3.874  19.996  0.00  0.00    +0.000 C 
ATOM     33  F   UNL     1       2.649   2.982  19.667  0.00  0.00    +0.000 F 
ATOM     34  F   UNL     1       0.795   3.240  20.785  0.00  0.00    +0.000 F 
ATOM     35  F   UNL     1       1.046   4.215  18.854  0.00  0.00    +0.000 F 
ENDBRANCH  31  32
ENDBRANCH  30  31
ENDBRANCH  27  30
ENDBRANCH  21  24
ENDBRANCH   8  20
TORSDOF 7
ENDMDL
MODEL 7
REMARK VINA RESULT:      -7.6      1.224      1.492
REMARK  Name = 
REMARK  8 active torsions:
REMARK  status: ('A' for Active; 'I' for Inactive)
REMARK    1  A    between atoms: C_1  and  O_2
REMARK    2  A    between atoms: O_2  and  C_3
REMARK    3  A    between atoms: C_6  and  C_7
REMARK    4  A    between atoms: C_14  and  N_15
REMARK    5  A    between atoms: C_16  and  C_18
REMARK    6  A    between atoms: C_21  and  O_22
REMARK    7  A    between atoms: O_22  and  C_23
REMARK    8  A    between atoms: C_23  and  C_24
REMARK                            x       y       z     vdW  Elec       q    Type
REMARK                         _______ _______ _______ _____ _____    ______ ____
ROOT
ATOM      1  C   UNL     1      -3.247  12.813  21.168  0.00  0.00    +0.000 A 
ATOM      2  C   UNL     1      -3.686  12.476  22.473  0.00  0.00    +0.000 A 
ATOM      3  C   UNL     1      -2.838  12.499  23.581  0.00  0.00    +0.000 A 
ATOM      4  C   UNL     1      -1.524  12.902  23.425  0.00  0.00    +0.000 A 
ATOM      5  C   UNL     1      -1.054  13.262  22.165  0.00  0.00    +0.000 A 
ATOM      6  C   UNL     1      -1.880  13.182  21.021  0.00  0.00    +0.000 A 
ATOM      7  C   UNL     1      -1.259  13.499  19.677  0.00  0.00    +0.000 C 
ATOM      8  C   UNL     1       0.270  13.514  19.711  0.00  0.00    +0.000 C 
ATOM      9  C   UNL     1       0.693  14.299  20.947  0.00  0.00    +0.000 C 
ATOM     10  O   UNL     1       0.264  13.645  22.147  0.00  0.00    +0.000 OA
ENDROOT
BRANCH   1  14
ATOM     11  C   UNL     1      -6.097  12.860  17.980  0.00  0.00    +0.000 A 
ATOM     12  N   UNL     1      -6.235  13.739  18.995  0.00  0.00    +0.000 NA
ATOM     13  C   UNL     1      -5.321  13.657  19.997  0.00  0.00    +0.000 A 
ATOM     14  C   UNL     1      -4.242  12.762  20.057  0.00  0.00    +0.000 A 
ATOM     15  C   UNL     1      -4.155  11.879  18.973  0.00  0.00    +0.000 A 
ATOM     16  C   UNL     1      -5.097  11.905  17.948  0.00  0.00    +0.000 A 
ATOM     17  F   UNL     1      -4.999  11.024  16.942  0.00  0.00    +0.000 F 
BRANCH  11  19
ATOM     18  C   UNL     1      -7.244  14.245  16.494  0.00  0.00    +0.000 C 
ATOM     19  O   UNL     1      -6.965  12.913  16.909  0.00  0.00    +0.000 OA
ENDBRANCH  11  19
ENDBRANCH   1  14
BRANCH   8  20
ATOM     20  N   UNL     1       0.798  12.150  19.715  0.00  0.00    +0.000 N 
ATOM     21  C   UNL     1       0.330  11.198  18.841  0.00  0.00    +0.000 C 
ATOM     22  O   UNL     1      -0.558  11.403  18.023  0.00  0.00    +0.000 OA
ATOM     23  H   UNL     1       1.732  12.035  20.088  0.00  0.00    +0.000 HD
BRANCH  21  24
ATOM     24  C   UNL     1       0.972   9.865  18.934  0.00  0.00    +0.000 A 
ATOM     25  C   UNL     1       1.589   9.253  17.844  0.00  0.00    +0.000 A 
ATOM     26  C   UNL     1       2.230   8.023  18.015  0.00  0.00    +0.000 A 
ATOM     27  C   UNL     1       2.229   7.440  19.279  0.00  0.00    +0.000 A 
ATOM     28  N   UNL     1       1.641   8.017  20.343  0.00  0.00    +0.000 NA
ATOM     29  C   UNL     1       1.033   9.216  20.156  0.00  0.00    +0.000 A 
BRANCH  27  30
ATOM     30  O   UNL     1       2.892   6.287  19.587  0.00  0.00    +0.000 OA
BRANCH  30  31
ATOM     31  C   UNL     1       3.572   5.643  18.507  0.00  0.00    +0.000 C 
BRANCH  31  32
ATOM     32  C   UNL     1       2.814   4.406  18.033  0.00  0.00    +0.000 C 
ATOM     33  F   UNL     1       2.613   3.493  19.004  0.00  0.00    +0.000 F 
ATOM     34  F   UNL     1       1.602   4.747  17.534  0.00  0.00    +0.000 F 
ATOM     35  F   UNL     1       3.495   3.791  17.033  0.00  0.00    +0.000 F 
ENDBRANCH  31  32
ENDBRANCH  30  31
ENDBRANCH  27  30
ENDBRANCH  21  24
ENDBRANCH   8  20
TORSDOF 7
ENDMDL
MODEL 8
REMARK VINA RESULT:      -7.5      1.126      1.458
REMARK  Name = 
REMARK  8 active torsions:
REMARK  status: ('A' for Active; 'I' for Inactive)
REMARK    1  A    between atoms: C_1  and  O_2
REMARK    2  A    between atoms: O_2  and  C_3
REMARK    3  A    between atoms: C_6  and  C_7
REMARK    4  A    between atoms: C_14  and  N_15
REMARK    5  A    between atoms: C_16  and  C_18
REMARK    6  A    between atoms: C_21  and  O_22
REMARK    7  A    between atoms: O_22  and  C_23
REMARK    8  A    between atoms: C_23  and  C_24
REMARK                            x       y       z     vdW  Elec       q    Type
REMARK                         _______ _______ _______ _____ _____    ______ ____
ROOT
ATOM      1  C   UNL     1      -3.013  12.676  21.076  0.00  0.00    +0.000 A 
ATOM      2  C   UNL     1      -3.372  12.547  22.442  0.00  0.00    +0.000 A 
ATOM      3  C   UNL     1      -2.426  12.496  23.466  0.00  0.00    +0.000 A 
ATOM      4  C   UNL     1      -1.082  12.615  23.160  0.00  0.00    +0.000 A 
ATOM      5  C   UNL     1      -0.684  12.764  21.834  0.00  0.00    +0.000 A 
ATOM      6  C   UNL     1      -1.622  12.752  20.778  0.00  0.00    +0.000 A 
ATOM      7  C   UNL     1      -1.094  12.821  19.360  0.00  0.00    +0.000 C 
ATOM      8  C   UNL     1       0.405  12.534  19.265  0.00  0.00    +0.000 C 
ATOM      9  C   UNL     1       1.094  13.323  20.372  0.00  0.00    +0.000 C 
ATOM     10  O   UNL     1       0.674  12.874  21.666  0.00  0.00    +0.000 OA
ENDROOT
BRANCH   1  14
ATOM     11  C   UNL     1      -6.139  12.634  18.159  0.00  0.00    +0.000 A 
ATOM     12  N   UNL     1      -5.050  11.860  17.963  0.00  0.00    +0.000 NA
ATOM     13  C   UNL     1      -4.074  11.938  18.905  0.00  0.00    +0.000 A 
ATOM     14  C   UNL     1      -4.108  12.728  20.064  0.00  0.00    +0.000 A 
ATOM     15  C   UNL     1      -5.265  13.506  20.207  0.00  0.00    +0.000 A 
ATOM     16  C   UNL     1      -6.268  13.484  19.242  0.00  0.00    +0.000 A 
ATOM     17  F   UNL     1      -7.347  14.264  19.398  0.00  0.00    +0.000 F 
BRANCH  11  19
ATOM     18  C   UNL     1      -7.265  13.725  16.430  0.00  0.00    +0.000 C 
ATOM     19  O   UNL     1      -7.187  12.574  17.264  0.00  0.00    +0.000 OA
ENDBRANCH  11  19
ENDBRANCH   1  14
BRANCH   8  20
ATOM     20  N   UNL     1       0.662  11.098  19.367  0.00  0.00    +0.000 N 
ATOM     21  C   UNL     1       1.645  10.491  18.622  0.00  0.00    +0.000 C 
ATOM     22  O   UNL     1       2.352  11.084  17.818  0.00  0.00    +0.000 OA
ATOM     23  H   UNL     1       0.381  10.656  20.233  0.00  0.00    +0.000 HD
BRANCH  21  24
ATOM     24  C   UNL     1       1.818   9.036  18.843  0.00  0.00    +0.000 A 
ATOM     25  C   UNL     1       2.332   8.185  17.866  0.00  0.00    +0.000 A 
ATOM     26  C   UNL     1       2.528   6.834  18.162  0.00  0.00    +0.000 A 
ATOM     27  C   UNL     1       2.197   6.373  19.433  0.00  0.00    +0.000 A 
ATOM     28  N   UNL     1       1.701   7.180  20.390  0.00  0.00    +0.000 NA
ATOM     29  C   UNL     1       1.529   8.491  20.084  0.00  0.00    +0.000 A 
BRANCH  27  30
ATOM     30  O   UNL     1       2.421   5.098  19.864  0.00  0.00    +0.000 OA
BRANCH  30  31
ATOM     31  C   UNL     1       1.272   4.254  19.961  0.00  0.00    +0.000 C 
BRANCH  31  32
ATOM     32  C   UNL     1       1.343   3.101  18.962  0.00  0.00    +0.000 C 
ATOM     33  F   UNL     1       2.320   2.213  19.236  0.00  0.00    +0.000 F 
ATOM     34  F   UNL     1       0.172   2.423  18.925  0.00  0.00    +0.000 F 
ATOM     35  F   UNL     1       1.566   3.575  17.711  0.00  0.00    +0.000 F 
ENDBRANCH  31  32
ENDBRANCH  30  31
ENDBRANCH  27  30
ENDBRANCH  21  24
ENDBRANCH   8  20
TORSDOF 7
ENDMDL
MODEL 9
REMARK VINA RESULT:      -7.5      1.033      1.368
REMARK  Name = 
REMARK  8 active torsions:
REMARK  status: ('A' for Active; 'I' for Inactive)
REMARK    1  A    between atoms: C_1  and  O_2
REMARK    2  A    between atoms: O_2  and  C_3
REMARK    3  A    between atoms: C_6  and  C_7
REMARK    4  A    between atoms: C_14  and  N_15
REMARK    5  A    between atoms: C_16  and  C_18
REMARK    6  A    between atoms: C_21  and  O_22
REMARK    7  A    between atoms: O_22  and  C_23
REMARK    8  A    between atoms: C_23  and  C_24
REMARK                            x       y       z     vdW  Elec       q    Type
REMARK                         _______ _______ _______ _____ _____    ______ ____
ROOT
ATOM      1  C   UNL     1      -2.303  12.489  20.669  0.00  0.00    +0.000 A 
ATOM      2  C   UNL     1      -2.628  12.732  22.028  0.00  0.00    +0.000 A 
ATOM      3  C   UNL     1      -1.657  12.929  23.009  0.00  0.00    +0.000 A 
ATOM      4  C   UNL     1      -0.319  12.931  22.654  0.00  0.00    +0.000 A 
ATOM      5  C   UNL     1       0.046  12.718  21.328  0.00  0.00    +0.000 A 
ATOM      6  C   UNL     1      -0.920  12.451  20.332  0.00  0.00    +0.000 A 
ATOM      7  C   UNL     1      -0.428  12.133  18.935  0.00  0.00    +0.000 C 
ATOM      8  C   UNL     1       1.062  11.796  18.887  0.00  0.00    +0.000 C 
ATOM      9  C   UNL     1       1.794  12.830  19.733  0.00  0.00    +0.000 C 
ATOM     10  O   UNL     1       1.400  12.747  21.108  0.00  0.00    +0.000 OA
ENDROOT
BRANCH   1  14
ATOM     11  C   UNL     1      -5.562  12.132  17.923  0.00  0.00    +0.000 A 
ATOM     12  N   UNL     1      -5.748  12.812  19.075  0.00  0.00    +0.000 NA
ATOM     13  C   UNL     1      -4.689  12.866  19.924  0.00  0.00    +0.000 A 
ATOM     14  C   UNL     1      -3.424  12.300  19.702  0.00  0.00    +0.000 A 
ATOM     15  C   UNL     1      -3.298  11.611  18.488  0.00  0.00    +0.000 A 
ATOM     16  C   UNL     1      -4.373  11.500  17.611  0.00  0.00    +0.000 A 
ATOM     17  F   UNL     1      -4.224  10.806  16.473  0.00  0.00    +0.000 F 
BRANCH  11  19
ATOM     18  C   UNL     1      -7.292  13.300  16.881  0.00  0.00    +0.000 C 
ATOM     19  O   UNL     1      -6.582  12.073  16.996  0.00  0.00    +0.000 OA
ENDBRANCH  11  19
ENDBRANCH   1  14
BRANCH   8  20
ATOM     20  N   UNL     1       1.297  10.431  19.358  0.00  0.00    +0.000 N 
ATOM     21  C   UNL     1       1.818   9.466  18.529  0.00  0.00    +0.000 C 
ATOM     22  O   UNL     1       2.103   9.661  17.355  0.00  0.00    +0.000 OA
ATOM     23  H   UNL     1       1.425  10.320  20.356  0.00  0.00    +0.000 HD
BRANCH  21  24
ATOM     24  C   UNL     1       2.031   8.134  19.142  0.00  0.00    +0.000 A 
ATOM     25  C   UNL     1       1.371   7.729  20.302  0.00  0.00    +0.000 A 
ATOM     26  C   UNL     1       1.570   6.436  20.792  0.00  0.00    +0.000 A 
ATOM     27  C   UNL     1       2.431   5.585  20.104  0.00  0.00    +0.000 A 
ATOM     28  N   UNL     1       3.074   5.958  18.982  0.00  0.00    +0.000 NA
ATOM     29  C   UNL     1       2.859   7.216  18.518  0.00  0.00    +0.000 A 
BRANCH  27  30
ATOM     30  O   UNL     1       2.638   4.278  20.437  0.00  0.00    +0.000 OA
BRANCH  30  31
ATOM     31  C   UNL     1       2.592   3.338  19.361  0.00  0.00    +0.000 C 
BRANCH  31  32
ATOM     32  C   UNL     1       1.156   3.080  18.911  0.00  0.00    +0.000 C 
ATOM     33  F   UNL     1       0.930   1.803  18.542  0.00  0.00    +0.000 F 
ATOM     34  F   UNL     1       0.281   3.381  19.899  0.00  0.00    +0.000 F 
ATOM     35  F   UNL     1       0.845   3.869  17.852  0.00  0.00    +0.000 F 
ENDBRANCH  31  32
ENDBRANCH  30  31
ENDBRANCH  27  30
ENDBRANCH  21  24
ENDBRANCH   8  20
TORSDOF 7
ENDMDL
