MODEL 1
REMARK VINA RESULT:      -7.7      0.000      0.000
REMARK  Name = 
REMARK  6 active torsions:
REMARK  status: ('A' for Active; 'I' for Inactive)
REMARK    1  A    between atoms: C_1  and  O_2
REMARK    2  A    between atoms: O_2  and  C_3
REMARK    3  A    between atoms: C_3  and  C_5
REMARK    4  A    between atoms: N_9  and  C_10
REMARK    5  A    between atoms: C_10  and  C_11
REMARK    6  A    between atoms: N_21  and  C_22
REMARK                            x       y       z     vdW  Elec       q    Type
REMARK                         _______ _______ _______ _____ _____    ______ ____
ROOT
ATOM      1  C   UNL     1       2.853   3.352  18.472  0.00  0.00    +0.000 A 
ATOM      2  C   UNL     1       3.939   2.952  17.822  0.00  0.00    +0.000 A 
ATOM      3  C   UNL     1       4.670   3.820  16.877  0.00  0.00    +0.000 A 
ATOM      4  O   UNL     1       5.487   3.269  16.139  0.00  0.00    +0.000 OA
ATOM      5  N   UNL     1       4.457   5.199  16.903  0.00  0.00    +0.000 N 
ATOM      6  C   UNL     1       3.437   5.870  17.604  0.00  0.00    +0.000 A 
ATOM      7  N   UNL     1       3.424   7.166  17.751  0.00  0.00    +0.000 NA
ATOM      8  S   UNL     1       2.145   4.847  18.160  0.00  0.00    +0.000 S 
ENDROOT
BRANCH   7   9
ATOM      9  C   UNL     1       2.441   7.881  18.494  0.00  0.00    +0.000 A 
ATOM     10  C   UNL     1       1.692   8.873  17.847  0.00  0.00    +0.000 A 
ATOM     11  C   UNL     1       0.783   9.668  18.567  0.00  0.00    +0.000 A 
ATOM     12  C   UNL     1       0.628   9.484  19.935  0.00  0.00    +0.000 A 
ATOM     13  F   UNL     1      -0.207  10.264  20.632  0.00  0.00    +0.000 F 
ATOM     14  C   UNL     1       1.310   8.479  20.588  0.00  0.00    +0.000 A 
ATOM     15  C   UNL     1       2.149   7.656  19.850  0.00  0.00    +0.000 A 
ENDBRANCH   7   9
BRANCH   1  16
ATOM     16  C   UNL     1       2.143   2.472  19.433  0.00  0.00    +0.000 C 
ATOM     17  O   UNL     1       1.123   1.835  19.142  0.00  0.00    +0.000 OA
BRANCH  16  19
ATOM     18  C   UNL     1       2.111   3.167  21.681  0.00  0.00    +0.000 C 
ATOM     19  O   UNL     1       2.759   2.449  20.638  0.00  0.00    +0.000 OA
ENDBRANCH  16  19
ENDBRANCH   1  16
BRANCH   5  20
ATOM     20  C   UNL     1       5.406   5.980  16.099  0.00  0.00    +0.000 C 
BRANCH  20  21
ATOM     21  C   UNL     1       6.478   6.602  16.964  0.00  0.00    +0.000 A 
ATOM     22  C   UNL     1       7.205   5.878  17.944  0.00  0.00    +0.000 A 
ATOM     23  C   UNL     1       8.106   6.540  18.799  0.00  0.00    +0.000 A 
ATOM     24  C   UNL     1       8.250   7.901  18.637  0.00  0.00    +0.000 A 
ATOM     25  C   UNL     1       7.530   8.598  17.696  0.00  0.00    +0.000 A 
ATOM     26  C   UNL     1       6.669   7.983  16.835  0.00  0.00    +0.000 A 
ATOM     27  O   UNL     1       7.796   9.930  17.706  0.00  0.00    +0.000 OA
ATOM     28  C   UNL     1       9.033   9.882  18.433  0.00  0.00    +0.000 C 
ATOM     29  O   UNL     1       9.118   8.725  19.295  0.00  0.00    +0.000 OA
ENDBRANCH  20  21
ENDBRANCH   5  20
TORSDOF 5
ENDMDL
MODEL 2
REMARK VINA RESULT:      -7.4      2.446      3.406
REMARK  Name = 
REMARK  6 active torsions:
REMARK  status: ('A' for Active; 'I' for Inactive)
REMARK    1  A    between atoms: C_1  and  O_2
REMARK    2  A    between atoms: O_2  and  C_3
REMARK    3  A    between atoms: C_3  and  C_5
REMARK    4  A    between atoms: N_9  and  C_10
REMARK    5  A    between atoms: C_10  and  C_11
REMARK    6  A    between atoms: N_21  and  C_22
REMARK                            x       y       z     vdW  Elec       q    Type
REMARK                         _______ _______ _______ _____ _____    ______ ____
ROOT
ATOM      1  C   UNL     1       2.675   3.910  20.221  0.00  0.00    +0.000 A 
ATOM      2  C   UNL     1       3.909   3.456  20.041  0.00  0.00    +0.000 A 
ATOM      3  C   UNL     1       4.874   4.102  19.128  0.00  0.00    +0.000 A 
ATOM      4  O   UNL     1       5.879   3.453  18.836  0.00  0.00    +0.000 OA
ATOM      5  N   UNL     1       4.644   5.409  18.697  0.00  0.00    +0.000 N 
ATOM      6  C   UNL     1       3.455   6.143  18.865  0.00  0.00    +0.000 A 
ATOM      7  N   UNL     1       3.381   7.423  18.623  0.00  0.00    +0.000 NA
ATOM      8  S   UNL     1       2.070   5.189  19.310  0.00  0.00    +0.000 S 
ENDROOT
BRANCH   7   9
ATOM      9  C   UNL     1       2.214   8.214  18.827  0.00  0.00    +0.000 A 
ATOM     10  C   UNL     1       1.605   8.820  17.721  0.00  0.00    +0.000 A 
ATOM     11  C   UNL     1       0.512   9.687  17.890  0.00  0.00    +0.000 A 
ATOM     12  C   UNL     1       0.031   9.962  19.165  0.00  0.00    +0.000 A 
ATOM     13  F   UNL     1      -0.985  10.817  19.335  0.00  0.00    +0.000 F 
ATOM     14  C   UNL     1       0.574   9.338  20.267  0.00  0.00    +0.000 A 
ATOM     15  C   UNL     1       1.606   8.429  20.076  0.00  0.00    +0.000 A 
ENDBRANCH   7   9
BRANCH   1  16
ATOM     16  C   UNL     1       1.727   3.258  21.157  0.00  0.00    +0.000 C 
ATOM     17  O   UNL     1       1.995   3.031  22.343  0.00  0.00    +0.000 OA
BRANCH  16  19
ATOM     18  C   UNL     1       0.631   2.165  19.385  0.00  0.00    +0.000 C 
ATOM     19  O   UNL     1       0.549   2.970  20.554  0.00  0.00    +0.000 OA
ENDBRANCH  16  19
ENDBRANCH   1  16
BRANCH   5  20
ATOM     20  C   UNL     1       5.776   6.032  17.998  0.00  0.00    +0.000 C 
BRANCH  20  21
ATOM     21  C   UNL     1       5.894   5.524  16.579  0.00  0.00    +0.000 A 
ATOM     22  C   UNL     1       4.931   4.677  15.974  0.00  0.00    +0.000 A 
ATOM     23  C   UNL     1       5.156   4.142  14.692  0.00  0.00    +0.000 A 
ATOM     24  C   UNL     1       6.335   4.480  14.061  0.00  0.00    +0.000 A 
ATOM     25  C   UNL     1       7.270   5.288  14.662  0.00  0.00    +0.000 A 
ATOM     26  C   UNL     1       7.071   5.844  15.892  0.00  0.00    +0.000 A 
ATOM     27  O   UNL     1       8.372   5.487  13.892  0.00  0.00    +0.000 OA
ATOM     28  C   UNL     1       7.811   5.080  12.634  0.00  0.00    +0.000 C 
ATOM     29  O   UNL     1       6.722   4.144  12.796  0.00  0.00    +0.000 OA
ENDBRANCH  20  21
ENDBRANCH   5  20
TORSDOF 5
ENDMDL
MODEL 3
REMARK VINA RESULT:      -7.0      0.644      1.021
REMARK  Name = 
REMARK  6 active torsions:
REMARK  status: ('A' for Active; 'I' for Inactive)
REMARK    1  A    between atoms: C_1  and  O_2
REMARK    2  A    between atoms: O_2  and  C_3
REMARK    3  A    between atoms: C_3  and  C_5
REMARK    4  A    between atoms: N_9  and  C_10
REMARK    5  A    between atoms: C_10  and  C_11
REMARK    6  A    between atoms: N_21  and  C_22
REMARK                            x       y       z     vdW  Elec       q    Type
REMARK                         _______ _______ _______ _____ _____    ______ ____
ROOT
ATOM      1  C   UNL     1       2.993   3.761  19.171  0.00  0.00    +0.000 A 
ATOM      2  C   UNL     1       4.106   3.347  18.577  0.00  0.00    +0.000 A 
ATOM      3  C   UNL     1       4.774   4.115  17.507  0.00  0.00    +0.000 A 
ATOM      4  O   UNL     1       5.629   3.520  16.851  0.00  0.00    +0.000 OA
ATOM      5  N   UNL     1       4.462   5.463  17.330  0.00  0.00    +0.000 N 
ATOM      6  C   UNL     1       3.396   6.157  17.934  0.00  0.00    +0.000 A 
ATOM      7  N   UNL     1       3.289   7.456  17.887  0.00  0.00    +0.000 NA
ATOM      8  S   UNL     1       2.180   5.139  18.648  0.00  0.00    +0.000 S 
ENDROOT
BRANCH   7   9
ATOM      9  C   UNL     1       2.258   8.202  18.525  0.00  0.00    +0.000 A 
ATOM     10  C   UNL     1       1.498   9.098  17.762  0.00  0.00    +0.000 A 
ATOM     11  C   UNL     1       0.538   9.924  18.371  0.00  0.00    +0.000 A 
ATOM     12  C   UNL     1       0.341   9.867  19.746  0.00  0.00    +0.000 A 
ATOM     13  F   UNL     1      -0.545  10.678  20.336  0.00  0.00    +0.000 F 
ATOM     14  C   UNL     1       1.033   8.956  20.514  0.00  0.00    +0.000 A 
ATOM     15  C   UNL     1       1.926   8.097  19.887  0.00  0.00    +0.000 A 
ENDBRANCH   7   9
BRANCH   1  16
ATOM     16  C   UNL     1       2.347   2.985  20.258  0.00  0.00    +0.000 C 
ATOM     17  O   UNL     1       2.960   2.569  21.249  0.00  0.00    +0.000 OA
BRANCH  16  19
ATOM     18  C   UNL     1       0.684   2.061  18.873  0.00  0.00    +0.000 C 
ATOM     19  O   UNL     1       1.023   2.814  20.031  0.00  0.00    +0.000 OA
ENDBRANCH  16  19
ENDBRANCH   1  16
BRANCH   5  20
ATOM     20  C   UNL     1       5.353   6.183  16.410  0.00  0.00    +0.000 C 
BRANCH  20  21
ATOM     21  C   UNL     1       6.484   6.857  17.154  0.00  0.00    +0.000 A 
ATOM     22  C   UNL     1       7.317   6.181  18.081  0.00  0.00    +0.000 A 
ATOM     23  C   UNL     1       8.275   6.890  18.829  0.00  0.00    +0.000 A 
ATOM     24  C   UNL     1       8.367   8.249  18.617  0.00  0.00    +0.000 A 
ATOM     25  C   UNL     1       7.544   8.898  17.727  0.00  0.00    +0.000 A 
ATOM     26  C   UNL     1       6.624   8.237  16.968  0.00  0.00    +0.000 A 
ATOM     27  O   UNL     1       7.773  10.237  17.675  0.00  0.00    +0.000 OA
ATOM     28  C   UNL     1       9.073  10.241  18.284  0.00  0.00    +0.000 C 
ATOM     29  O   UNL     1       9.269   9.113  19.167  0.00  0.00    +0.000 OA
ENDBRANCH  20  21
ENDBRANCH   5  20
TORSDOF 5
ENDMDL
MODEL 4
REMARK VINA RESULT:      -6.8      7.973     12.019
REMARK  Name = 
REMARK  6 active torsions:
REMARK  status: ('A' for Active; 'I' for Inactive)
REMARK    1  A    between atoms: C_1  and  O_2
REMARK    2  A    between atoms: O_2  and  C_3
REMARK    3  A    between atoms: C_3  and  C_5
REMARK    4  A    between atoms: N_9  and  C_10
REMARK    5  A    between atoms: C_10  and  C_11
REMARK    6  A    between atoms: N_21  and  C_22
REMARK                            x       y       z     vdW  Elec       q    Type
REMARK                         _______ _______ _______ _____ _____    ______ ____
ROOT
ATOM      1  C   UNL     1       0.885  15.090  19.987  0.00  0.00    +0.000 A 
ATOM      2  C   UNL     1       1.056  15.353  21.276  0.00  0.00    +0.000 A 
ATOM      3  C   UNL     1       0.170  14.812  22.327  0.00  0.00    +0.000 A 
ATOM      4  O   UNL     1       0.254  15.330  23.442  0.00  0.00    +0.000 OA
ATOM      5  N   UNL     1      -0.657  13.726  22.039  0.00  0.00    +0.000 N 
ATOM      6  C   UNL     1      -0.914  13.193  20.762  0.00  0.00    +0.000 A 
ATOM      7  N   UNL     1      -1.528  12.055  20.588  0.00  0.00    +0.000 NA
ATOM      8  S   UNL     1      -0.449  14.221  19.439  0.00  0.00    +0.000 S 
ENDROOT
BRANCH   7   9
ATOM      9  C   UNL     1      -1.763  11.454  19.319  0.00  0.00    +0.000 A 
ATOM     10  C   UNL     1      -2.971  11.716  18.659  0.00  0.00    +0.000 A 
ATOM     11  C   UNL     1      -3.285  11.066  17.453  0.00  0.00    +0.000 A 
ATOM     12  C   UNL     1      -2.400  10.144  16.907  0.00  0.00    +0.000 A 
ATOM     13  F   UNL     1      -2.711   9.494  15.779  0.00  0.00    +0.000 F 
ATOM     14  C   UNL     1      -1.181   9.907  17.504  0.00  0.00    +0.000 A 
ATOM     15  C   UNL     1      -0.855  10.610  18.657  0.00  0.00    +0.000 A 
ENDBRANCH   7   9
BRANCH   1  16
ATOM     16  C   UNL     1       1.797  15.626  18.947  0.00  0.00    +0.000 C 
ATOM     17  O   UNL     1       1.468  16.511  18.148  0.00  0.00    +0.000 OA
BRANCH  16  19
ATOM     18  C   UNL     1       3.128  13.778  18.354  0.00  0.00    +0.000 C 
ATOM     19  O   UNL     1       3.016  15.039  19.002  0.00  0.00    +0.000 OA
ENDBRANCH  16  19
ENDBRANCH   1  16
BRANCH   5  20
ATOM     20  C   UNL     1      -1.306  13.122  23.210  0.00  0.00    +0.000 C 
BRANCH  20  21
ATOM     21  C   UNL     1      -2.761  13.521  23.299  0.00  0.00    +0.000 A 
ATOM     22  C   UNL     1      -3.220  14.845  23.078  0.00  0.00    +0.000 A 
ATOM     23  C   UNL     1      -4.571  15.178  23.292  0.00  0.00    +0.000 A 
ATOM     24  C   UNL     1      -5.413  14.170  23.714  0.00  0.00    +0.000 A 
ATOM     25  C   UNL     1      -4.956  12.894  23.941  0.00  0.00    +0.000 A 
ATOM     26  C   UNL     1      -3.660  12.533  23.718  0.00  0.00    +0.000 A 
ATOM     27  O   UNL     1      -5.932  12.052  24.372  0.00  0.00    +0.000 OA
ATOM     28  C   UNL     1      -7.065  12.835  23.966  0.00  0.00    +0.000 C 
ATOM     29  O   UNL     1      -6.762  14.247  23.905  0.00  0.00    +0.000 OA
ENDBRANCH  20  21
ENDBRANCH   5  20
TORSDOF 5
ENDMDL
MODEL 5
REMARK VINA RESULT:      -6.7      6.649      9.299
REMARK  Name = 
REMARK  6 active torsions:
REMARK  status: ('A' for Active; 'I' for Inactive)
REMARK    1  A    between atoms: C_1  and  O_2
REMARK    2  A    between atoms: O_2  and  C_3
REMARK    3  A    between atoms: C_3  and  C_5
REMARK    4  A    between atoms: N_9  and  C_10
REMARK    5  A    between atoms: C_10  and  C_11
REMARK    6  A    between atoms: N_21  and  C_22
REMARK                            x       y       z     vdW  Elec       q    Type
REMARK                         _______ _______ _______ _____ _____    ______ ____
ROOT
ATOM      1  C   UNL     1      -4.937  11.254  18.427  0.00  0.00    +0.000 A 
ATOM      2  C   UNL     1      -4.037  10.558  17.743  0.00  0.00    +0.000 A 
ATOM      3  C   UNL     1      -2.592  10.861  17.782  0.00  0.00    +0.000 A 
ATOM      4  O   UNL     1      -1.893  10.336  16.916  0.00  0.00    +0.000 OA
ATOM      5  N   UNL     1      -2.083  11.658  18.809  0.00  0.00    +0.000 N 
ATOM      6  C   UNL     1      -2.838  12.409  19.730  0.00  0.00    +0.000 A 
ATOM      7  N   UNL     1      -2.307  12.961  20.786  0.00  0.00    +0.000 NA
ATOM      8  S   UNL     1      -4.506  12.633  19.290  0.00  0.00    +0.000 S 
ENDROOT
BRANCH   7   9
ATOM      9  C   UNL     1      -3.039  13.685  21.770  0.00  0.00    +0.000 A 
ATOM     10  C   UNL     1      -3.636  12.981  22.824  0.00  0.00    +0.000 A 
ATOM     11  C   UNL     1      -4.449  13.644  23.760  0.00  0.00    +0.000 A 
ATOM     12  C   UNL     1      -4.677  15.010  23.640  0.00  0.00    +0.000 A 
ATOM     13  F   UNL     1      -5.481  15.639  24.506  0.00  0.00    +0.000 F 
ATOM     14  C   UNL     1      -4.059  15.738  22.647  0.00  0.00    +0.000 A 
ATOM     15  C   UNL     1      -3.202  15.081  21.774  0.00  0.00    +0.000 A 
ENDBRANCH   7   9
BRANCH   1  16
ATOM     16  C   UNL     1      -6.382  10.922  18.391  0.00  0.00    +0.000 C 
ATOM     17  O   UNL     1      -7.232  11.652  17.867  0.00  0.00    +0.000 OA
BRANCH  16  19
ATOM     18  C   UNL     1      -7.302   9.787  20.235  0.00  0.00    +0.000 C 
ATOM     19  O   UNL     1      -6.635   9.729  18.981  0.00  0.00    +0.000 OA
ENDBRANCH  16  19
ENDBRANCH   1  16
BRANCH   5  20
ATOM     20  C   UNL     1      -0.617  11.692  18.889  0.00  0.00    +0.000 C 
BRANCH  20  21
ATOM     21  C   UNL     1      -0.069  10.414  19.481  0.00  0.00    +0.000 A 
ATOM     22  C   UNL     1      -0.429   9.935  20.766  0.00  0.00    +0.000 A 
ATOM     23  C   UNL     1       0.205   8.803  21.310  0.00  0.00    +0.000 A 
ATOM     24  C   UNL     1       1.174   8.189  20.544  0.00  0.00    +0.000 A 
ATOM     25  C   UNL     1       1.529   8.670  19.306  0.00  0.00    +0.000 A 
ATOM     26  C   UNL     1       0.915   9.749  18.740  0.00  0.00    +0.000 A 
ATOM     27  O   UNL     1       2.515   7.944  18.719  0.00  0.00    +0.000 OA
ATOM     28  C   UNL     1       2.400   6.762  19.526  0.00  0.00    +0.000 C 
ATOM     29  O   UNL     1       1.856   7.043  20.835  0.00  0.00    +0.000 OA
ENDBRANCH  20  21
ENDBRANCH   5  20
TORSDOF 5
ENDMDL
MODEL 6
REMARK VINA RESULT:      -6.7      6.582      9.227
REMARK  Name = 
REMARK  6 active torsions:
REMARK  status: ('A' for Active; 'I' for Inactive)
REMARK    1  A    between atoms: C_1  and  O_2
REMARK    2  A    between atoms: O_2  and  C_3
REMARK    3  A    between atoms: C_3  and  C_5
REMARK    4  A    between atoms: N_9  and  C_10
REMARK    5  A    between atoms: C_10  and  C_11
REMARK    6  A    between atoms: N_21  and  C_22
REMARK                            x       y       z     vdW  Elec       q    Type
REMARK                         _______ _______ _______ _____ _____    ______ ____
ROOT
ATOM      1  C   UNL     1      -4.961  11.289  18.691  0.00  0.00    +0.000 A 
ATOM      2  C   UNL     1      -4.170  10.690  17.809  0.00  0.00    +0.000 A 
ATOM      3  C   UNL     1      -2.745  11.043  17.643  0.00  0.00    +0.000 A 
ATOM      4  O   UNL     1      -2.185  10.622  16.630  0.00  0.00    +0.000 OA
ATOM      5  N   UNL     1      -2.093  11.764  18.644  0.00  0.00    +0.000 N 
ATOM      6  C   UNL     1      -2.704  12.402  19.741  0.00  0.00    +0.000 A 
ATOM      7  N   UNL     1      -2.019  12.878  20.744  0.00  0.00    +0.000 NA
ATOM      8  S   UNL     1      -4.425  12.602  19.598  0.00  0.00    +0.000 S 
ENDROOT
BRANCH   7   9
ATOM      9  C   UNL     1      -2.597  13.485  21.896  0.00  0.00    +0.000 A 
ATOM     10  C   UNL     1      -2.690  14.882  21.951  0.00  0.00    +0.000 A 
ATOM     11  C   UNL     1      -3.162  15.523  23.110  0.00  0.00    +0.000 A 
ATOM     12  C   UNL     1      -3.531  14.774  24.220  0.00  0.00    +0.000 A 
ATOM     13  F   UNL     1      -3.945  15.381  25.339  0.00  0.00    +0.000 F 
ATOM     14  C   UNL     1      -3.503  13.397  24.175  0.00  0.00    +0.000 A 
ATOM     15  C   UNL     1      -3.103  12.776  22.999  0.00  0.00    +0.000 A 
ENDBRANCH   7   9
BRANCH   1  16
ATOM     16  C   UNL     1      -6.384  10.907  18.857  0.00  0.00    +0.000 C 
ATOM     17  O   UNL     1      -6.754   9.744  19.059  0.00  0.00    +0.000 OA
BRANCH  16  19
ATOM     18  C   UNL     1      -7.239  12.642  17.516  0.00  0.00    +0.000 C 
ATOM     19  O   UNL     1      -7.202  11.983  18.776  0.00  0.00    +0.000 OA
ENDBRANCH  16  19
ENDBRANCH   1  16
BRANCH   5  20
ATOM     20  C   UNL     1      -0.635  11.847  18.490  0.00  0.00    +0.000 C 
BRANCH  20  21
ATOM     21  C   UNL     1       0.042  10.585  18.977  0.00  0.00    +0.000 A 
ATOM     22  C   UNL     1      -0.105  10.083  20.295  0.00  0.00    +0.000 A 
ATOM     23  C   UNL     1       0.644   8.971  20.723  0.00  0.00    +0.000 A 
ATOM     24  C   UNL     1       1.508   8.400  19.813  0.00  0.00    +0.000 A 
ATOM     25  C   UNL     1       1.656   8.903  18.542  0.00  0.00    +0.000 A 
ATOM     26  C   UNL     1       0.926   9.963  18.088  0.00  0.00    +0.000 A 
ATOM     27  O   UNL     1       2.568   8.218  17.804  0.00  0.00    +0.000 OA
ATOM     28  C   UNL     1       2.618   7.027  18.604  0.00  0.00    +0.000 C 
ATOM     29  O   UNL     1       2.266   7.278  19.984  0.00  0.00    +0.000 OA
ENDBRANCH  20  21
ENDBRANCH   5  20
TORSDOF 5
ENDMDL
MODEL 7
REMARK VINA RESULT:      -6.6      6.430      9.033
REMARK  Name = 
REMARK  6 active torsions:
REMARK  status: ('A' for Active; 'I' for Inactive)
REMARK    1  A    between atoms: C_1  and  O_2
REMARK    2  A    between atoms: O_2  and  C_3
REMARK    3  A    between atoms: C_3  and  C_5
REMARK    4  A    between atoms: N_9  and  C_10
REMARK    5  A    between atoms: C_10  and  C_11
REMARK    6  A    between atoms: N_21  and  C_22
REMARK                            x       y       z     vdW  Elec       q    Type
REMARK                         _______ _______ _______ _____ _____    ______ ____
ROOT
ATOM      1  C   UNL     1      -4.654  11.396  18.898  0.00  0.00    +0.000 A 
ATOM      2  C   UNL     1      -3.923  10.742  18.004  0.00  0.00    +0.000 A 
ATOM      3  C   UNL     1      -2.490  11.022  17.784  0.00  0.00    +0.000 A 
ATOM      4  O   UNL     1      -1.985  10.555  16.762  0.00  0.00    +0.000 OA
ATOM      5  N   UNL     1      -1.770  11.729  18.748  0.00  0.00    +0.000 N 
ATOM      6  C   UNL     1      -2.312  12.417  19.851  0.00  0.00    +0.000 A 
ATOM      7  N   UNL     1      -1.572  12.878  20.821  0.00  0.00    +0.000 NA
ATOM      8  S   UNL     1      -4.026  12.698  19.760  0.00  0.00    +0.000 S 
ENDROOT
BRANCH   7   9
ATOM      9  C   UNL     1      -2.080  13.534  21.979  0.00  0.00    +0.000 A 
ATOM     10  C   UNL     1      -2.649  12.761  23.000  0.00  0.00    +0.000 A 
ATOM     11  C   UNL     1      -3.250  13.375  24.113  0.00  0.00    +0.000 A 
ATOM     12  C   UNL     1      -3.296  14.761  24.204  0.00  0.00    +0.000 A 
ATOM     13  F   UNL     1      -3.901  15.350  25.242  0.00  0.00    +0.000 F 
ATOM     14  C   UNL     1      -2.696  15.545  23.243  0.00  0.00    +0.000 A 
ATOM     15  C   UNL     1      -2.044  14.923  22.187  0.00  0.00    +0.000 A 
ENDBRANCH   7   9
BRANCH   1  16
ATOM     16  C   UNL     1      -6.088  11.088  19.118  0.00  0.00    +0.000 C 
ATOM     17  O   UNL     1      -6.875  10.830  18.199  0.00  0.00    +0.000 OA
BRANCH  16  19
ATOM     18  C   UNL     1      -7.671  11.676  20.758  0.00  0.00    +0.000 C 
ATOM     19  O   UNL     1      -6.407  11.109  20.434  0.00  0.00    +0.000 OA
ENDBRANCH  16  19
ENDBRANCH   1  16
BRANCH   5  20
ATOM     20  C   UNL     1      -0.316  11.737  18.545  0.00  0.00    +0.000 C 
BRANCH  20  21
ATOM     21  C   UNL     1       0.310  10.437  18.997  0.00  0.00    +0.000 A 
ATOM     22  C   UNL     1       0.153   9.911  20.305  0.00  0.00    +0.000 A 
ATOM     23  C   UNL     1       0.857   8.759  20.700  0.00  0.00    +0.000 A 
ATOM     24  C   UNL     1       1.688   8.171  19.769  0.00  0.00    +0.000 A 
ATOM     25  C   UNL     1       1.846   8.697  18.509  0.00  0.00    +0.000 A 
ATOM     26  C   UNL     1       1.159   9.797  18.086  0.00  0.00    +0.000 A 
ATOM     27  O   UNL     1       2.721   7.990  17.747  0.00  0.00    +0.000 OA
ATOM     28  C   UNL     1       2.726   6.780  18.519  0.00  0.00    +0.000 C 
ATOM     29  O   UNL     1       2.398   7.014  19.907  0.00  0.00    +0.000 OA
ENDBRANCH  20  21
ENDBRANCH   5  20
TORSDOF 5
ENDMDL
MODEL 8
REMARK VINA RESULT:      -6.6      3.966      7.092
REMARK  Name = 
REMARK  6 active torsions:
REMARK  status: ('A' for Active; 'I' for Inactive)
REMARK    1  A    between atoms: C_1  and  O_2
REMARK    2  A    between atoms: O_2  and  C_3
REMARK    3  A    between atoms: C_3  and  C_5
REMARK    4  A    between atoms: N_9  and  C_10
REMARK    5  A    between atoms: C_10  and  C_11
REMARK    6  A    between atoms: N_21  and  C_22
REMARK                            x       y       z     vdW  Elec       q    Type
REMARK                         _______ _______ _______ _____ _____    ______ ____
ROOT
ATOM      1  C   UNL     1       1.920   5.264  20.646  0.00  0.00    +0.000 A 
ATOM      2  C   UNL     1       1.203   6.291  21.087  0.00  0.00    +0.000 A 
ATOM      3  C   UNL     1       1.446   7.681  20.652  0.00  0.00    +0.000 A 
ATOM      4  O   UNL     1       0.912   8.570  21.317  0.00  0.00    +0.000 OA
ATOM      5  N   UNL     1       2.198   7.922  19.502  0.00  0.00    +0.000 N 
ATOM      6  C   UNL     1       2.959   6.973  18.793  0.00  0.00    +0.000 A 
ATOM      7  N   UNL     1       3.465   7.220  17.616  0.00  0.00    +0.000 NA
ATOM      8  S   UNL     1       3.261   5.494  19.655  0.00  0.00    +0.000 S 
ENDROOT
BRANCH   7   9
ATOM      9  C   UNL     1       4.197   6.275  16.841  0.00  0.00    +0.000 A 
ATOM     10  C   UNL     1       3.955   4.908  17.035  0.00  0.00    +0.000 A 
ATOM     11  C   UNL     1       4.724   3.942  16.363  0.00  0.00    +0.000 A 
ATOM     12  C   UNL     1       5.743   4.336  15.504  0.00  0.00    +0.000 A 
ATOM     13  F   UNL     1       6.503   3.421  14.891  0.00  0.00    +0.000 F 
ATOM     14  C   UNL     1       5.967   5.672  15.251  0.00  0.00    +0.000 A 
ATOM     15  C   UNL     1       5.152   6.613  15.867  0.00  0.00    +0.000 A 
ENDBRANCH   7   9
BRANCH   1  16
ATOM     16  C   UNL     1       1.648   3.872  21.079  0.00  0.00    +0.000 C 
ATOM     17  O   UNL     1       2.157   3.364  22.085  0.00  0.00    +0.000 OA
BRANCH  16  19
ATOM     18  C   UNL     1       1.342   2.340  19.319  0.00  0.00    +0.000 C 
ATOM     19  O   UNL     1       0.774   3.253  20.250  0.00  0.00    +0.000 OA
ENDBRANCH  16  19
ENDBRANCH   1  16
BRANCH   5  20
ATOM     20  C   UNL     1       2.171   9.313  19.032  0.00  0.00    +0.000 C 
BRANCH  20  21
ATOM     21  C   UNL     1       0.759   9.767  18.739  0.00  0.00    +0.000 A 
ATOM     22  C   UNL     1      -0.032   9.224  17.694  0.00  0.00    +0.000 A 
ATOM     23  C   UNL     1      -1.294   9.771  17.396  0.00  0.00    +0.000 A 
ATOM     24  C   UNL     1      -1.720  10.837  18.160  0.00  0.00    +0.000 A 
ATOM     25  C   UNL     1      -0.940  11.367  19.160  0.00  0.00    +0.000 A 
ATOM     26  C   UNL     1       0.276  10.844  19.491  0.00  0.00    +0.000 A 
ATOM     27  O   UNL     1      -1.524  12.425  19.782  0.00  0.00    +0.000 OA
ATOM     28  C   UNL     1      -2.872  12.191  19.349  0.00  0.00    +0.000 C 
ATOM     29  O   UNL     1      -2.930  11.466  18.100  0.00  0.00    +0.000 OA
ENDBRANCH  20  21
ENDBRANCH   5  20
TORSDOF 5
ENDMDL
MODEL 9
REMARK VINA RESULT:      -6.5      2.478      3.278
REMARK  Name = 
REMARK  6 active torsions:
REMARK  status: ('A' for Active; 'I' for Inactive)
REMARK    1  A    between atoms: C_1  and  O_2
REMARK    2  A    between atoms: O_2  and  C_3
REMARK    3  A    between atoms: C_3  and  C_5
REMARK    4  A    between atoms: N_9  and  C_10
REMARK    5  A    between atoms: C_10  and  C_11
REMARK    6  A    between atoms: N_21  and  C_22
REMARK                            x       y       z     vdW  Elec       q    Type
REMARK                         _______ _______ _______ _____ _____    ______ ____
ROOT
ATOM      1  C   UNL     1       1.958   3.292  18.984  0.00  0.00    +0.000 A 
ATOM      2  C   UNL     1       3.096   2.631  18.813  0.00  0.00    +0.000 A 
ATOM      3  C   UNL     1       4.292   3.242  18.198  0.00  0.00    +0.000 A 
ATOM      4  O   UNL     1       5.187   2.473  17.846  0.00  0.00    +0.000 OA
ATOM      5  N   UNL     1       4.383   4.631  18.102  0.00  0.00    +0.000 N 
ATOM      6  C   UNL     1       3.343   5.551  18.338  0.00  0.00    +0.000 A 
ATOM      7  N   UNL     1       3.552   6.835  18.433  0.00  0.00    +0.000 NA
ATOM      8  S   UNL     1       1.751   4.851  18.383  0.00  0.00    +0.000 S 
ENDROOT
BRANCH   7   9
ATOM      9  C   UNL     1       2.540   7.795  18.721  0.00  0.00    +0.000 A 
ATOM     10  C   UNL     1       2.099   8.644  17.697  0.00  0.00    +0.000 A 
ATOM     11  C   UNL     1       1.176   9.669  17.963  0.00  0.00    +0.000 A 
ATOM     12  C   UNL     1       0.697   9.858  19.254  0.00  0.00    +0.000 A 
ATOM     13  F   UNL     1      -0.153  10.857  19.521  0.00  0.00    +0.000 F 
ATOM     14  C   UNL     1       1.069   9.005  20.270  0.00  0.00    +0.000 A 
ATOM     15  C   UNL     1       1.927   7.953  19.976  0.00  0.00    +0.000 A 
ENDBRANCH   7   9
BRANCH   1  16
ATOM     16  C   UNL     1       0.774   2.667  19.622  0.00  0.00    +0.000 C 
ATOM     17  O   UNL     1      -0.031   1.958  19.006  0.00  0.00    +0.000 OA
BRANCH  16  19
ATOM     18  C   UNL     1       1.949   3.022  21.629  0.00  0.00    +0.000 C 
ATOM     19  O   UNL     1       0.705   2.959  20.942  0.00  0.00    +0.000 OA
ENDBRANCH  16  19
ENDBRANCH   1  16
BRANCH   5  20
ATOM     20  C   UNL     1       5.704   5.133  17.703  0.00  0.00    +0.000 C 
BRANCH  20  21
ATOM     21  C   UNL     1       5.928   4.972  16.216  0.00  0.00    +0.000 A 
ATOM     22  C   UNL     1       5.054   4.239  15.373  0.00  0.00    +0.000 A 
ATOM     23  C   UNL     1       5.380   4.026  14.020  0.00  0.00    +0.000 A 
ATOM     24  C   UNL     1       6.566   4.559  13.561  0.00  0.00    +0.000 A 
ATOM     25  C   UNL     1       7.414   5.254  14.390  0.00  0.00    +0.000 A 
ATOM     26  C   UNL     1       7.116   5.500  15.698  0.00  0.00    +0.000 A 
ATOM     27  O   UNL     1       8.539   5.680  13.759  0.00  0.00    +0.000 OA
ATOM     28  C   UNL     1       8.073   5.546  12.408  0.00  0.00    +0.000 C 
ATOM     29  O   UNL     1       7.039   4.544  12.281  0.00  0.00    +0.000 OA
ENDBRANCH  20  21
ENDBRANCH   5  20
TORSDOF 5
ENDMDL
