MODEL 1
REMARK VINA RESULT:      -8.6      0.000      0.000
REMARK  Name = 
REMARK  10 active torsions:
REMARK  status: ('A' for Active; 'I' for Inactive)
REMARK    1  A    between atoms: N_5  and  C_6
REMARK    2  A    between atoms: C_6  and  C_7
REMARK    3  A    between atoms: C_7  and  C_8
REMARK    4  A    between atoms: C_11  and  O_12
REMARK    5  A    between atoms: C_13  and  O_14
REMARK    6  A    between atoms: N_19  and  C1*_20
REMARK    7  A    between atoms: C4*_22  and  C5*_23
REMARK    8  A    between atoms: C5*_23  and  O5*_24
REMARK    9  A    between atoms: C3*_25  and  O3*_26
REMARK   10  A    between atoms: C2*_27  and  O2*_28
REMARK                            x       y       z     vdW  Elec       q    Type
REMARK                         _______ _______ _______ _____ _____    ______ ____
ROOT
ATOM      1  N   UNL     1       8.687   5.131  20.312  0.00  0.00    +0.000 N 
ATOM      2  C   UNL     1       7.768   5.604  19.397  0.00  0.00    +0.000 A 
ATOM      3  N   UNL     1       7.970   6.856  18.947  0.00  0.00    +0.000 NA
ATOM      4  C   UNL     1       7.130   7.384  18.014  0.00  0.00    +0.000 A 
ATOM      5  N   UNL     1       7.354   8.654  17.518  0.00  0.00    +0.000 N 
ATOM      6  C   UNL     1       6.067   6.582  17.558  0.00  0.00    +0.000 A 
ATOM      7  N   UNL     1       5.106   6.771  16.591  0.00  0.00    +0.000 NA
ATOM      8  C   UNL     1       4.462   5.626  16.531  0.00  0.00    +0.000 A 
ATOM      9  N   UNL     1       4.946   4.720  17.439  0.00  0.00    +0.000 N 
ATOM     10  C   UNL     1       5.987   5.312  18.099  0.00  0.00    +0.000 A 
ATOM     11  N   UNL     1       6.783   4.772  19.035  0.00  0.00    +0.000 NA
ATOM     12  H   UNL     1       9.148   5.900  20.781  0.00  0.00    +0.000 HD
ATOM     13  H   UNL     1       8.319   4.383  20.878  0.00  0.00    +0.000 HD
ATOM     14  H   UNL     1       6.543   9.244  17.374  0.00  0.00    +0.000 HD
ENDROOT
BRANCH   9  15
ATOM     15  C1* UNL     1       4.475   3.366  17.610  0.00  0.00    +0.000 C 
ATOM     16  O4* UNL     1       3.233   3.199  16.894  0.00  0.00    +0.000 OA
ATOM     17  C4* UNL     1       2.363   2.345  17.680  0.00  0.00    +0.000 C 
ATOM     18  C3* UNL     1       3.185   1.857  18.875  0.00  0.00    +0.000 C 
ATOM     19  C2* UNL     1       4.225   2.951  19.058  0.00  0.00    +0.000 C 
BRANCH  18  20
ATOM     20  O3* UNL     1       3.881   0.631  18.575  0.00  0.00    +0.000 OA
ATOM     21  H3* UNL     1       3.947   0.525  17.609  0.00  0.00    +0.000 HD
ENDBRANCH  18  20
BRANCH  19  22
ATOM     22  O2* UNL     1       5.404   2.471  19.702  0.00  0.00    +0.000 OA
ATOM     23  H2* UNL     1       6.140   2.588  19.066  0.00  0.00    +0.000 HD
ENDBRANCH  19  22
BRANCH  17  24
ATOM     24  C5* UNL     1       1.111   3.128  18.090  0.00  0.00    +0.000 C 
BRANCH  24  25
ATOM     25  O5* UNL     1       1.081   4.402  17.450  0.00  0.00    +0.000 OA
ATOM     26  H5* UNL     1       1.021   5.070  18.160  0.00  0.00    +0.000 HD
ENDBRANCH  24  25
ENDBRANCH  17  24
ENDBRANCH   9  15
BRANCH   5  27
ATOM     27  C   UNL     1       8.712   9.155  17.472  0.00  0.00    +0.000 C 
BRANCH  27  28
ATOM     28  C   UNL     1       8.995  10.144  18.607  0.00  0.00    +0.000 C 
BRANCH  28  29
ATOM     29  C   UNL     1       9.643  11.432  18.138  0.00  0.00    +0.000 A 
ATOM     30  C   UNL     1      11.017  11.459  17.825  0.00  0.00    +0.000 A 
ATOM     31  C   UNL     1      11.631  12.633  17.380  0.00  0.00    +0.000 A 
ATOM     32  C   UNL     1      10.879  13.798  17.257  0.00  0.00    +0.000 A 
ATOM     33  C   UNL     1       9.523  13.781  17.574  0.00  0.00    +0.000 A 
ATOM     34  C   UNL     1       8.903  12.617  18.013  0.00  0.00    +0.000 A 
BRANCH  32  35
ATOM     35  O   UNL     1      11.423  14.973  16.825  0.00  0.00    +0.000 OA
ATOM     36  H   UNL     1      10.840  15.701  17.120  0.00  0.00    +0.000 HD
ENDBRANCH  32  35
BRANCH  33  37
ATOM     37  O   UNL     1       8.781  14.924  17.450  0.00  0.00    +0.000 OA
ATOM     38  H   UNL     1       8.084  14.700  16.808  0.00  0.00    +0.000 HD
ENDBRANCH  33  37
ENDBRANCH  28  29
ENDBRANCH  27  28
ENDBRANCH   5  27
TORSDOF 10
ENDMDL
MODEL 2
REMARK VINA RESULT:      -8.6      0.493      1.169
REMARK  Name = 
REMARK  10 active torsions:
REMARK  status: ('A' for Active; 'I' for Inactive)
REMARK    1  A    between atoms: N_5  and  C_6
REMARK    2  A    between atoms: C_6  and  C_7
REMARK    3  A    between atoms: C_7  and  C_8
REMARK    4  A    between atoms: C_11  and  O_12
REMARK    5  A    between atoms: C_13  and  O_14
REMARK    6  A    between atoms: N_19  and  C1*_20
REMARK    7  A    between atoms: C4*_22  and  C5*_23
REMARK    8  A    between atoms: C5*_23  and  O5*_24
REMARK    9  A    between atoms: C3*_25  and  O3*_26
REMARK   10  A    between atoms: C2*_27  and  O2*_28
REMARK                            x       y       z     vdW  Elec       q    Type
REMARK                         _______ _______ _______ _____ _____    ______ ____
ROOT
ATOM      1  N   UNL     1       8.764   5.160  20.273  0.00  0.00    +0.000 N 
ATOM      2  C   UNL     1       7.829   5.639  19.377  0.00  0.00    +0.000 A 
ATOM      3  N   UNL     1       8.019   6.896  18.938  0.00  0.00    +0.000 NA
ATOM      4  C   UNL     1       7.163   7.432  18.024  0.00  0.00    +0.000 A 
ATOM      5  N   UNL     1       7.374   8.707  17.539  0.00  0.00    +0.000 N 
ATOM      6  C   UNL     1       6.095   6.630  17.576  0.00  0.00    +0.000 A 
ATOM      7  N   UNL     1       5.119   6.826  16.626  0.00  0.00    +0.000 NA
ATOM      8  C   UNL     1       4.479   5.679  16.563  0.00  0.00    +0.000 A 
ATOM      9  N   UNL     1       4.980   4.765  17.454  0.00  0.00    +0.000 N 
ATOM     10  C   UNL     1       6.029   5.354  18.104  0.00  0.00    +0.000 A 
ATOM     11  N   UNL     1       6.842   4.807  19.022  0.00  0.00    +0.000 NA
ATOM     12  H   UNL     1       9.230   5.926  20.743  0.00  0.00    +0.000 HD
ATOM     13  H   UNL     1       8.408   4.404  20.836  0.00  0.00    +0.000 HD
ATOM     14  H   UNL     1       6.558   9.296  17.414  0.00  0.00    +0.000 HD
ENDROOT
BRANCH   9  15
ATOM     15  C1* UNL     1       4.517   3.407  17.617  0.00  0.00    +0.000 C 
ATOM     16  O4* UNL     1       3.290   3.230  16.880  0.00  0.00    +0.000 OA
ATOM     17  C4* UNL     1       2.412   2.370  17.650  0.00  0.00    +0.000 C 
ATOM     18  C3* UNL     1       3.216   1.889  18.860  0.00  0.00    +0.000 C 
ATOM     19  C2* UNL     1       4.244   2.991  19.061  0.00  0.00    +0.000 C 
BRANCH  18  20
ATOM     20  O3* UNL     1       3.928   0.668  18.574  0.00  0.00    +0.000 OA
ATOM     21  H3* UNL     1       3.912   0.093  19.360  0.00  0.00    +0.000 HD
ENDBRANCH  18  20
BRANCH  19  22
ATOM     22  O2* UNL     1       5.415   2.521  19.727  0.00  0.00    +0.000 OA
ATOM     23  H2* UNL     1       5.659   1.673  19.300  0.00  0.00    +0.000 HD
ENDBRANCH  19  22
BRANCH  17  24
ATOM     24  C5* UNL     1       1.147   3.142  18.037  0.00  0.00    +0.000 C 
BRANCH  24  25
ATOM     25  O5* UNL     1       1.123   4.421  17.404  0.00  0.00    +0.000 OA
ATOM     26  H5* UNL     1       1.648   4.337  16.586  0.00  0.00    +0.000 HD
ENDBRANCH  24  25
ENDBRANCH  17  24
ENDBRANCH   9  15
BRANCH   5  27
ATOM     27  C   UNL     1       8.729   9.214  17.477  0.00  0.00    +0.000 C 
BRANCH  27  28
ATOM     28  C   UNL     1       9.048  10.139  18.656  0.00  0.00    +0.000 C 
BRANCH  28  29
ATOM     29  C   UNL     1       9.568  11.499  18.233  0.00  0.00    +0.000 A 
ATOM     30  C   UNL     1       8.874  12.668  18.605  0.00  0.00    +0.000 A 
ATOM     31  C   UNL     1       9.341  13.931  18.236  0.00  0.00    +0.000 A 
ATOM     32  C   UNL     1      10.503  14.040  17.476  0.00  0.00    +0.000 A 
ATOM     33  C   UNL     1      11.189  12.889  17.096  0.00  0.00    +0.000 A 
ATOM     34  C   UNL     1      10.733  11.627  17.463  0.00  0.00    +0.000 A 
BRANCH  32  35
ATOM     35  O   UNL     1      11.009  15.246  17.088  0.00  0.00    +0.000 OA
ATOM     36  H   UNL     1      11.201  15.198  16.130  0.00  0.00    +0.000 HD
ENDBRANCH  32  35
BRANCH  33  37
ATOM     37  O   UNL     1      12.333  12.992  16.353  0.00  0.00    +0.000 OA
ATOM     38  H   UNL     1      12.118  12.569  15.503  0.00  0.00    +0.000 HD
ENDBRANCH  33  37
ENDBRANCH  28  29
ENDBRANCH  27  28
ENDBRANCH   5  27
TORSDOF 10
ENDMDL
MODEL 3
REMARK VINA RESULT:      -8.4      1.347      2.251
REMARK  Name = 
REMARK  10 active torsions:
REMARK  status: ('A' for Active; 'I' for Inactive)
REMARK    1  A    between atoms: N_5  and  C_6
REMARK    2  A    between atoms: C_6  and  C_7
REMARK    3  A    between atoms: C_7  and  C_8
REMARK    4  A    between atoms: C_11  and  O_12
REMARK    5  A    between atoms: C_13  and  O_14
REMARK    6  A    between atoms: N_19  and  C1*_20
REMARK    7  A    between atoms: C4*_22  and  C5*_23
REMARK    8  A    between atoms: C5*_23  and  O5*_24
REMARK    9  A    between atoms: C3*_25  and  O3*_26
REMARK   10  A    between atoms: C2*_27  and  O2*_28
REMARK                            x       y       z     vdW  Elec       q    Type
REMARK                         _______ _______ _______ _____ _____    ______ ____
ROOT
ATOM      1  N   UNL     1       5.173   6.968  14.867  0.00  0.00    +0.000 N 
ATOM      2  C   UNL     1       5.694   6.580  16.086  0.00  0.00    +0.000 A 
ATOM      3  N   UNL     1       6.691   7.341  16.573  0.00  0.00    +0.000 NA
ATOM      4  C   UNL     1       7.235   7.049  17.787  0.00  0.00    +0.000 A 
ATOM      5  N   UNL     1       8.231   7.849  18.312  0.00  0.00    +0.000 N 
ATOM      6  C   UNL     1       6.723   5.939  18.486  0.00  0.00    +0.000 A 
ATOM      7  N   UNL     1       6.983   5.426  19.736  0.00  0.00    +0.000 NA
ATOM      8  C   UNL     1       6.110   4.453  19.887  0.00  0.00    +0.000 A 
ATOM      9  N   UNL     1       5.322   4.299  18.776  0.00  0.00    +0.000 N 
ATOM     10  C   UNL     1       5.691   5.254  17.870  0.00  0.00    +0.000 A 
ATOM     11  N   UNL     1       5.151   5.503  16.667  0.00  0.00    +0.000 NA
ATOM     12  H   UNL     1       5.844   7.527  14.356  0.00  0.00    +0.000 HD
ATOM     13  H   UNL     1       4.719   6.211  14.382  0.00  0.00    +0.000 HD
ATOM     14  H   UNL     1       8.997   7.383  18.785  0.00  0.00    +0.000 HD
ENDROOT
BRANCH   9  15
ATOM     15  C1* UNL     1       4.253   3.340  18.629  0.00  0.00    +0.000 C 
ATOM     16  O4* UNL     1       3.001   4.041  18.478  0.00  0.00    +0.000 OA
ATOM     17  C4* UNL     1       1.974   3.305  19.190  0.00  0.00    +0.000 C 
ATOM     18  C3* UNL     1       2.622   2.008  19.682  0.00  0.00    +0.000 C 
ATOM     19  C2* UNL     1       4.094   2.372  19.800  0.00  0.00    +0.000 C 
BRANCH  18  20
ATOM     20  O3* UNL     1       2.504   0.952  18.708  0.00  0.00    +0.000 OA
ATOM     21  H3* UNL     1       1.669   1.058  18.217  0.00  0.00    +0.000 HD
ENDBRANCH  18  20
BRANCH  19  22
ATOM     22  O2* UNL     1       4.941   1.230  19.686  0.00  0.00    +0.000 OA
ATOM     23  H2* UNL     1       4.981   0.820  20.574  0.00  0.00    +0.000 HD
ENDBRANCH  19  22
BRANCH  17  24
ATOM     24  C5* UNL     1       1.418   4.168  20.327  0.00  0.00    +0.000 C 
BRANCH  24  25
ATOM     25  O5* UNL     1       0.944   3.351  21.397  0.00  0.00    +0.000 OA
ATOM     26  H5* UNL     1      -0.004   3.556  21.505  0.00  0.00    +0.000 HD
ENDBRANCH  24  25
ENDBRANCH  17  24
ENDBRANCH   9  15
BRANCH   5  27
ATOM     27  C   UNL     1       8.263   9.250  17.949  0.00  0.00    +0.000 C 
BRANCH  27  28
ATOM     28  C   UNL     1       9.134  10.069  18.908  0.00  0.00    +0.000 C 
BRANCH  28  29
ATOM     29  C   UNL     1       9.679  11.342  18.291  0.00  0.00    +0.000 A 
ATOM     30  C   UNL     1      11.040  11.429  17.934  0.00  0.00    +0.000 A 
ATOM     31  C   UNL     1      11.560  12.588  17.354  0.00  0.00    +0.000 A 
ATOM     32  C   UNL     1      10.726  13.681  17.136  0.00  0.00    +0.000 A 
ATOM     33  C   UNL     1       9.382  13.608  17.495  0.00  0.00    +0.000 A 
ATOM     34  C   UNL     1       8.855  12.456  18.069  0.00  0.00    +0.000 A 
BRANCH  32  35
ATOM     35  O   UNL     1      11.177  14.839  16.571  0.00  0.00    +0.000 OA
ATOM     36  H   UNL     1      12.100  14.693  16.282  0.00  0.00    +0.000 HD
ENDBRANCH  32  35
BRANCH  33  37
ATOM     37  O   UNL     1       8.560  14.679  17.279  0.00  0.00    +0.000 OA
ATOM     38  H   UNL     1       9.136  15.458  17.370  0.00  0.00    +0.000 HD
ENDBRANCH  33  37
ENDBRANCH  28  29
ENDBRANCH  27  28
ENDBRANCH   5  27
TORSDOF 10
ENDMDL
MODEL 4
REMARK VINA RESULT:      -8.3      1.734      2.830
REMARK  Name = 
REMARK  10 active torsions:
REMARK  status: ('A' for Active; 'I' for Inactive)
REMARK    1  A    between atoms: N_5  and  C_6
REMARK    2  A    between atoms: C_6  and  C_7
REMARK    3  A    between atoms: C_7  and  C_8
REMARK    4  A    between atoms: C_11  and  O_12
REMARK    5  A    between atoms: C_13  and  O_14
REMARK    6  A    between atoms: N_19  and  C1*_20
REMARK    7  A    between atoms: C4*_22  and  C5*_23
REMARK    8  A    between atoms: C5*_23  and  O5*_24
REMARK    9  A    between atoms: C3*_25  and  O3*_26
REMARK   10  A    between atoms: C2*_27  and  O2*_28
REMARK                            x       y       z     vdW  Elec       q    Type
REMARK                         _______ _______ _______ _____ _____    ______ ____
ROOT
ATOM      1  N   UNL     1       4.929   7.116  14.823  0.00  0.00    +0.000 N 
ATOM      2  C   UNL     1       5.372   6.635  16.039  0.00  0.00    +0.000 A 
ATOM      3  N   UNL     1       6.468   7.227  16.546  0.00  0.00    +0.000 NA
ATOM      4  C   UNL     1       6.948   6.838  17.760  0.00  0.00    +0.000 A 
ATOM      5  N   UNL     1       8.049   7.468  18.306  0.00  0.00    +0.000 N 
ATOM      6  C   UNL     1       6.264   5.811  18.438  0.00  0.00    +0.000 A 
ATOM      7  N   UNL     1       6.429   5.246  19.682  0.00  0.00    +0.000 NA
ATOM      8  C   UNL     1       5.416   4.417  19.810  0.00  0.00    +0.000 A 
ATOM      9  N   UNL     1       4.626   4.401  18.690  0.00  0.00    +0.000 N 
ATOM     10  C   UNL     1       5.147   5.301  17.803  0.00  0.00    +0.000 A 
ATOM     11  N   UNL     1       4.664   5.647  16.599  0.00  0.00    +0.000 NA
ATOM     12  H   UNL     1       5.684   7.572  14.326  0.00  0.00    +0.000 HD
ATOM     13  H   UNL     1       4.370   6.443  14.322  0.00  0.00    +0.000 HD
ATOM     14  H   UNL     1       8.729   6.884  18.778  0.00  0.00    +0.000 HD
ENDROOT
BRANCH   9  15
ATOM     15  C1* UNL     1       3.423   3.619  18.520  0.00  0.00    +0.000 C 
ATOM     16  O4* UNL     1       2.309   4.324  19.107  0.00  0.00    +0.000 OA
ATOM     17  C4* UNL     1       1.435   3.354  19.740  0.00  0.00    +0.000 C 
ATOM     18  C3* UNL     1       1.987   1.970  19.391  0.00  0.00    +0.000 C 
ATOM     19  C2* UNL     1       3.467   2.229  19.151  0.00  0.00    +0.000 C 
BRANCH  18  20
ATOM     20  O3* UNL     1       1.423   1.466  18.164  0.00  0.00    +0.000 OA
ATOM     21  H3* UNL     1       1.960   0.720  17.844  0.00  0.00    +0.000 HD
ENDBRANCH  18  20
BRANCH  19  22
ATOM     22  O2* UNL     1       4.052   1.254  18.290  0.00  0.00    +0.000 OA
ATOM     23  H2* UNL     1       3.329   0.905  17.729  0.00  0.00    +0.000 HD
ENDBRANCH  19  22
BRANCH  17  24
ATOM     24  C5* UNL     1       1.383   3.618  21.248  0.00  0.00    +0.000 C 
BRANCH  24  25
ATOM     25  O5* UNL     1       1.606   2.413  21.979  0.00  0.00    +0.000 OA
ATOM     26  H5* UNL     1       1.253   1.686  21.433  0.00  0.00    +0.000 HD
ENDBRANCH  24  25
ENDBRANCH  17  24
ENDBRANCH   9  15
BRANCH   5  27
ATOM     27  C   UNL     1       8.300   8.853  17.965  0.00  0.00    +0.000 C 
BRANCH  27  28
ATOM     28  C   UNL     1       9.370   9.478  18.866  0.00  0.00    +0.000 C 
BRANCH  28  29
ATOM     29  C   UNL     1       9.185  10.968  19.079  0.00  0.00    +0.000 A 
ATOM     30  C   UNL     1       9.366  11.528  20.359  0.00  0.00    +0.000 A 
ATOM     31  C   UNL     1       9.212  12.899  20.575  0.00  0.00    +0.000 A 
ATOM     32  C   UNL     1       8.859  13.726  19.512  0.00  0.00    +0.000 A 
ATOM     33  C   UNL     1       8.668  13.180  18.245  0.00  0.00    +0.000 A 
ATOM     34  C   UNL     1       8.824  11.816  18.021  0.00  0.00    +0.000 A 
BRANCH  32  35
ATOM     35  O   UNL     1       8.697  15.074  19.661  0.00  0.00    +0.000 OA
ATOM     36  H   UNL     1       7.798  15.231  20.014  0.00  0.00    +0.000 HD
ENDBRANCH  32  35
BRANCH  33  37
ATOM     37  O   UNL     1       8.325  13.991  17.198  0.00  0.00    +0.000 OA
ATOM     38  H   UNL     1       8.105  14.847  17.607  0.00  0.00    +0.000 HD
ENDBRANCH  33  37
ENDBRANCH  28  29
ENDBRANCH  27  28
ENDBRANCH   5  27
TORSDOF 10
ENDMDL
MODEL 5
REMARK VINA RESULT:      -8.1      1.487      2.618
REMARK  Name = 
REMARK  10 active torsions:
REMARK  status: ('A' for Active; 'I' for Inactive)
REMARK    1  A    between atoms: N_5  and  C_6
REMARK    2  A    between atoms: C_6  and  C_7
REMARK    3  A    between atoms: C_7  and  C_8
REMARK    4  A    between atoms: C_11  and  O_12
REMARK    5  A    between atoms: C_13  and  O_14
REMARK    6  A    between atoms: N_19  and  C1*_20
REMARK    7  A    between atoms: C4*_22  and  C5*_23
REMARK    8  A    between atoms: C5*_23  and  O5*_24
REMARK    9  A    between atoms: C3*_25  and  O3*_26
REMARK   10  A    between atoms: C2*_27  and  O2*_28
REMARK                            x       y       z     vdW  Elec       q    Type
REMARK                         _______ _______ _______ _____ _____    ______ ____
ROOT
ATOM      1  N   UNL     1       5.107   7.001  14.735  0.00  0.00    +0.000 N 
ATOM      2  C   UNL     1       5.530   6.583  15.981  0.00  0.00    +0.000 A 
ATOM      3  N   UNL     1       6.570   7.253  16.510  0.00  0.00    +0.000 NA
ATOM      4  C   UNL     1       7.026   6.927  17.751  0.00  0.00    +0.000 A 
ATOM      5  N   UNL     1       8.066   7.636  18.318  0.00  0.00    +0.000 N 
ATOM      6  C   UNL     1       6.377   5.881  18.435  0.00  0.00    +0.000 A 
ATOM      7  N   UNL     1       6.527   5.362  19.701  0.00  0.00    +0.000 NA
ATOM      8  C   UNL     1       5.559   4.479  19.817  0.00  0.00    +0.000 A 
ATOM      9  N   UNL     1       4.814   4.384  18.671  0.00  0.00    +0.000 N 
ATOM     10  C   UNL     1       5.316   5.288  17.776  0.00  0.00    +0.000 A 
ATOM     11  N   UNL     1       4.860   5.570  16.545  0.00  0.00    +0.000 NA
ATOM     12  H   UNL     1       5.852   7.487  14.253  0.00  0.00    +0.000 HD
ATOM     13  H   UNL     1       4.608   6.283  14.235  0.00  0.00    +0.000 HD
ATOM     14  H   UNL     1       8.761   7.107  18.832  0.00  0.00    +0.000 HD
ENDROOT
BRANCH   9  15
ATOM     15  C1* UNL     1       3.667   3.528  18.480  0.00  0.00    +0.000 C 
ATOM     16  O4* UNL     1       2.463   4.317  18.577  0.00  0.00    +0.000 OA
ATOM     17  C4* UNL     1       1.453   3.531  19.261  0.00  0.00    +0.000 C 
ATOM     18  C3* UNL     1       2.045   2.135  19.464  0.00  0.00    +0.000 C 
ATOM     19  C2* UNL     1       3.544   2.386  19.487  0.00  0.00    +0.000 C 
BRANCH  18  20
ATOM     20  O3* UNL     1       1.759   1.269  18.348  0.00  0.00    +0.000 OA
ATOM     21  H3* UNL     1       0.832   1.391  18.073  0.00  0.00    +0.000 HD
ENDBRANCH  18  20
BRANCH  19  22
ATOM     22  O2* UNL     1       4.290   1.233  19.100  0.00  0.00    +0.000 OA
ATOM     23  H2* UNL     1       3.731   0.455  19.308  0.00  0.00    +0.000 HD
ENDBRANCH  19  22
BRANCH  17  24
ATOM     24  C5* UNL     1       1.071   4.220  20.575  0.00  0.00    +0.000 C 
BRANCH  24  25
ATOM     25  O5* UNL     1       2.168   4.208  21.488  0.00  0.00    +0.000 OA
ATOM     26  H5* UNL     1       2.335   3.273  21.710  0.00  0.00    +0.000 HD
ENDBRANCH  24  25
ENDBRANCH  17  24
ENDBRANCH   9  15
BRANCH   5  27
ATOM     27  C   UNL     1       8.249   9.024  17.944  0.00  0.00    +0.000 C 
BRANCH  27  28
ATOM     28  C   UNL     1       9.325   9.708  18.794  0.00  0.00    +0.000 C 
BRANCH  28  29
ATOM     29  C   UNL     1       9.572  11.152  18.407  0.00  0.00    +0.000 A 
ATOM     30  C   UNL     1       8.490  11.985  18.056  0.00  0.00    +0.000 A 
ATOM     31  C   UNL     1       8.695  13.322  17.707  0.00  0.00    +0.000 A 
ATOM     32  C   UNL     1       9.987  13.839  17.691  0.00  0.00    +0.000 A 
ATOM     33  C   UNL     1      11.062  13.020  18.027  0.00  0.00    +0.000 A 
ATOM     34  C   UNL     1      10.868  11.689  18.380  0.00  0.00    +0.000 A 
BRANCH  32  35
ATOM     35  O   UNL     1      10.248  15.138  17.361  0.00  0.00    +0.000 OA
ATOM     36  H   UNL     1      11.218  15.261  17.369  0.00  0.00    +0.000 HD
ENDBRANCH  32  35
BRANCH  33  37
ATOM     37  O   UNL     1      12.333  13.526  18.016  0.00  0.00    +0.000 OA
ATOM     38  H   UNL     1      12.345  14.187  18.731  0.00  0.00    +0.000 HD
ENDBRANCH  33  37
ENDBRANCH  28  29
ENDBRANCH  27  28
ENDBRANCH   5  27
TORSDOF 10
ENDMDL
MODEL 6
REMARK VINA RESULT:      -8.1      1.679      2.314
REMARK  Name = 
REMARK  10 active torsions:
REMARK  status: ('A' for Active; 'I' for Inactive)
REMARK    1  A    between atoms: N_5  and  C_6
REMARK    2  A    between atoms: C_6  and  C_7
REMARK    3  A    between atoms: C_7  and  C_8
REMARK    4  A    between atoms: C_11  and  O_12
REMARK    5  A    between atoms: C_13  and  O_14
REMARK    6  A    between atoms: N_19  and  C1*_20
REMARK    7  A    between atoms: C4*_22  and  C5*_23
REMARK    8  A    between atoms: C5*_23  and  O5*_24
REMARK    9  A    between atoms: C3*_25  and  O3*_26
REMARK   10  A    between atoms: C2*_27  and  O2*_28
REMARK                            x       y       z     vdW  Elec       q    Type
REMARK                         _______ _______ _______ _____ _____    ______ ____
ROOT
ATOM      1  N   UNL     1       7.017   5.377  14.401  0.00  0.00    +0.000 N 
ATOM      2  C   UNL     1       6.750   5.535  15.747  0.00  0.00    +0.000 A 
ATOM      3  N   UNL     1       7.547   6.391  16.411  0.00  0.00    +0.000 NA
ATOM      4  C   UNL     1       7.328   6.633  17.734  0.00  0.00    +0.000 A 
ATOM      5  N   UNL     1       8.116   7.540  18.414  0.00  0.00    +0.000 N 
ATOM      6  C   UNL     1       6.259   5.959  18.356  0.00  0.00    +0.000 A 
ATOM      7  N   UNL     1       5.726   6.029  19.623  0.00  0.00    +0.000 NA
ATOM      8  C   UNL     1       4.664   5.255  19.582  0.00  0.00    +0.000 A 
ATOM      9  N   UNL     1       4.509   4.666  18.354  0.00  0.00    +0.000 N 
ATOM     10  C   UNL     1       5.517   5.117  17.549  0.00  0.00    +0.000 A 
ATOM     11  N   UNL     1       5.723   4.841  16.251  0.00  0.00    +0.000 NA
ATOM     12  H   UNL     1       7.975   5.630  14.198  0.00  0.00    +0.000 HD
ATOM     13  H   UNL     1       6.671   4.503  14.039  0.00  0.00    +0.000 HD
ATOM     14  H   UNL     1       8.394   7.296  19.357  0.00  0.00    +0.000 HD
ENDROOT
BRANCH   9  15
ATOM     15  C1* UNL     1       3.432   3.782  17.974  0.00  0.00    +0.000 C 
ATOM     16  O4* UNL     1       2.172   4.459  18.162  0.00  0.00    +0.000 OA
ATOM     17  C4* UNL     1       1.205   3.498  18.660  0.00  0.00    +0.000 C 
ATOM     18  C3* UNL     1       1.891   2.130  18.637  0.00  0.00    +0.000 C 
ATOM     19  C2* UNL     1       3.368   2.474  18.760  0.00  0.00    +0.000 C 
BRANCH  18  20
ATOM     20  O3* UNL     1       1.697   1.459  17.376  0.00  0.00    +0.000 OA
ATOM     21  H3* UNL     1       2.409   1.714  16.762  0.00  0.00    +0.000 HD
ENDBRANCH  18  20
BRANCH  19  22
ATOM     22  O2* UNL     1       4.204   1.460  18.205  0.00  0.00    +0.000 OA
ATOM     23  H2* UNL     1       4.473   1.772  17.316  0.00  0.00    +0.000 HD
ENDBRANCH  19  22
BRANCH  17  24
ATOM     24  C5* UNL     1       0.741   3.916  20.059  0.00  0.00    +0.000 C 
BRANCH  24  25
ATOM     25  O5* UNL     1       0.833   2.820  20.968  0.00  0.00    +0.000 OA
ATOM     26  H5* UNL     1      -0.012   2.335  20.905  0.00  0.00    +0.000 HD
ENDBRANCH  24  25
ENDBRANCH  17  24
ENDBRANCH   9  15
BRANCH   5  27
ATOM     27  C   UNL     1       8.701   8.643  17.680  0.00  0.00    +0.000 C 
BRANCH  27  28
ATOM     28  C   UNL     1       8.039   9.979  18.031  0.00  0.00    +0.000 C 
BRANCH  28  29
ATOM     29  C   UNL     1       9.031  11.080  18.350  0.00  0.00    +0.000 A 
ATOM     30  C   UNL     1      10.031  10.871  19.321  0.00  0.00    +0.000 A 
ATOM     31  C   UNL     1      10.963  11.868  19.622  0.00  0.00    +0.000 A 
ATOM     32  C   UNL     1      10.895  13.093  18.964  0.00  0.00    +0.000 A 
ATOM     33  C   UNL     1       9.904  13.311  18.011  0.00  0.00    +0.000 A 
ATOM     34  C   UNL     1       8.975  12.323  17.702  0.00  0.00    +0.000 A 
BRANCH  32  35
ATOM     35  O   UNL     1      11.779  14.102  19.214  0.00  0.00    +0.000 OA
ATOM     36  H   UNL     1      12.639  13.699  19.446  0.00  0.00    +0.000 HD
ENDBRANCH  32  35
BRANCH  33  37
ATOM     37  O   UNL     1       9.837  14.512  17.360  0.00  0.00    +0.000 OA
ATOM     38  H   UNL     1       8.893  14.749  17.369  0.00  0.00    +0.000 HD
ENDBRANCH  33  37
ENDBRANCH  28  29
ENDBRANCH  27  28
ENDBRANCH   5  27
TORSDOF 10
ENDMDL
MODEL 7
REMARK VINA RESULT:      -8.0      5.323      7.588
REMARK  Name = 
REMARK  10 active torsions:
REMARK  status: ('A' for Active; 'I' for Inactive)
REMARK    1  A    between atoms: N_5  and  C_6
REMARK    2  A    between atoms: C_6  and  C_7
REMARK    3  A    between atoms: C_7  and  C_8
REMARK    4  A    between atoms: C_11  and  O_12
REMARK    5  A    between atoms: C_13  and  O_14
REMARK    6  A    between atoms: N_19  and  C1*_20
REMARK    7  A    between atoms: C4*_22  and  C5*_23
REMARK    8  A    between atoms: C5*_23  and  O5*_24
REMARK    9  A    between atoms: C3*_25  and  O3*_26
REMARK   10  A    between atoms: C2*_27  and  O2*_28
REMARK                            x       y       z     vdW  Elec       q    Type
REMARK                         _______ _______ _______ _____ _____    ______ ____
ROOT
ATOM      1  N   UNL     1       2.233   5.006  21.443  0.00  0.00    +0.000 N 
ATOM      2  C   UNL     1       2.285   5.926  20.415  0.00  0.00    +0.000 A 
ATOM      3  N   UNL     1       2.989   5.561  19.328  0.00  0.00    +0.000 NA
ATOM      4  C   UNL     1       3.060   6.396  18.254  0.00  0.00    +0.000 A 
ATOM      5  N   UNL     1       3.746   6.011  17.119  0.00  0.00    +0.000 N 
ATOM      6  C   UNL     1       2.384   7.629  18.335  0.00  0.00    +0.000 A 
ATOM      7  N   UNL     1       2.190   8.645  17.428  0.00  0.00    +0.000 NA
ATOM      8  C   UNL     1       1.376   9.483  18.034  0.00  0.00    +0.000 A 
ATOM      9  N   UNL     1       1.065   9.064  19.301  0.00  0.00    +0.000 N 
ATOM     10  C   UNL     1       1.692   7.868  19.508  0.00  0.00    +0.000 A 
ATOM     11  N   UNL     1       1.623   7.077  20.590  0.00  0.00    +0.000 NA
ATOM     12  H   UNL     1       3.015   4.366  21.386  0.00  0.00    +0.000 HD
ATOM     13  H   UNL     1       2.032   5.432  22.333  0.00  0.00    +0.000 HD
ATOM     14  H   UNL     1       4.306   6.717  16.655  0.00  0.00    +0.000 HD
ENDROOT
BRANCH   9  15
ATOM     15  C1* UNL     1       0.178   9.743  20.218  0.00  0.00    +0.000 C 
ATOM     16  O4* UNL     1      -0.726  10.584  19.471  0.00  0.00    +0.000 OA
ATOM     17  C4* UNL     1      -0.934  11.810  20.218  0.00  0.00    +0.000 C 
ATOM     18  C3* UNL     1      -0.220  11.635  21.561  0.00  0.00    +0.000 C 
ATOM     19  C2* UNL     1       0.876  10.628  21.249  0.00  0.00    +0.000 C 
BRANCH  18  20
ATOM     20  O3* UNL     1      -1.088  11.051  22.552  0.00  0.00    +0.000 OA
ATOM     21  H3* UNL     1      -0.658  10.264  22.934  0.00  0.00    +0.000 HD
ENDBRANCH  18  20
BRANCH  19  22
ATOM     22  O2* UNL     1       1.285   9.902  22.407  0.00  0.00    +0.000 OA
ATOM     23  H2* UNL     1       1.015   8.971  22.265  0.00  0.00    +0.000 HD
ENDBRANCH  19  22
BRANCH  17  24
ATOM     24  C5* UNL     1      -0.409  12.999  19.408  0.00  0.00    +0.000 C 
BRANCH  24  25
ATOM     25  O5* UNL     1      -0.310  12.663  18.025  0.00  0.00    +0.000 OA
ATOM     26  H5* UNL     1       0.377  11.974  17.954  0.00  0.00    +0.000 HD
ENDBRANCH  24  25
ENDBRANCH  17  24
ENDBRANCH   9  15
BRANCH   5  27
ATOM     27  C   UNL     1       3.836   4.600  16.803  0.00  0.00    +0.000 C 
BRANCH  27  28
ATOM     28  C   UNL     1       5.285   4.103  16.814  0.00  0.00    +0.000 C 
BRANCH  28  29
ATOM     29  C   UNL     1       6.256   5.088  17.435  0.00  0.00    +0.000 A 
ATOM     30  C   UNL     1       6.676   6.222  16.710  0.00  0.00    +0.000 A 
ATOM     31  C   UNL     1       7.561   7.146  17.269  0.00  0.00    +0.000 A 
ATOM     32  C   UNL     1       8.049   6.940  18.556  0.00  0.00    +0.000 A 
ATOM     33  C   UNL     1       7.648   5.817  19.275  0.00  0.00    +0.000 A 
ATOM     34  C   UNL     1       6.764   4.893  18.729  0.00  0.00    +0.000 A 
BRANCH  32  35
ATOM     35  O   UNL     1       8.914   7.811  19.154  0.00  0.00    +0.000 OA
ATOM     36  H   UNL     1       9.798   7.393  19.170  0.00  0.00    +0.000 HD
ENDBRANCH  32  35
BRANCH  33  37
ATOM     37  O   UNL     1       8.123   5.614  20.542  0.00  0.00    +0.000 OA
ATOM     38  H   UNL     1       7.337   5.659  21.114  0.00  0.00    +0.000 HD
ENDBRANCH  33  37
ENDBRANCH  28  29
ENDBRANCH  27  28
ENDBRANCH   5  27
TORSDOF 10
ENDMDL
MODEL 8
REMARK VINA RESULT:      -7.8      1.136      1.398
REMARK  Name = 
REMARK  10 active torsions:
REMARK  status: ('A' for Active; 'I' for Inactive)
REMARK    1  A    between atoms: N_5  and  C_6
REMARK    2  A    between atoms: C_6  and  C_7
REMARK    3  A    between atoms: C_7  and  C_8
REMARK    4  A    between atoms: C_11  and  O_12
REMARK    5  A    between atoms: C_13  and  O_14
REMARK    6  A    between atoms: N_19  and  C1*_20
REMARK    7  A    between atoms: C4*_22  and  C5*_23
REMARK    8  A    between atoms: C5*_23  and  O5*_24
REMARK    9  A    between atoms: C3*_25  and  O3*_26
REMARK   10  A    between atoms: C2*_27  and  O2*_28
REMARK                            x       y       z     vdW  Elec       q    Type
REMARK                         _______ _______ _______ _____ _____    ______ ____
ROOT
ATOM      1  N   UNL     1       8.711   5.154  20.317  0.00  0.00    +0.000 N 
ATOM      2  C   UNL     1       7.788   5.636  19.411  0.00  0.00    +0.000 A 
ATOM      3  N   UNL     1       7.989   6.891  18.971  0.00  0.00    +0.000 NA
ATOM      4  C   UNL     1       7.144   7.430  18.048  0.00  0.00    +0.000 A 
ATOM      5  N   UNL     1       7.367   8.702  17.561  0.00  0.00    +0.000 N 
ATOM      6  C   UNL     1       6.076   6.633  17.591  0.00  0.00    +0.000 A 
ATOM      7  N   UNL     1       5.110   6.832  16.632  0.00  0.00    +0.000 NA
ATOM      8  C   UNL     1       4.463   5.688  16.566  0.00  0.00    +0.000 A 
ATOM      9  N   UNL     1       4.951   4.774  17.464  0.00  0.00    +0.000 N 
ATOM     10  C   UNL     1       5.997   5.358  18.122  0.00  0.00    +0.000 A 
ATOM     11  N   UNL     1       6.799   4.809  19.049  0.00  0.00    +0.000 NA
ATOM     12  H   UNL     1       9.177   5.918  20.789  0.00  0.00    +0.000 HD
ATOM     13  H   UNL     1       8.346   4.402  20.879  0.00  0.00    +0.000 HD
ATOM     14  H   UNL     1       6.556   9.295  17.427  0.00  0.00    +0.000 HD
ENDROOT
BRANCH   9  15
ATOM     15  C1* UNL     1       4.479   3.419  17.626  0.00  0.00    +0.000 C 
ATOM     16  O4* UNL     1       3.230   3.262  16.922  0.00  0.00    +0.000 OA
ATOM     17  C4* UNL     1       2.365   2.402  17.708  0.00  0.00    +0.000 C 
ATOM     18  C3* UNL     1       3.198   1.901  18.890  0.00  0.00    +0.000 C 
ATOM     19  C2* UNL     1       4.243   2.991  19.073  0.00  0.00    +0.000 C 
BRANCH  18  20
ATOM     20  O3* UNL     1       3.889   0.676  18.571  0.00  0.00    +0.000 OA
ATOM     21  H3* UNL     1       3.479  -0.061  19.059  0.00  0.00    +0.000 HD
ENDBRANCH  18  20
BRANCH  19  22
ATOM     22  O2* UNL     1       5.427   2.502  19.700  0.00  0.00    +0.000 OA
ATOM     23  H2* UNL     1       5.440   2.874  20.606  0.00  0.00    +0.000 HD
ENDBRANCH  19  22
BRANCH  17  24
ATOM     24  C5* UNL     1       1.120   3.184  18.138  0.00  0.00    +0.000 C 
BRANCH  24  25
ATOM     25  O5* UNL     1       0.724   2.814  19.459  0.00  0.00    +0.000 OA
ATOM     26  H5* UNL     1       1.347   2.124  19.754  0.00  0.00    +0.000 HD
ENDBRANCH  24  25
ENDBRANCH  17  24
ENDBRANCH   9  15
BRANCH   5  27
ATOM     27  C   UNL     1       8.726   9.201  17.510  0.00  0.00    +0.000 C 
BRANCH  27  28
ATOM     28  C   UNL     1       9.173   9.779  18.857  0.00  0.00    +0.000 C 
BRANCH  28  29
ATOM     29  C   UNL     1       9.358  11.284  18.837  0.00  0.00    +0.000 A 
ATOM     30  C   UNL     1       8.820  12.048  17.782  0.00  0.00    +0.000 A 
ATOM     31  C   UNL     1       8.969  13.437  17.750  0.00  0.00    +0.000 A 
ATOM     32  C   UNL     1       9.671  14.076  18.768  0.00  0.00    +0.000 A 
ATOM     33  C   UNL     1      10.214  13.327  19.809  0.00  0.00    +0.000 A 
ATOM     34  C   UNL     1      10.067  11.945  19.851  0.00  0.00    +0.000 A 
BRANCH  32  35
ATOM     35  O   UNL     1       9.847  15.430  18.792  0.00  0.00    +0.000 OA
ATOM     36  H   UNL     1       9.230  15.801  19.454  0.00  0.00    +0.000 HD
ENDBRANCH  32  35
BRANCH  33  37
ATOM     37  O   UNL     1      10.901  13.953  20.812  0.00  0.00    +0.000 OA
ATOM     38  H   UNL     1      11.767  14.170  20.424  0.00  0.00    +0.000 HD
ENDBRANCH  33  37
ENDBRANCH  28  29
ENDBRANCH  27  28
ENDBRANCH   5  27
TORSDOF 10
ENDMDL
MODEL 9
REMARK VINA RESULT:      -7.8      6.067      8.247
REMARK  Name = 
REMARK  10 active torsions:
REMARK  status: ('A' for Active; 'I' for Inactive)
REMARK    1  A    between atoms: N_5  and  C_6
REMARK    2  A    between atoms: C_6  and  C_7
REMARK    3  A    between atoms: C_7  and  C_8
REMARK    4  A    between atoms: C_11  and  O_12
REMARK    5  A    between atoms: C_13  and  O_14
REMARK    6  A    between atoms: N_19  and  C1*_20
REMARK    7  A    between atoms: C4*_22  and  C5*_23
REMARK    8  A    between atoms: C5*_23  and  O5*_24
REMARK    9  A    between atoms: C3*_25  and  O3*_26
REMARK   10  A    between atoms: C2*_27  and  O2*_28
REMARK                            x       y       z     vdW  Elec       q    Type
REMARK                         _______ _______ _______ _____ _____    ______ ____
ROOT
ATOM      1  N   UNL     1       2.289   4.902  21.404  0.00  0.00    +0.000 N 
ATOM      2  C   UNL     1       2.400   5.844  20.400  0.00  0.00    +0.000 A 
ATOM      3  N   UNL     1       3.163   5.500  19.347  0.00  0.00    +0.000 NA
ATOM      4  C   UNL     1       3.295   6.358  18.297  0.00  0.00    +0.000 A 
ATOM      5  N   UNL     1       4.043   5.997  17.194  0.00  0.00    +0.000 N 
ATOM      6  C   UNL     1       2.617   7.591  18.367  0.00  0.00    +0.000 A 
ATOM      7  N   UNL     1       2.475   8.627  17.473  0.00  0.00    +0.000 NA
ATOM      8  C   UNL     1       1.630   9.454  18.050  0.00  0.00    +0.000 A 
ATOM      9  N   UNL     1       1.248   9.009  19.289  0.00  0.00    +0.000 N 
ATOM     10  C   UNL     1       1.861   7.806  19.505  0.00  0.00    +0.000 A 
ATOM     11  N   UNL     1       1.731   6.992  20.564  0.00  0.00    +0.000 NA
ATOM     12  H   UNL     1       3.072   4.262  21.377  0.00  0.00    +0.000 HD
ATOM     13  H   UNL     1       2.040   5.309  22.291  0.00  0.00    +0.000 HD
ATOM     14  H   UNL     1       4.628   6.711  16.778  0.00  0.00    +0.000 HD
ENDROOT
BRANCH   9  15
ATOM     15  C1* UNL     1       0.312   9.670  20.169  0.00  0.00    +0.000 C 
ATOM     16  O4* UNL     1      -0.554  10.521  19.391  0.00  0.00    +0.000 OA
ATOM     17  C4* UNL     1      -0.805  11.734  20.146  0.00  0.00    +0.000 C 
ATOM     18  C3* UNL     1      -0.162  11.537  21.521  0.00  0.00    +0.000 C 
ATOM     19  C2* UNL     1       0.952  10.538  21.250  0.00  0.00    +0.000 C 
BRANCH  18  20
ATOM     20  O3* UNL     1      -1.079  10.934  22.456  0.00  0.00    +0.000 OA
ATOM     21  H3* UNL     1      -0.739  10.061  22.723  0.00  0.00    +0.000 HD
ENDBRANCH  18  20
BRANCH  19  22
ATOM     22  O2* UNL     1       1.302   9.793  22.416  0.00  0.00    +0.000 OA
ATOM     23  H2* UNL     1       2.118  10.199  22.774  0.00  0.00    +0.000 HD
ENDBRANCH  19  22
BRANCH  17  24
ATOM     24  C5* UNL     1      -0.242  12.938  19.385  0.00  0.00    +0.000 C 
BRANCH  24  25
ATOM     25  O5* UNL     1      -0.071  12.627  18.003  0.00  0.00    +0.000 OA
ATOM     26  H5* UNL     1       0.870  12.782  17.797  0.00  0.00    +0.000 HD
ENDBRANCH  24  25
ENDBRANCH  17  24
ENDBRANCH   9  15
BRANCH   5  27
ATOM     27  C   UNL     1       4.148   4.593  16.853  0.00  0.00    +0.000 C 
BRANCH  27  28
ATOM     28  C   UNL     1       5.607   4.153  16.688  0.00  0.00    +0.000 C 
BRANCH  28  29
ATOM     29  C   UNL     1       6.110   4.254  15.262  0.00  0.00    +0.000 A 
ATOM     30  C   UNL     1       5.469   3.536  14.232  0.00  0.00    +0.000 A 
ATOM     31  C   UNL     1       5.909   3.624  12.910  0.00  0.00    +0.000 A 
ATOM     32  C   UNL     1       7.007   4.423  12.603  0.00  0.00    +0.000 A 
ATOM     33  C   UNL     1       7.653   5.128  13.616  0.00  0.00    +0.000 A 
ATOM     34  C   UNL     1       7.219   5.049  14.934  0.00  0.00    +0.000 A 
BRANCH  32  35
ATOM     35  O   UNL     1       7.481   4.550  11.329  0.00  0.00    +0.000 OA
ATOM     36  H   UNL     1       7.686   5.495  11.178  0.00  0.00    +0.000 HD
ENDBRANCH  32  35
BRANCH  33  37
ATOM     37  O   UNL     1       8.730   5.917  13.316  0.00  0.00    +0.000 OA
ATOM     38  H   UNL     1       9.165   5.472  12.567  0.00  0.00    +0.000 HD
ENDBRANCH  33  37
ENDBRANCH  28  29
ENDBRANCH  27  28
ENDBRANCH   5  27
TORSDOF 10
ENDMDL
