MODEL 1
REMARK VINA RESULT:      -7.1      0.000      0.000
REMARK  Name = 
REMARK  13 active torsions:
REMARK  status: ('A' for Active; 'I' for Inactive)
REMARK    1  A    between atoms: C_1  and  C_2
REMARK    2  A    between atoms: C_4  and  O_5
REMARK    3  A    between atoms: C_7  and  O_8
REMARK    4  A    between atoms: C_9  and  C_10
REMARK    5  A    between atoms: C_11  and  C_12
REMARK    6  A    between atoms: N_14  and  C_15
REMARK    7  A    between atoms: C_15  and  C_16
REMARK    8  A    between atoms: C_15  and  C_18
REMARK    9  A    between atoms: C_16  and  O_17
REMARK   10  A    between atoms: C_18  and  S_19
REMARK   11  A    between atoms: S_19  and  C_21
REMARK   12  A    between atoms: C_21  and  S_22
REMARK   13  A    between atoms: S_22  and  C_23
REMARK                            x       y       z     vdW  Elec       q    Type
REMARK                         _______ _______ _______ _____ _____    ______ ____
ROOT
ATOM      1  C   UNK A   0       7.896   8.064  17.945  0.00  0.00    +0.000 C 
ATOM      2  O   UNK A   0       8.459   7.373  18.783  0.00  0.00    +0.000 OA
ATOM      3  N   UNK A   1       6.915   7.595  17.103  0.00  0.00    +0.000 N 
ATOM      4  H   UNK A   1       6.500   8.248  16.449  0.00  0.00    +0.000 HD
ENDROOT
BRANCH   1   6
ATOM      5  C   UNK A   0       8.994  10.230  18.575  0.00  0.00    +0.000 C 
ATOM      6  C   UNK A   0       8.190   9.524  17.756  0.00  0.00    +0.000 C 
BRANCH   5  13
ATOM      7  C   UNK A   0      11.486  11.494  19.791  0.00  0.00    +0.000 C 
ATOM      8  C   UNK A   0      10.468  12.267  19.002  0.00  0.00    +0.000 A 
ATOM      9  N   UNK A   0      10.782  13.586  18.860  0.00  0.00    +0.000 NA
ATOM     10  C   UNK A   0       9.942  14.316  18.135  0.00  0.00    +0.000 A 
ATOM     11  N   UNK A   0       8.843  13.901  17.525  0.00  0.00    +0.000 NA
ATOM     12  C   UNK A   0       8.582  12.595  17.695  0.00  0.00    +0.000 A 
ATOM     13  C   UNK A   0       9.326  11.681  18.438  0.00  0.00    +0.000 A 
BRANCH  10  14
ATOM     14  O   UNK A   0      10.282  15.627  18.008  0.00  0.00    +0.000 OA
ATOM     15  H   UNK A   0       9.996  15.946  18.880  0.00  0.00    +0.000 HD
ENDBRANCH  10  14
BRANCH  12  16
ATOM     16  O   UNK A   0       7.470  12.236  16.999  0.00  0.00    +0.000 OA
ATOM     17  H   UNK A   0       7.624  12.740  16.177  0.00  0.00    +0.000 HD
ENDBRANCH  12  16
ENDBRANCH   5  13
ENDBRANCH   1   6
BRANCH   3  18
ATOM     18  C   UNK A   1       6.338   6.227  17.087  0.00  0.00    +0.000 C 
BRANCH  18  19
ATOM     19  C   UNK A   1       7.023   5.302  16.057  0.00  0.00    +0.000 C 
BRANCH  19  20
ATOM     20  O   UNK A   1       7.943   4.402  16.663  0.00  0.00    +0.000 OA
ATOM     21  H   UNK A   1       7.569   3.498  16.586  0.00  0.00    +0.000 HD
ENDBRANCH  19  20
ENDBRANCH  18  19
BRANCH  18  22
ATOM     22  C   UNK A   1       4.804   6.216  16.954  0.00  0.00    +0.000 C 
BRANCH  22  23
ATOM     23  S   UNK A   1       4.035   5.661  18.527  0.00  0.00    +0.000 S 
ATOM     24  O   UNK A   1       2.523   5.360  18.211  0.00  0.00    +0.000 OA
BRANCH  23  25
ATOM     25  C   UNK A   1       4.909   4.076  18.648  0.00  0.00    +0.000 C 
BRANCH  25  26
ATOM     26  S   UNK A   1       3.974   2.850  19.617  0.00  0.00    +0.000 S 
ATOM     27  C   UNK A   1       3.412   1.885  18.193  0.00  0.00    +0.000 C 
ATOM     28  O   UNK A   1       5.006   1.959  20.397  0.00  0.00    +0.000 OA
ENDBRANCH  25  26
ENDBRANCH  23  25
ENDBRANCH  22  23
ENDBRANCH  18  22
ENDBRANCH   3  18
TORSDOF 11
ENDMDL
MODEL 2
REMARK VINA RESULT:      -6.9      1.734      1.867
REMARK  Name = 
REMARK  13 active torsions:
REMARK  status: ('A' for Active; 'I' for Inactive)
REMARK    1  A    between atoms: C_1  and  C_2
REMARK    2  A    between atoms: C_4  and  O_5
REMARK    3  A    between atoms: C_7  and  O_8
REMARK    4  A    between atoms: C_9  and  C_10
REMARK    5  A    between atoms: C_11  and  C_12
REMARK    6  A    between atoms: N_14  and  C_15
REMARK    7  A    between atoms: C_15  and  C_16
REMARK    8  A    between atoms: C_15  and  C_18
REMARK    9  A    between atoms: C_16  and  O_17
REMARK   10  A    between atoms: C_18  and  S_19
REMARK   11  A    between atoms: S_19  and  C_21
REMARK   12  A    between atoms: C_21  and  S_22
REMARK   13  A    between atoms: S_22  and  C_23
REMARK                            x       y       z     vdW  Elec       q    Type
REMARK                         _______ _______ _______ _____ _____    ______ ____
ROOT
ATOM      1  C   UNK A   0       8.004   7.937  18.158  0.00  0.00    +0.000 C 
ATOM      2  O   UNK A   0       8.470   7.069  18.884  0.00  0.00    +0.000 OA
ATOM      3  N   UNK A   1       6.997   7.713  17.250  0.00  0.00    +0.000 N 
ATOM      4  H   UNK A   1       6.670   8.499  16.702  0.00  0.00    +0.000 HD
ENDROOT
BRANCH   1   6
ATOM      5  C   UNK A   0       9.303   9.852  19.130  0.00  0.00    +0.000 C 
ATOM      6  C   UNK A   0       8.459   9.367  18.197  0.00  0.00    +0.000 C 
BRANCH   5  13
ATOM      7  C   UNK A   0       8.761  11.658  21.524  0.00  0.00    +0.000 C 
ATOM      8  C   UNK A   0       9.540  12.097  20.316  0.00  0.00    +0.000 A 
ATOM      9  N   UNK A   0      10.004  13.376  20.408  0.00  0.00    +0.000 NA
ATOM     10  C   UNK A   0      10.737  13.809  19.389  0.00  0.00    +0.000 A 
ATOM     11  N   UNK A   0      11.078  13.133  18.303  0.00  0.00    +0.000 NA
ATOM     12  C   UNK A   0      10.597  11.880  18.265  0.00  0.00    +0.000 A 
ATOM     13  C   UNK A   0       9.792  11.261  19.220  0.00  0.00    +0.000 A 
BRANCH  10  14
ATOM     14  O   UNK A   0      11.189  15.086  19.509  0.00  0.00    +0.000 OA
ATOM     15  H   UNK A   0      10.687  15.355  20.296  0.00  0.00    +0.000 HD
ENDBRANCH  10  14
BRANCH  12  16
ATOM     16  O   UNK A   0      11.030  11.236  17.148  0.00  0.00    +0.000 OA
ATOM     17  H   UNK A   0      10.750  11.881  16.470  0.00  0.00    +0.000 HD
ENDBRANCH  12  16
ENDBRANCH   5  13
ENDBRANCH   1   6
BRANCH   3  18
ATOM     18  C   UNK A   1       6.275   6.436  17.021  0.00  0.00    +0.000 C 
BRANCH  18  19
ATOM     19  C   UNK A   1       7.011   5.502  16.035  0.00  0.00    +0.000 C 
BRANCH  19  20
ATOM     20  O   UNK A   1       7.844   4.560  16.698  0.00  0.00    +0.000 OA
ATOM     21  H   UNK A   1       8.040   3.838  16.063  0.00  0.00    +0.000 HD
ENDBRANCH  19  20
ENDBRANCH  18  19
BRANCH  18  22
ATOM     22  C   UNK A   1       4.794   6.633  16.647  0.00  0.00    +0.000 C 
BRANCH  22  23
ATOM     23  S   UNK A   1       3.716   6.180  18.064  0.00  0.00    +0.000 S 
ATOM     24  O   UNK A   1       2.467   7.135  18.006  0.00  0.00    +0.000 OA
BRANCH  23  25
ATOM     25  C   UNK A   1       3.209   4.555  17.439  0.00  0.00    +0.000 C 
BRANCH  25  26
ATOM     26  S   UNK A   1       1.736   3.918  18.302  0.00  0.00    +0.000 S 
ATOM     27  C   UNK A   1       2.271   2.190  18.322  0.00  0.00    +0.000 C 
ATOM     28  O   UNK A   1       1.786   4.431  19.787  0.00  0.00    +0.000 OA
ENDBRANCH  25  26
ENDBRANCH  23  25
ENDBRANCH  22  23
ENDBRANCH  18  22
ENDBRANCH   3  18
TORSDOF 11
ENDMDL
MODEL 3
REMARK VINA RESULT:      -6.7      6.203      7.029
REMARK  Name = 
REMARK  13 active torsions:
REMARK  status: ('A' for Active; 'I' for Inactive)
REMARK    1  A    between atoms: C_1  and  C_2
REMARK    2  A    between atoms: C_4  and  O_5
REMARK    3  A    between atoms: C_7  and  O_8
REMARK    4  A    between atoms: C_9  and  C_10
REMARK    5  A    between atoms: C_11  and  C_12
REMARK    6  A    between atoms: N_14  and  C_15
REMARK    7  A    between atoms: C_15  and  C_16
REMARK    8  A    between atoms: C_15  and  C_18
REMARK    9  A    between atoms: C_16  and  O_17
REMARK   10  A    between atoms: C_18  and  S_19
REMARK   11  A    between atoms: S_19  and  C_21
REMARK   12  A    between atoms: C_21  and  S_22
REMARK   13  A    between atoms: S_22  and  C_23
REMARK                            x       y       z     vdW  Elec       q    Type
REMARK                         _______ _______ _______ _____ _____    ______ ____
ROOT
ATOM      1  C   UNK A   0       3.457   6.220  18.606  0.00  0.00    +0.000 C 
ATOM      2  O   UNK A   0       4.117   5.954  19.602  0.00  0.00    +0.000 OA
ATOM      3  N   UNK A   1       3.426   5.434  17.478  0.00  0.00    +0.000 N 
ATOM      4  H   UNK A   1       2.840   5.733  16.709  0.00  0.00    +0.000 HD
ENDROOT
BRANCH   1   6
ATOM      5  C   UNK A   0       1.970   7.994  19.573  0.00  0.00    +0.000 C 
ATOM      6  C   UNK A   0       2.574   7.429  18.509  0.00  0.00    +0.000 C 
BRANCH   5  13
ATOM      7  C   UNK A   0       0.031   8.698  21.815  0.00  0.00    +0.000 C 
ATOM      8  C   UNK A   0       0.185   9.520  20.567  0.00  0.00    +0.000 A 
ATOM      9  N   UNK A   0      -0.609  10.628  20.547  0.00  0.00    +0.000 NA
ATOM     10  C   UNK A   0      -0.487  11.420  19.489  0.00  0.00    +0.000 A 
ATOM     11  N   UNK A   0       0.329  11.260  18.458  0.00  0.00    +0.000 NA
ATOM     12  C   UNK A   0       1.089  10.156  18.529  0.00  0.00    +0.000 A 
ATOM     13  C   UNK A   0       1.084   9.196  19.541  0.00  0.00    +0.000 A 
BRANCH  10  14
ATOM     14  O   UNK A   0      -1.289  12.519  19.498  0.00  0.00    +0.000 OA
ATOM     15  H   UNK A   0      -1.765  12.370  18.665  0.00  0.00    +0.000 HD
ENDBRANCH  10  14
BRANCH  12  16
ATOM     16  O   UNK A   0       1.933  10.088  17.465  0.00  0.00    +0.000 OA
ATOM     17  H   UNK A   0       2.786  10.051  17.938  0.00  0.00    +0.000 HD
ENDBRANCH  12  16
ENDBRANCH   5  13
ENDBRANCH   1   6
BRANCH   3  18
ATOM     18  C   UNK A   1       4.120   4.135  17.282  0.00  0.00    +0.000 C 
BRANCH  18  19
ATOM     19  C   UNK A   1       5.036   4.130  16.038  0.00  0.00    +0.000 C 
BRANCH  19  20
ATOM     20  O   UNK A   1       6.346   3.662  16.332  0.00  0.00    +0.000 OA
ATOM     21  H   UNK A   1       6.870   4.428  16.651  0.00  0.00    +0.000 HD
ENDBRANCH  19  20
ENDBRANCH  18  19
BRANCH  18  22
ATOM     22  C   UNK A   1       3.166   2.926  17.312  0.00  0.00    +0.000 C 
BRANCH  22  23
ATOM     23  S   UNK A   1       3.571   1.834  18.732  0.00  0.00    +0.000 S 
ATOM     24  O   UNK A   1       4.694   2.563  19.558  0.00  0.00    +0.000 OA
BRANCH  23  25
ATOM     25  C   UNK A   1       2.001   2.039  19.618  0.00  0.00    +0.000 C 
BRANCH  25  26
ATOM     26  S   UNK A   1       2.159   3.168  21.039  0.00  0.00    +0.000 S 
ATOM     27  C   UNK A   1       0.973   4.392  20.430  0.00  0.00    +0.000 C 
ATOM     28  O   UNK A   1       1.503   2.473  22.286  0.00  0.00    +0.000 OA
ENDBRANCH  25  26
ENDBRANCH  23  25
ENDBRANCH  22  23
ENDBRANCH  18  22
ENDBRANCH   3  18
TORSDOF 11
ENDMDL
MODEL 4
REMARK VINA RESULT:      -6.7      1.471      1.612
REMARK  Name = 
REMARK  13 active torsions:
REMARK  status: ('A' for Active; 'I' for Inactive)
REMARK    1  A    between atoms: C_1  and  C_2
REMARK    2  A    between atoms: C_4  and  O_5
REMARK    3  A    between atoms: C_7  and  O_8
REMARK    4  A    between atoms: C_9  and  C_10
REMARK    5  A    between atoms: C_11  and  C_12
REMARK    6  A    between atoms: N_14  and  C_15
REMARK    7  A    between atoms: C_15  and  C_16
REMARK    8  A    between atoms: C_15  and  C_18
REMARK    9  A    between atoms: C_16  and  O_17
REMARK   10  A    between atoms: C_18  and  S_19
REMARK   11  A    between atoms: S_19  and  C_21
REMARK   12  A    between atoms: C_21  and  S_22
REMARK   13  A    between atoms: S_22  and  C_23
REMARK                            x       y       z     vdW  Elec       q    Type
REMARK                         _______ _______ _______ _____ _____    ______ ____
ROOT
ATOM      1  C   UNK A   0       8.060   7.917  18.204  0.00  0.00    +0.000 C 
ATOM      2  O   UNK A   0       8.510   7.085  18.981  0.00  0.00    +0.000 OA
ATOM      3  N   UNK A   1       7.119   7.633  17.243  0.00  0.00    +0.000 N 
ATOM      4  H   UNK A   1       6.800   8.392  16.653  0.00  0.00    +0.000 HD
ENDROOT
BRANCH   1   6
ATOM      5  C   UNK A   0       9.281   9.888  19.162  0.00  0.00    +0.000 C 
ATOM      6  C   UNK A   0       8.463   9.362  18.229  0.00  0.00    +0.000 C 
BRANCH   5  13
ATOM      7  C   UNK A   0       8.751  11.669  21.577  0.00  0.00    +0.000 C 
ATOM      8  C   UNK A   0       9.472  12.139  20.345  0.00  0.00    +0.000 A 
ATOM      9  N   UNK A   0       9.890  13.435  20.424  0.00  0.00    +0.000 NA
ATOM     10  C   UNK A   0      10.572  13.897  19.383  0.00  0.00    +0.000 A 
ATOM     11  N   UNK A   0      10.902  13.235  18.285  0.00  0.00    +0.000 NA
ATOM     12  C   UNK A   0      10.468  11.965  18.260  0.00  0.00    +0.000 A 
ATOM     13  C   UNK A   0       9.719  11.314  19.239  0.00  0.00    +0.000 A 
BRANCH  10  14
ATOM     14  O   UNK A   0      10.979  15.190  19.491  0.00  0.00    +0.000 OA
ATOM     15  H   UNK A   0      11.665  15.194  18.804  0.00  0.00    +0.000 HD
ENDBRANCH  10  14
BRANCH  12  16
ATOM     16  O   UNK A   0      10.888  11.339  17.127  0.00  0.00    +0.000 OA
ATOM     17  H   UNK A   0      10.056  10.899  16.868  0.00  0.00    +0.000 HD
ENDBRANCH  12  16
ENDBRANCH   5  13
ENDBRANCH   1   6
BRANCH   3  18
ATOM     18  C   UNK A   1       6.456   6.325  17.007  0.00  0.00    +0.000 C 
BRANCH  18  19
ATOM     19  C   UNK A   1       6.981   5.608  15.744  0.00  0.00    +0.000 C 
BRANCH  19  20
ATOM     20  O   UNK A   1       7.818   4.501  16.056  0.00  0.00    +0.000 OA
ATOM     21  H   UNK A   1       8.373   4.756  16.824  0.00  0.00    +0.000 HD
ENDBRANCH  19  20
ENDBRANCH  18  19
BRANCH  18  22
ATOM     22  C   UNK A   1       4.919   6.409  17.037  0.00  0.00    +0.000 C 
BRANCH  22  23
ATOM     23  S   UNK A   1       4.192   4.722  17.073  0.00  0.00    +0.000 S 
ATOM     24  O   UNK A   1       4.723   3.973  15.796  0.00  0.00    +0.000 OA
BRANCH  23  25
ATOM     25  C   UNK A   1       5.122   4.117  18.508  0.00  0.00    +0.000 C 
BRANCH  25  26
ATOM     26  S   UNK A   1       4.106   3.052  19.582  0.00  0.00    +0.000 S 
ATOM     27  C   UNK A   1       3.393   2.069  18.240  0.00  0.00    +0.000 C 
ATOM     28  O   UNK A   1       5.073   2.105  20.380  0.00  0.00    +0.000 OA
ENDBRANCH  25  26
ENDBRANCH  23  25
ENDBRANCH  22  23
ENDBRANCH  18  22
ENDBRANCH   3  18
TORSDOF 11
ENDMDL
MODEL 5
REMARK VINA RESULT:      -6.7      1.802      2.179
REMARK  Name = 
REMARK  13 active torsions:
REMARK  status: ('A' for Active; 'I' for Inactive)
REMARK    1  A    between atoms: C_1  and  C_2
REMARK    2  A    between atoms: C_4  and  O_5
REMARK    3  A    between atoms: C_7  and  O_8
REMARK    4  A    between atoms: C_9  and  C_10
REMARK    5  A    between atoms: C_11  and  C_12
REMARK    6  A    between atoms: N_14  and  C_15
REMARK    7  A    between atoms: C_15  and  C_16
REMARK    8  A    between atoms: C_15  and  C_18
REMARK    9  A    between atoms: C_16  and  O_17
REMARK   10  A    between atoms: C_18  and  S_19
REMARK   11  A    between atoms: S_19  and  C_21
REMARK   12  A    between atoms: C_21  and  S_22
REMARK   13  A    between atoms: S_22  and  C_23
REMARK                            x       y       z     vdW  Elec       q    Type
REMARK                         _______ _______ _______ _____ _____    ______ ____
ROOT
ATOM      1  C   UNK A   0       8.117   7.858  18.209  0.00  0.00    +0.000 C 
ATOM      2  O   UNK A   0       8.538   7.053  19.030  0.00  0.00    +0.000 OA
ATOM      3  N   UNK A   1       7.258   7.527  17.187  0.00  0.00    +0.000 N 
ATOM      4  H   UNK A   1       6.957   8.267  16.565  0.00  0.00    +0.000 HD
ENDROOT
BRANCH   1   6
ATOM      5  C   UNK A   0       9.330   9.855  19.124  0.00  0.00    +0.000 C 
ATOM      6  C   UNK A   0       8.467   9.317  18.240  0.00  0.00    +0.000 C 
BRANCH   5  13
ATOM      7  C   UNK A   0       8.671  11.632  21.509  0.00  0.00    +0.000 C 
ATOM      8  C   UNK A   0       9.412  12.118  20.296  0.00  0.00    +0.000 A 
ATOM      9  N   UNK A   0       9.785  13.427  20.378  0.00  0.00    +0.000 NA
ATOM     10  C   UNK A   0      10.482  13.905  19.354  0.00  0.00    +0.000 A 
ATOM     11  N   UNK A   0      10.866  13.247  18.270  0.00  0.00    +0.000 NA
ATOM     12  C   UNK A   0      10.475  11.964  18.242  0.00  0.00    +0.000 A 
ATOM     13  C   UNK A   0       9.719  11.295  19.203  0.00  0.00    +0.000 A 
BRANCH  10  14
ATOM     14  O   UNK A   0      10.843  15.212  19.464  0.00  0.00    +0.000 OA
ATOM     15  H   UNK A   0      11.728  15.162  19.067  0.00  0.00    +0.000 HD
ENDBRANCH  10  14
BRANCH  12  16
ATOM     16  O   UNK A   0      10.948  11.345  17.127  0.00  0.00    +0.000 OA
ATOM     17  H   UNK A   0      10.900  10.417  17.425  0.00  0.00    +0.000 HD
ENDBRANCH  12  16
ENDBRANCH   5  13
ENDBRANCH   1   6
BRANCH   3  18
ATOM     18  C   UNK A   1       6.661   6.194  16.926  0.00  0.00    +0.000 C 
BRANCH  18  19
ATOM     19  C   UNK A   1       6.360   5.956  15.430  0.00  0.00    +0.000 C 
BRANCH  19  20
ATOM     20  O   UNK A   1       7.463   5.383  14.739  0.00  0.00    +0.000 OA
ATOM     21  H   UNK A   1       7.774   4.614  15.262  0.00  0.00    +0.000 HD
ENDBRANCH  19  20
ENDBRANCH  18  19
BRANCH  18  22
ATOM     22  C   UNK A   1       5.447   5.885  17.824  0.00  0.00    +0.000 C 
BRANCH  22  23
ATOM     23  S   UNK A   1       5.146   4.074  17.883  0.00  0.00    +0.000 S 
ATOM     24  O   UNK A   1       5.262   3.645  19.393  0.00  0.00    +0.000 OA
BRANCH  23  25
ATOM     25  C   UNK A   1       3.385   4.134  17.451  0.00  0.00    +0.000 C 
BRANCH  25  26
ATOM     26  S   UNK A   1       2.329   3.496  18.791  0.00  0.00    +0.000 S 
ATOM     27  C   UNK A   1       2.050   5.101  19.580  0.00  0.00    +0.000 C 
ATOM     28  O   UNK A   1       0.961   3.051  18.160  0.00  0.00    +0.000 OA
ENDBRANCH  25  26
ENDBRANCH  23  25
ENDBRANCH  22  23
ENDBRANCH  18  22
ENDBRANCH   3  18
TORSDOF 11
ENDMDL
MODEL 6
REMARK VINA RESULT:      -6.6      6.055      7.469
REMARK  Name = 
REMARK  13 active torsions:
REMARK  status: ('A' for Active; 'I' for Inactive)
REMARK    1  A    between atoms: C_1  and  C_2
REMARK    2  A    between atoms: C_4  and  O_5
REMARK    3  A    between atoms: C_7  and  O_8
REMARK    4  A    between atoms: C_9  and  C_10
REMARK    5  A    between atoms: C_11  and  C_12
REMARK    6  A    between atoms: N_14  and  C_15
REMARK    7  A    between atoms: C_15  and  C_16
REMARK    8  A    between atoms: C_15  and  C_18
REMARK    9  A    between atoms: C_16  and  O_17
REMARK   10  A    between atoms: C_18  and  S_19
REMARK   11  A    between atoms: S_19  and  C_21
REMARK   12  A    between atoms: C_21  and  S_22
REMARK   13  A    between atoms: S_22  and  C_23
REMARK                            x       y       z     vdW  Elec       q    Type
REMARK                         _______ _______ _______ _____ _____    ______ ____
ROOT
ATOM      1  C   UNK A   0       1.676   4.762  20.386  0.00  0.00    +0.000 C 
ATOM      2  O   UNK A   0       1.181   3.830  21.006  0.00  0.00    +0.000 OA
ATOM      3  N   UNK A   1       2.681   4.614  19.459  0.00  0.00    +0.000 N 
ATOM      4  H   UNK A   1       3.018   5.446  18.990  0.00  0.00    +0.000 HD
ENDROOT
BRANCH   1   6
ATOM      5  C   UNK A   0       1.959   7.245  20.167  0.00  0.00    +0.000 C 
ATOM      6  C   UNK A   0       1.221   6.183  20.544  0.00  0.00    +0.000 C 
BRANCH   5  13
ATOM      7  C   UNK A   0       1.257   9.004  17.779  0.00  0.00    +0.000 C 
ATOM      8  C   UNK A   0       1.243   9.494  19.199  0.00  0.00    +0.000 A 
ATOM      9  N   UNK A   0       0.859  10.797  19.318  0.00  0.00    +0.000 NA
ATOM     10  C   UNK A   0       0.785  11.278  20.553  0.00  0.00    +0.000 A 
ATOM     11  N   UNK A   0       1.029  10.628  21.681  0.00  0.00    +0.000 NA
ATOM     12  C   UNK A   0       1.401   9.350  21.507  0.00  0.00    +0.000 A 
ATOM     13  C   UNK A   0       1.560   8.680  20.295  0.00  0.00    +0.000 A 
BRANCH  10  14
ATOM     14  O   UNK A   0       0.396  12.578  20.642  0.00  0.00    +0.000 OA
ATOM     15  H   UNK A   0       0.564  12.726  21.587  0.00  0.00    +0.000 HD
ENDBRANCH  10  14
BRANCH  12  16
ATOM     16  O   UNK A   0       1.584   8.738  22.708  0.00  0.00    +0.000 OA
ATOM     17  H   UNK A   0       0.678   8.811  23.067  0.00  0.00    +0.000 HD
ENDBRANCH  12  16
ENDBRANCH   5  13
ENDBRANCH   1   6
BRANCH   3  18
ATOM     18  C   UNK A   1       3.296   3.339  19.012  0.00  0.00    +0.000 C 
BRANCH  18  19
ATOM     19  C   UNK A   1       3.837   2.493  20.186  0.00  0.00    +0.000 C 
BRANCH  19  20
ATOM     20  O   UNK A   1       5.219   2.190  20.046  0.00  0.00    +0.000 OA
ATOM     21  H   UNK A   1       5.727   2.955  20.393  0.00  0.00    +0.000 HD
ENDBRANCH  19  20
ENDBRANCH  18  19
BRANCH  18  22
ATOM     22  C   UNK A   1       4.341   3.527  17.896  0.00  0.00    +0.000 C 
BRANCH  22  23
ATOM     23  S   UNK A   1       5.188   5.146  18.085  0.00  0.00    +0.000 S 
ATOM     24  O   UNK A   1       5.539   5.298  19.611  0.00  0.00    +0.000 OA
BRANCH  23  25
ATOM     25  C   UNK A   1       6.708   4.699  17.202  0.00  0.00    +0.000 C 
BRANCH  25  26
ATOM     26  S   UNK A   1       6.739   5.372  15.509  0.00  0.00    +0.000 S 
ATOM     27  C   UNK A   1       6.199   3.846  14.699  0.00  0.00    +0.000 C 
ATOM     28  O   UNK A   1       5.562   6.404  15.376  0.00  0.00    +0.000 OA
ENDBRANCH  25  26
ENDBRANCH  23  25
ENDBRANCH  22  23
ENDBRANCH  18  22
ENDBRANCH   3  18
TORSDOF 11
ENDMDL
MODEL 7
REMARK VINA RESULT:      -6.6      1.606      1.734
REMARK  Name = 
REMARK  13 active torsions:
REMARK  status: ('A' for Active; 'I' for Inactive)
REMARK    1  A    between atoms: C_1  and  C_2
REMARK    2  A    between atoms: C_4  and  O_5
REMARK    3  A    between atoms: C_7  and  O_8
REMARK    4  A    between atoms: C_9  and  C_10
REMARK    5  A    between atoms: C_11  and  C_12
REMARK    6  A    between atoms: N_14  and  C_15
REMARK    7  A    between atoms: C_15  and  C_16
REMARK    8  A    between atoms: C_15  and  C_18
REMARK    9  A    between atoms: C_16  and  O_17
REMARK   10  A    between atoms: C_18  and  S_19
REMARK   11  A    between atoms: S_19  and  C_21
REMARK   12  A    between atoms: C_21  and  S_22
REMARK   13  A    between atoms: S_22  and  C_23
REMARK                            x       y       z     vdW  Elec       q    Type
REMARK                         _______ _______ _______ _____ _____    ______ ____
ROOT
ATOM      1  C   UNK A   0       8.041   7.886  18.228  0.00  0.00    +0.000 C 
ATOM      2  O   UNK A   0       8.522   7.064  18.997  0.00  0.00    +0.000 OA
ATOM      3  N   UNK A   1       7.032   7.600  17.339  0.00  0.00    +0.000 N 
ATOM      4  H   UNK A   1       6.692   8.351  16.751  0.00  0.00    +0.000 HD
ENDROOT
BRANCH   1   6
ATOM      5  C   UNK A   0       9.270   9.883  19.120  0.00  0.00    +0.000 C 
ATOM      6  C   UNK A   0       8.479   9.321  18.185  0.00  0.00    +0.000 C 
BRANCH   5  13
ATOM      7  C   UNK A   0       8.705  11.810  21.412  0.00  0.00    +0.000 C 
ATOM      8  C   UNK A   0       9.476  12.193  20.181  0.00  0.00    +0.000 A 
ATOM      9  N   UNK A   0       9.923  13.481  20.202  0.00  0.00    +0.000 NA
ATOM     10  C   UNK A   0      10.649  13.869  19.160  0.00  0.00    +0.000 A 
ATOM     11  N   UNK A   0      10.998  13.138  18.112  0.00  0.00    +0.000 NA
ATOM     12  C   UNK A   0      10.535  11.879  18.143  0.00  0.00    +0.000 A 
ATOM     13  C   UNK A   0       9.740  11.302  19.132  0.00  0.00    +0.000 A 
BRANCH  10  14
ATOM     14  O   UNK A   0      11.083  15.156  19.209  0.00  0.00    +0.000 OA
ATOM     15  H   UNK A   0      11.837  15.043  19.810  0.00  0.00    +0.000 HD
ENDBRANCH  10  14
BRANCH  12  16
ATOM     16  O   UNK A   0      10.976  11.181  17.062  0.00  0.00    +0.000 OA
ATOM     17  H   UNK A   0      10.693  11.787  16.352  0.00  0.00    +0.000 HD
ENDBRANCH  12  16
ENDBRANCH   5  13
ENDBRANCH   1   6
BRANCH   3  18
ATOM     18  C   UNK A   1       6.325   6.303  17.185  0.00  0.00    +0.000 C 
BRANCH  18  19
ATOM     19  C   UNK A   1       7.121   5.286  16.338  0.00  0.00    +0.000 C 
BRANCH  19  20
ATOM     20  O   UNK A   1       7.327   5.734  15.004  0.00  0.00    +0.000 OA
ATOM     21  H   UNK A   1       7.741   4.997  14.505  0.00  0.00    +0.000 HD
ENDBRANCH  19  20
ENDBRANCH  18  19
BRANCH  18  22
ATOM     22  C   UNK A   1       4.871   6.458  16.703  0.00  0.00    +0.000 C 
BRANCH  22  23
ATOM     23  S   UNK A   1       3.705   5.949  18.028  0.00  0.00    +0.000 S 
ATOM     24  O   UNK A   1       2.394   6.796  17.829  0.00  0.00    +0.000 OA
BRANCH  23  25
ATOM     25  C   UNK A   1       3.390   4.274  17.407  0.00  0.00    +0.000 C 
BRANCH  25  26
ATOM     26  S   UNK A   1       3.951   2.994  18.576  0.00  0.00    +0.000 S 
ATOM     27  C   UNK A   1       3.006   3.613  19.989  0.00  0.00    +0.000 C 
ATOM     28  O   UNK A   1       3.299   1.629  18.150  0.00  0.00    +0.000 OA
ENDBRANCH  25  26
ENDBRANCH  23  25
ENDBRANCH  22  23
ENDBRANCH  18  22
ENDBRANCH   3  18
TORSDOF 11
ENDMDL
MODEL 8
REMARK VINA RESULT:      -6.6      6.015      7.696
REMARK  Name = 
REMARK  13 active torsions:
REMARK  status: ('A' for Active; 'I' for Inactive)
REMARK    1  A    between atoms: C_1  and  C_2
REMARK    2  A    between atoms: C_4  and  O_5
REMARK    3  A    between atoms: C_7  and  O_8
REMARK    4  A    between atoms: C_9  and  C_10
REMARK    5  A    between atoms: C_11  and  C_12
REMARK    6  A    between atoms: N_14  and  C_15
REMARK    7  A    between atoms: C_15  and  C_16
REMARK    8  A    between atoms: C_15  and  C_18
REMARK    9  A    between atoms: C_16  and  O_17
REMARK   10  A    between atoms: C_18  and  S_19
REMARK   11  A    between atoms: S_19  and  C_21
REMARK   12  A    between atoms: C_21  and  S_22
REMARK   13  A    between atoms: S_22  and  C_23
REMARK                            x       y       z     vdW  Elec       q    Type
REMARK                         _______ _______ _______ _____ _____    ______ ____
ROOT
ATOM      1  C   UNK A   0       2.081   5.393  20.475  0.00  0.00    +0.000 C 
ATOM      2  O   UNK A   0       2.274   4.623  21.406  0.00  0.00    +0.000 OA
ATOM      3  N   UNK A   1       2.500   5.153  19.187  0.00  0.00    +0.000 N 
ATOM      4  H   UNK A   1       2.282   5.847  18.482  0.00  0.00    +0.000 HD
ENDROOT
BRANCH   1   6
ATOM      5  C   UNK A   0       1.886   7.893  20.398  0.00  0.00    +0.000 C 
ATOM      6  C   UNK A   0       1.333   6.685  20.623  0.00  0.00    +0.000 C 
BRANCH   5  13
ATOM      7  C   UNK A   0       0.836   9.467  18.009  0.00  0.00    +0.000 C 
ATOM      8  C   UNK A   0       0.716   9.942  19.429  0.00  0.00    +0.000 A 
ATOM      9  N   UNK A   0       0.066  11.135  19.548  0.00  0.00    +0.000 NA
ATOM     10  C   UNK A   0      -0.111  11.588  20.783  0.00  0.00    +0.000 A 
ATOM     11  N   UNK A   0       0.261  11.003  21.911  0.00  0.00    +0.000 NA
ATOM     12  C   UNK A   0       0.894   9.832  21.738  0.00  0.00    +0.000 A 
ATOM     13  C   UNK A   0       1.194   9.211  20.526  0.00  0.00    +0.000 A 
BRANCH  10  14
ATOM     14  O   UNK A   0      -0.765  12.777  20.871  0.00  0.00    +0.000 OA
ATOM     15  H   UNK A   0      -1.609  12.463  21.235  0.00  0.00    +0.000 HD
ENDBRANCH  10  14
BRANCH  12  16
ATOM     16  O   UNK A   0       1.198   9.270  22.939  0.00  0.00    +0.000 OA
ATOM     17  H   UNK A   0       1.848   9.923  23.263  0.00  0.00    +0.000 HD
ENDBRANCH  12  16
ENDBRANCH   5  13
ENDBRANCH   1   6
BRANCH   3  18
ATOM     18  C   UNK A   1       3.192   3.938  18.690  0.00  0.00    +0.000 C 
BRANCH  18  19
ATOM     19  C   UNK A   1       2.324   2.665  18.808  0.00  0.00    +0.000 C 
BRANCH  19  20
ATOM     20  O   UNK A   1       3.060   1.479  18.539  0.00  0.00    +0.000 OA
ATOM     21  H   UNK A   1       3.380   1.532  17.613  0.00  0.00    +0.000 HD
ENDBRANCH  19  20
ENDBRANCH  18  19
BRANCH  18  22
ATOM     22  C   UNK A   1       4.596   3.748  19.296  0.00  0.00    +0.000 C 
BRANCH  22  23
ATOM     23  S   UNK A   1       5.701   5.121  18.779  0.00  0.00    +0.000 S 
ATOM     24  O   UNK A   1       6.822   5.237  19.876  0.00  0.00    +0.000 OA
BRANCH  23  25
ATOM     25  C   UNK A   1       6.415   4.290  17.333  0.00  0.00    +0.000 C 
BRANCH  25  26
ATOM     26  S   UNK A   1       6.870   5.470  16.021  0.00  0.00    +0.000 S 
ATOM     27  C   UNK A   1       5.182   6.034  15.693  0.00  0.00    +0.000 C 
ATOM     28  O   UNK A   1       7.632   6.669  16.691  0.00  0.00    +0.000 OA
ENDBRANCH  25  26
ENDBRANCH  23  25
ENDBRANCH  22  23
ENDBRANCH  18  22
ENDBRANCH   3  18
TORSDOF 11
ENDMDL
MODEL 9
REMARK VINA RESULT:      -6.6      6.262     10.041
REMARK  Name = 
REMARK  13 active torsions:
REMARK  status: ('A' for Active; 'I' for Inactive)
REMARK    1  A    between atoms: C_1  and  C_2
REMARK    2  A    between atoms: C_4  and  O_5
REMARK    3  A    between atoms: C_7  and  O_8
REMARK    4  A    between atoms: C_9  and  C_10
REMARK    5  A    between atoms: C_11  and  C_12
REMARK    6  A    between atoms: N_14  and  C_15
REMARK    7  A    between atoms: C_15  and  C_16
REMARK    8  A    between atoms: C_15  and  C_18
REMARK    9  A    between atoms: C_16  and  O_17
REMARK   10  A    between atoms: C_18  and  S_19
REMARK   11  A    between atoms: S_19  and  C_21
REMARK   12  A    between atoms: C_21  and  S_22
REMARK   13  A    between atoms: S_22  and  C_23
REMARK                            x       y       z     vdW  Elec       q    Type
REMARK                         _______ _______ _______ _____ _____    ______ ____
ROOT
ATOM      1  C   UNK A   0       1.690   8.911  18.506  0.00  0.00    +0.000 C 
ATOM      2  O   UNK A   0       1.917   9.398  17.406  0.00  0.00    +0.000 OA
ATOM      3  N   UNK A   1       0.766   9.418  19.389  0.00  0.00    +0.000 N 
ATOM      4  H   UNK A   1       0.642   8.937  20.271  0.00  0.00    +0.000 HD
ENDROOT
BRANCH   1   6
ATOM      5  C   UNK A   0       2.567   6.573  18.261  0.00  0.00    +0.000 C 
ATOM      6  C   UNK A   0       2.377   7.676  19.011  0.00  0.00    +0.000 C 
BRANCH   5  13
ATOM      7  C   UNK A   0       5.543   6.050  17.867  0.00  0.00    +0.000 C 
ATOM      8  C   UNK A   0       4.610   5.069  18.520  0.00  0.00    +0.000 A 
ATOM      9  N   UNK A   0       5.232   3.932  18.945  0.00  0.00    +0.000 NA
ATOM     10  C   UNK A   0       4.469   3.043  19.570  0.00  0.00    +0.000 A 
ATOM     11  N   UNK A   0       3.176   3.146  19.838  0.00  0.00    +0.000 NA
ATOM     12  C   UNK A   0       2.615   4.284  19.401  0.00  0.00    +0.000 A 
ATOM     13  C   UNK A   0       3.243   5.317  18.706  0.00  0.00    +0.000 A 
BRANCH  10  14
ATOM     14  O   UNK A   0       5.115   1.921  19.985  0.00  0.00    +0.000 OA
ATOM     15  H   UNK A   0       5.088   2.072  20.944  0.00  0.00    +0.000 HD
ENDBRANCH  10  14
BRANCH  12  16
ATOM     16  O   UNK A   0       1.303   4.338  19.757  0.00  0.00    +0.000 OA
ATOM     17  H   UNK A   0       1.095   5.248  19.469  0.00  0.00    +0.000 HD
ENDBRANCH  12  16
ENDBRANCH   5  13
ENDBRANCH   1   6
BRANCH   3  18
ATOM     18  C   UNK A   1      -0.134  10.577  19.163  0.00  0.00    +0.000 C 
BRANCH  18  19
ATOM     19  C   UNK A   1      -1.239  10.282  18.124  0.00  0.00    +0.000 C 
BRANCH  19  20
ATOM     20  O   UNK A   1      -1.314  11.279  17.114  0.00  0.00    +0.000 OA
ATOM     21  H   UNK A   1      -2.210  11.678  17.155  0.00  0.00    +0.000 HD
ENDBRANCH  19  20
ENDBRANCH  18  19
BRANCH  18  22
ATOM     22  C   UNK A   1       0.621  11.884  18.860  0.00  0.00    +0.000 C 
BRANCH  22  23
ATOM     23  S   UNK A   1       1.013  12.767  20.423  0.00  0.00    +0.000 S 
ATOM     24  O   UNK A   1       1.343  11.665  21.496  0.00  0.00    +0.000 OA
BRANCH  23  25
ATOM     25  C   UNK A   1       2.578  13.499  19.871  0.00  0.00    +0.000 C 
BRANCH  25  26
ATOM     26  S   UNK A   1       3.077  14.911  20.909  0.00  0.00    +0.000 S 
ATOM     27  C   UNK A   1       2.027  16.128  20.078  0.00  0.00    +0.000 C 
ATOM     28  O   UNK A   1       2.477  14.692  22.345  0.00  0.00    +0.000 OA
ENDBRANCH  25  26
ENDBRANCH  23  25
ENDBRANCH  22  23
ENDBRANCH  18  22
ENDBRANCH   3  18
TORSDOF 11
ENDMDL
