MODEL 1
REMARK VINA RESULT:      -7.3      0.000      0.000
REMARK  Name = 
REMARK  3 active torsions:
REMARK  status: ('A' for Active; 'I' for Inactive)
REMARK    1  A    between atoms: C_1  and  C_2
REMARK    2  A    between atoms: C_8  and  C_10
REMARK    3  A    between atoms: C_13  and  C_14
REMARK                            x       y       z     vdW  Elec       q    Type
REMARK                         _______ _______ _______ _____ _____    ______ ____
ROOT
ATOM      1  C   UNL     1       4.673   3.860  17.278  0.00  0.00    +0.000 A 
ATOM      2  C   UNL     1       5.742   4.250  18.071  0.00  0.00    +0.000 A 
ATOM      3  S   UNL     1       7.066   4.742  17.103  0.00  0.00    +0.000 S 
ATOM      4  C   UNL     1       6.142   4.442  15.685  0.00  0.00    +0.000 A 
ATOM      5  N   UNL     1       4.895   4.080  15.914  0.00  0.00    +0.000 NA
ENDROOT
BRANCH   1  13
ATOM      6  C   UNL     1       0.795   2.298  18.968  0.00  0.00    +0.000 C 
ATOM      7  C   UNL     1       1.224   3.761  19.030  0.00  0.00    +0.000 C 
ATOM      8  C   UNL     1       1.375   4.223  20.493  0.00  0.00    +0.000 C 
ATOM      9  C   UNL     1       1.638   5.732  20.575  0.00  0.00    +0.000 C 
ATOM     10  C   UNL     1       2.801   6.147  19.672  0.00  0.00    +0.000 C 
ATOM     11  C   UNL     1       2.555   5.649  18.249  0.00  0.00    +0.000 C 
ATOM     12  N   UNL     1       2.413   4.191  18.261  0.00  0.00    +0.000 N 
ATOM     13  C   UNL     1       3.420   3.302  17.832  0.00  0.00    +0.000 C 
ATOM     14  O   UNL     1       3.275   2.079  17.849  0.00  0.00    +0.000 OA
ENDBRANCH   1  13
BRANCH   4  15
ATOM     15  C   UNL     1       6.656   4.506  14.333  0.00  0.00    +0.000 A 
ATOM     16  C   UNL     1       7.640   5.373  13.884  0.00  0.00    +0.000 A 
ATOM     17  C   UNL     1       7.893   5.257  12.486  0.00  0.00    +0.000 A 
ATOM     18  C   UNL     1       7.099   4.300  11.902  0.00  0.00    +0.000 A 
ATOM     19  S   UNL     1       6.068   3.544  13.037  0.00  0.00    +0.000 S 
ENDBRANCH   4  15
TORSDOF 2
ENDMDL
MODEL 2
REMARK VINA RESULT:      -7.2      0.923      1.169
REMARK  Name = 
REMARK  3 active torsions:
REMARK  status: ('A' for Active; 'I' for Inactive)
REMARK    1  A    between atoms: C_1  and  C_2
REMARK    2  A    between atoms: C_8  and  C_10
REMARK    3  A    between atoms: C_13  and  C_14
REMARK                            x       y       z     vdW  Elec       q    Type
REMARK                         _______ _______ _______ _____ _____    ______ ____
ROOT
ATOM      1  C   UNL     1       4.817   3.961  17.626  0.00  0.00    +0.000 A 
ATOM      2  C   UNL     1       5.970   4.515  18.162  0.00  0.00    +0.000 A 
ATOM      3  S   UNL     1       7.082   4.912  16.921  0.00  0.00    +0.000 S 
ATOM      4  C   UNL     1       5.965   4.357  15.739  0.00  0.00    +0.000 A 
ATOM      5  N   UNL     1       4.799   3.980  16.227  0.00  0.00    +0.000 NA
ENDROOT
BRANCH   1  13
ATOM      6  C   UNL     1       1.368   2.490  20.131  0.00  0.00    +0.000 C 
ATOM      7  C   UNL     1       1.544   3.941  19.690  0.00  0.00    +0.000 C 
ATOM      8  C   UNL     1       1.700   4.865  20.914  0.00  0.00    +0.000 C 
ATOM      9  C   UNL     1       1.707   6.342  20.497  0.00  0.00    +0.000 C 
ATOM     10  C   UNL     1       2.727   6.606  19.388  0.00  0.00    +0.000 C 
ATOM     11  C   UNL     1       2.486   5.646  18.224  0.00  0.00    +0.000 C 
ATOM     12  N   UNL     1       2.595   4.264  18.701  0.00  0.00    +0.000 N 
ATOM     13  C   UNL     1       3.712   3.438  18.460  0.00  0.00    +0.000 C 
ATOM     14  O   UNL     1       3.778   2.279  18.869  0.00  0.00    +0.000 OA
ENDBRANCH   1  13
BRANCH   4  15
ATOM     15  C   UNL     1       6.248   4.237  14.325  0.00  0.00    +0.000 A 
ATOM     16  C   UNL     1       5.526   3.475  13.419  0.00  0.00    +0.000 A 
ATOM     17  C   UNL     1       6.081   3.492  12.106  0.00  0.00    +0.000 A 
ATOM     18  C   UNL     1       7.211   4.272  12.040  0.00  0.00    +0.000 A 
ATOM     19  S   UNL     1       7.587   4.982  13.548  0.00  0.00    +0.000 S 
ENDBRANCH   4  15
TORSDOF 2
ENDMDL
MODEL 3
REMARK VINA RESULT:      -7.1      1.549      2.483
REMARK  Name = 
REMARK  3 active torsions:
REMARK  status: ('A' for Active; 'I' for Inactive)
REMARK    1  A    between atoms: C_1  and  C_2
REMARK    2  A    between atoms: C_8  and  C_10
REMARK    3  A    between atoms: C_13  and  C_14
REMARK                            x       y       z     vdW  Elec       q    Type
REMARK                         _______ _______ _______ _____ _____    ______ ____
ROOT
ATOM      1  C   UNL     1       5.085   5.048  17.917  0.00  0.00    +0.000 A 
ATOM      2  C   UNL     1       6.394   4.972  18.369  0.00  0.00    +0.000 A 
ATOM      3  S   UNL     1       7.470   4.700  17.066  0.00  0.00    +0.000 S 
ATOM      4  C   UNL     1       6.149   4.728  15.967  0.00  0.00    +0.000 A 
ATOM      5  N   UNL     1       4.985   5.009  16.521  0.00  0.00    +0.000 NA
ENDROOT
BRANCH   1  13
ATOM      6  C   UNL     1       1.557   5.330  20.711  0.00  0.00    +0.000 C 
ATOM      7  C   UNL     1       2.045   4.028  20.082  0.00  0.00    +0.000 C 
ATOM      8  C   UNL     1       0.953   3.415  19.184  0.00  0.00    +0.000 C 
ATOM      9  C   UNL     1       1.362   2.024  18.681  0.00  0.00    +0.000 C 
ATOM     10  C   UNL     1       2.751   2.047  18.040  0.00  0.00    +0.000 C 
ATOM     11  C   UNL     1       3.758   2.665  19.009  0.00  0.00    +0.000 C 
ATOM     12  N   UNL     1       3.332   4.024  19.353  0.00  0.00    +0.000 N 
ATOM     13  C   UNL     1       3.925   5.189  18.824  0.00  0.00    +0.000 C 
ATOM     14  O   UNL     1       3.550   6.321  19.132  0.00  0.00    +0.000 OA
ENDBRANCH   1  13
BRANCH   4  15
ATOM     15  C   UNL     1       6.239   4.417  14.556  0.00  0.00    +0.000 A 
ATOM     16  C   UNL     1       5.328   3.659  13.836  0.00  0.00    +0.000 A 
ATOM     17  C   UNL     1       5.714   3.459  12.479  0.00  0.00    +0.000 A 
ATOM     18  C   UNL     1       6.910   4.074  12.194  0.00  0.00    +0.000 A 
ATOM     19  S   UNL     1       7.549   4.892  13.552  0.00  0.00    +0.000 S 
ENDBRANCH   4  15
TORSDOF 2
ENDMDL
MODEL 4
REMARK VINA RESULT:      -6.6      1.806      2.264
REMARK  Name = 
REMARK  3 active torsions:
REMARK  status: ('A' for Active; 'I' for Inactive)
REMARK    1  A    between atoms: C_1  and  C_2
REMARK    2  A    between atoms: C_8  and  C_10
REMARK    3  A    between atoms: C_13  and  C_14
REMARK                            x       y       z     vdW  Elec       q    Type
REMARK                         _______ _______ _______ _____ _____    ______ ____
ROOT
ATOM      1  C   UNL     1       4.899   4.437  17.476  0.00  0.00    +0.000 A 
ATOM      2  C   UNL     1       4.841   5.822  17.443  0.00  0.00    +0.000 A 
ATOM      3  S   UNL     1       5.257   6.407  15.888  0.00  0.00    +0.000 S 
ATOM      4  C   UNL     1       5.461   4.793  15.333  0.00  0.00    +0.000 A 
ATOM      5  N   UNL     1       5.155   3.869  16.223  0.00  0.00    +0.000 NA
ENDROOT
BRANCH   1  13
ATOM      6  C   UNL     1       4.097   1.981  21.172  0.00  0.00    +0.000 C 
ATOM      7  C   UNL     1       3.042   2.305  20.118  0.00  0.00    +0.000 C 
ATOM      8  C   UNL     1       1.894   3.130  20.733  0.00  0.00    +0.000 C 
ATOM      9  C   UNL     1       0.746   3.317  19.732  0.00  0.00    +0.000 C 
ATOM     10  C   UNL     1       1.253   3.862  18.395  0.00  0.00    +0.000 C 
ATOM     11  C   UNL     1       2.381   2.975  17.870  0.00  0.00    +0.000 C 
ATOM     12  N   UNL     1       3.468   2.937  18.851  0.00  0.00    +0.000 N 
ATOM     13  C   UNL     1       4.677   3.650  18.710  0.00  0.00    +0.000 C 
ATOM     14  O   UNL     1       5.577   3.599  19.548  0.00  0.00    +0.000 OA
ENDBRANCH   1  13
BRANCH   4  15
ATOM     15  C   UNL     1       5.979   4.425  14.033  0.00  0.00    +0.000 A 
ATOM     16  C   UNL     1       5.375   3.551  13.142  0.00  0.00    +0.000 A 
ATOM     17  C   UNL     1       6.152   3.323  11.968  0.00  0.00    +0.000 A 
ATOM     18  C   UNL     1       7.328   4.034  11.990  0.00  0.00    +0.000 A 
ATOM     19  S   UNL     1       7.482   4.973  13.409  0.00  0.00    +0.000 S 
ENDBRANCH   4  15
TORSDOF 2
ENDMDL
MODEL 5
REMARK VINA RESULT:      -6.6      4.509      7.148
REMARK  Name = 
REMARK  3 active torsions:
REMARK  status: ('A' for Active; 'I' for Inactive)
REMARK    1  A    between atoms: C_1  and  C_2
REMARK    2  A    between atoms: C_8  and  C_10
REMARK    3  A    between atoms: C_13  and  C_14
REMARK                            x       y       z     vdW  Elec       q    Type
REMARK                         _______ _______ _______ _____ _____    ______ ____
ROOT
ATOM      1  C   UNL     1       2.984   6.736  19.059  0.00  0.00    +0.000 A 
ATOM      2  C   UNL     1       2.954   7.370  17.826  0.00  0.00    +0.000 A 
ATOM      3  S   UNL     1       2.022   8.804  17.906  0.00  0.00    +0.000 S 
ATOM      4  C   UNL     1       1.733   8.526  19.578  0.00  0.00    +0.000 A 
ATOM      5  N   UNL     1       2.362   7.477  20.071  0.00  0.00    +0.000 NA
ENDROOT
BRANCH   1  13
ATOM      6  C   UNL     1       4.846   2.678  19.693  0.00  0.00    +0.000 C 
ATOM      7  C   UNL     1       3.343   2.943  19.735  0.00  0.00    +0.000 C 
ATOM      8  C   UNL     1       2.771   2.610  21.127  0.00  0.00    +0.000 C 
ATOM      9  C   UNL     1       1.240   2.707  21.136  0.00  0.00    +0.000 C 
ATOM     10  C   UNL     1       0.760   4.047  20.575  0.00  0.00    +0.000 C 
ATOM     11  C   UNL     1       1.377   4.280  19.196  0.00  0.00    +0.000 C 
ATOM     12  N   UNL     1       2.838   4.266  19.307  0.00  0.00    +0.000 N 
ATOM     13  C   UNL     1       3.638   5.427  19.277  0.00  0.00    +0.000 C 
ATOM     14  O   UNL     1       4.865   5.388  19.369  0.00  0.00    +0.000 OA
ENDBRANCH   1  13
BRANCH   4  15
ATOM     15  C   UNL     1       0.839   9.308  20.404  0.00  0.00    +0.000 A 
ATOM     16  C   UNL     1       0.615   9.114  21.758  0.00  0.00    +0.000 A 
ATOM     17  C   UNL     1      -0.373   9.991  22.294  0.00  0.00    +0.000 A 
ATOM     18  C   UNL     1      -0.876  10.838  21.335  0.00  0.00    +0.000 A 
ATOM     19  S   UNL     1      -0.151  10.579  19.809  0.00  0.00    +0.000 S 
ENDBRANCH   4  15
TORSDOF 2
ENDMDL
MODEL 6
REMARK VINA RESULT:      -6.5      2.139      3.243
REMARK  Name = 
REMARK  3 active torsions:
REMARK  status: ('A' for Active; 'I' for Inactive)
REMARK    1  A    between atoms: C_1  and  C_2
REMARK    2  A    between atoms: C_8  and  C_10
REMARK    3  A    between atoms: C_13  and  C_14
REMARK                            x       y       z     vdW  Elec       q    Type
REMARK                         _______ _______ _______ _____ _____    ______ ____
ROOT
ATOM      1  C   UNL     1       4.434   3.966  17.167  0.00  0.00    +0.000 A 
ATOM      2  C   UNL     1       4.853   3.819  15.852  0.00  0.00    +0.000 A 
ATOM      3  S   UNL     1       6.192   4.834  15.527  0.00  0.00    +0.000 S 
ATOM      4  C   UNL     1       6.167   5.392  17.153  0.00  0.00    +0.000 A 
ATOM      5  N   UNL     1       5.273   4.797  17.918  0.00  0.00    +0.000 NA
ENDROOT
BRANCH   1  13
ATOM      6  C   UNL     1       0.731   2.019  18.848  0.00  0.00    +0.000 C 
ATOM      7  C   UNL     1       1.056   3.503  18.995  0.00  0.00    +0.000 C 
ATOM      8  C   UNL     1       1.217   3.879  20.481  0.00  0.00    +0.000 C 
ATOM      9  C   UNL     1       1.374   5.395  20.656  0.00  0.00    +0.000 C 
ATOM     10  C   UNL     1       2.476   5.952  19.754  0.00  0.00    +0.000 C 
ATOM     11  C   UNL     1       2.224   5.529  18.307  0.00  0.00    +0.000 C 
ATOM     12  N   UNL     1       2.187   4.066  18.227  0.00  0.00    +0.000 N 
ATOM     13  C   UNL     1       3.242   3.283  17.715  0.00  0.00    +0.000 C 
ATOM     14  O   UNL     1       3.185   2.055  17.655  0.00  0.00    +0.000 OA
ENDBRANCH   1  13
BRANCH   4  15
ATOM     15  C   UNL     1       6.992   6.461  17.673  0.00  0.00    +0.000 A 
ATOM     16  C   UNL     1       7.111   7.729  17.126  0.00  0.00    +0.000 A 
ATOM     17  C   UNL     1       8.052   8.550  17.813  0.00  0.00    +0.000 A 
ATOM     18  C   UNL     1       8.626   7.889  18.873  0.00  0.00    +0.000 A 
ATOM     19  S   UNL     1       8.023   6.299  19.038  0.00  0.00    +0.000 S 
ENDBRANCH   4  15
TORSDOF 2
ENDMDL
MODEL 7
REMARK VINA RESULT:      -6.5      1.670      2.052
REMARK  Name = 
REMARK  3 active torsions:
REMARK  status: ('A' for Active; 'I' for Inactive)
REMARK    1  A    between atoms: C_1  and  C_2
REMARK    2  A    between atoms: C_8  and  C_10
REMARK    3  A    between atoms: C_13  and  C_14
REMARK                            x       y       z     vdW  Elec       q    Type
REMARK                         _______ _______ _______ _____ _____    ______ ____
ROOT
ATOM      1  C   UNL     1       4.927   4.514  17.475  0.00  0.00    +0.000 A 
ATOM      2  C   UNL     1       4.694   5.881  17.435  0.00  0.00    +0.000 A 
ATOM      3  S   UNL     1       5.170   6.531  15.925  0.00  0.00    +0.000 S 
ATOM      4  C   UNL     1       5.630   4.963  15.392  0.00  0.00    +0.000 A 
ATOM      5  N   UNL     1       5.367   3.998  16.252  0.00  0.00    +0.000 NA
ENDROOT
BRANCH   1  13
ATOM      6  C   UNL     1       4.107   1.949  21.092  0.00  0.00    +0.000 C 
ATOM      7  C   UNL     1       3.070   2.262  20.016  0.00  0.00    +0.000 C 
ATOM      8  C   UNL     1       1.880   3.035  20.616  0.00  0.00    +0.000 C 
ATOM      9  C   UNL     1       0.754   3.208  19.588  0.00  0.00    +0.000 C 
ATOM     10  C   UNL     1       1.278   3.800  18.279  0.00  0.00    +0.000 C 
ATOM     11  C   UNL     1       2.449   2.963  17.765  0.00  0.00    +0.000 C 
ATOM     12  N   UNL     1       3.510   2.937  18.776  0.00  0.00    +0.000 N 
ATOM     13  C   UNL     1       4.698   3.692  18.684  0.00  0.00    +0.000 C 
ATOM     14  O   UNL     1       5.576   3.651  19.546  0.00  0.00    +0.000 OA
ENDBRANCH   1  13
BRANCH   4  15
ATOM     15  C   UNL     1       6.307   4.679  14.145  0.00  0.00    +0.000 A 
ATOM     16  C   UNL     1       7.455   5.307  13.687  0.00  0.00    +0.000 A 
ATOM     17  C   UNL     1       7.854   4.870  12.391  0.00  0.00    +0.000 A 
ATOM     18  C   UNL     1       7.003   3.912  11.892  0.00  0.00    +0.000 A 
ATOM     19  S   UNL     1       5.744   3.542  12.986  0.00  0.00    +0.000 S 
ENDBRANCH   4  15
TORSDOF 2
ENDMDL
MODEL 8
REMARK VINA RESULT:      -6.5      3.923      7.633
REMARK  Name = 
REMARK  3 active torsions:
REMARK  status: ('A' for Active; 'I' for Inactive)
REMARK    1  A    between atoms: C_1  and  C_2
REMARK    2  A    between atoms: C_8  and  C_10
REMARK    3  A    between atoms: C_13  and  C_14
REMARK                            x       y       z     vdW  Elec       q    Type
REMARK                         _______ _______ _______ _____ _____    ______ ____
ROOT
ATOM      1  C   UNL     1       2.370   7.018  18.528  0.00  0.00    +0.000 A 
ATOM      2  C   UNL     1       2.372   8.013  17.560  0.00  0.00    +0.000 A 
ATOM      3  S   UNL     1       1.738   9.472  18.192  0.00  0.00    +0.000 S 
ATOM      4  C   UNL     1       1.524   8.720  19.722  0.00  0.00    +0.000 A 
ATOM      5  N   UNL     1       1.975   7.482  19.788  0.00  0.00    +0.000 NA
ENDROOT
BRANCH   1  13
ATOM      6  C   UNL     1       3.756   2.811  17.685  0.00  0.00    +0.000 C 
ATOM      7  C   UNL     1       4.610   4.054  17.448  0.00  0.00    +0.000 C 
ATOM      8  C   UNL     1       4.965   4.193  15.955  0.00  0.00    +0.000 C 
ATOM      9  C   UNL     1       5.961   5.337  15.725  0.00  0.00    +0.000 C 
ATOM     10  C   UNL     1       5.478   6.638  16.370  0.00  0.00    +0.000 C 
ATOM     11  C   UNL     1       5.158   6.397  17.844  0.00  0.00    +0.000 C 
ATOM     12  N   UNL     1       4.130   5.358  17.956  0.00  0.00    +0.000 N 
ATOM     13  C   UNL     1       2.777   5.624  18.251  0.00  0.00    +0.000 C 
ATOM     14  O   UNL     1       1.933   4.732  18.343  0.00  0.00    +0.000 OA
ENDBRANCH   1  13
BRANCH   4  15
ATOM     15  C   UNL     1       0.857   9.324  20.856  0.00  0.00    +0.000 A 
ATOM     16  C   UNL     1       0.924   8.875  22.166  0.00  0.00    +0.000 A 
ATOM     17  C   UNL     1       0.106   9.628  23.058  0.00  0.00    +0.000 A 
ATOM     18  C   UNL     1      -0.563  10.638  22.408  0.00  0.00    +0.000 A 
ATOM     19  S   UNL     1      -0.194  10.678  20.740  0.00  0.00    +0.000 S 
ENDBRANCH   4  15
TORSDOF 2
ENDMDL
MODEL 9
REMARK VINA RESULT:      -6.2      4.337      6.913
REMARK  Name = 
REMARK  3 active torsions:
REMARK  status: ('A' for Active; 'I' for Inactive)
REMARK    1  A    between atoms: C_1  and  C_2
REMARK    2  A    between atoms: C_8  and  C_10
REMARK    3  A    between atoms: C_13  and  C_14
REMARK                            x       y       z     vdW  Elec       q    Type
REMARK                         _______ _______ _______ _____ _____    ______ ____
ROOT
ATOM      1  C   UNL     1       2.620   6.996  18.894  0.00  0.00    +0.000 A 
ATOM      2  C   UNL     1       2.233   6.772  20.208  0.00  0.00    +0.000 A 
ATOM      3  S   UNL     1       1.321   8.094  20.802  0.00  0.00    +0.000 S 
ATOM      4  C   UNL     1       1.461   8.879  19.279  0.00  0.00    +0.000 A 
ATOM      5  N   UNL     1       2.074   8.166  18.354  0.00  0.00    +0.000 NA
ENDROOT
BRANCH   1  13
ATOM      6  C   UNL     1       5.160   4.093  16.559  0.00  0.00    +0.000 C 
ATOM      7  C   UNL     1       3.724   3.812  16.993  0.00  0.00    +0.000 C 
ATOM      8  C   UNL     1       3.670   2.599  17.942  0.00  0.00    +0.000 C 
ATOM      9  C   UNL     1       2.221   2.199  18.251  0.00  0.00    +0.000 C 
ATOM     10  C   UNL     1       1.399   3.398  18.730  0.00  0.00    +0.000 C 
ATOM     11  C   UNL     1       1.515   4.540  17.722  0.00  0.00    +0.000 C 
ATOM     12  N   UNL     1       2.923   4.914  17.568  0.00  0.00    +0.000 N 
ATOM     13  C   UNL     1       3.494   6.069  18.143  0.00  0.00    +0.000 C 
ATOM     14  O   UNL     1       4.681   6.363  17.996  0.00  0.00    +0.000 OA
ENDBRANCH   1  13
BRANCH   4  15
ATOM     15  C   UNL     1       1.017  10.227  18.999  0.00  0.00    +0.000 A 
ATOM     16  C   UNL     1       1.825  11.274  18.587  0.00  0.00    +0.000 A 
ATOM     17  C   UNL     1       1.123  12.508  18.457  0.00  0.00    +0.000 A 
ATOM     18  C   UNL     1      -0.209  12.371  18.770  0.00  0.00    +0.000 A 
ATOM     19  S   UNL     1      -0.602  10.765  19.204  0.00  0.00    +0.000 S 
ENDBRANCH   4  15
TORSDOF 2
ENDMDL
