MODEL 1
REMARK VINA RESULT:      -8.7      0.000      0.000
REMARK  Name = 
REMARK  6 active torsions:
REMARK  status: ('A' for Active; 'I' for Inactive)
REMARK    1  A    between atoms: C_1  and  N_2
REMARK    2  A    between atoms: N_5  and  C_6
REMARK    3  A    between atoms: C_6  and  C_7
REMARK    4  A    between atoms: C_7  and  C_8
REMARK    5  A    between atoms: C_8  and  C_9
REMARK    6  A    between atoms: N_11  and  C_12
REMARK                            x       y       z     vdW  Elec       q    Type
REMARK                         _______ _______ _______ _____ _____    ______ ____
ROOT
ATOM      1  C   UNL     1       2.168   6.984  19.820  0.00  0.00    +0.000 A 
ATOM      2  C   UNL     1       2.322   7.367  18.484  0.00  0.00    +0.000 A 
ATOM      3  C   UNL     1       2.090   8.679  18.084  0.00  0.00    +0.000 A 
ATOM      4  C   UNL     1       1.632   9.607  19.004  0.00  0.00    +0.000 A 
ATOM      5  N   UNL     1       1.580  10.949  18.627  0.00  0.00    +0.000 NA
ATOM      6  C   UNL     1       0.792  11.684  19.324  0.00  0.00    +0.000 A 
ATOM      7  C   UNL     1       0.654  13.083  19.087  0.00  0.00    +0.000 A 
ATOM      8  N   UNL     1       1.534  14.007  19.616  0.00  0.00    +0.000 N 
ATOM      9  C   UNL     1       0.810  15.121  20.027  0.00  0.00    +0.000 A 
ATOM     10  C   UNL     1       1.265  16.311  20.593  0.00  0.00    +0.000 A 
ATOM     11  C   UNL     1       1.448  17.240  19.551  0.00  0.00    +0.000 A 
ATOM     12  C   UNL     1       0.596  17.225  18.447  0.00  0.00    +0.000 A 
ATOM     13  C   UNL     1      -0.374  16.213  18.288  0.00  0.00    +0.000 A 
ATOM     14  C   UNL     1      -0.267  15.092  19.138  0.00  0.00    +0.000 A 
ATOM     15  C   UNL     1      -0.590  13.707  19.075  0.00  0.00    +0.000 A 
ATOM     16  C   UNL     1      -1.539  12.995  19.912  0.00  0.00    +0.000 A 
ATOM     17  C   UNL     1      -1.079  12.031  20.757  0.00  0.00    +0.000 A 
ATOM     18  N   UNL     1       0.032  11.260  20.400  0.00  0.00    +0.000 N 
ATOM     19  C   UNL     1       0.437  10.123  21.088  0.00  0.00    +0.000 A 
ATOM     20  O   UNL     1       0.136   9.841  22.243  0.00  0.00    +0.000 OA
ATOM     21  C   UNL     1       1.264   9.180  20.282  0.00  0.00    +0.000 A 
ATOM     22  C   UNL     1       1.568   7.881  20.717  0.00  0.00    +0.000 A 
ATOM     23  H   UNL     1       2.464  13.801  19.950  0.00  0.00    +0.000 HD
ENDROOT
BRANCH   1  26
ATOM     24  C   UNL     1       1.779   4.635  20.508  0.00  0.00    +0.000 C 
ATOM     25  O   UNL     1       0.557   4.600  20.374  0.00  0.00    +0.000 OA
ATOM     26  N   UNL     1       2.609   5.723  20.291  0.00  0.00    +0.000 N 
ATOM     27  H   UNL     1       3.608   5.555  20.253  0.00  0.00    +0.000 HD
BRANCH  24  28
ATOM     28  C   UNL     1       2.461   3.420  21.086  0.00  0.00    +0.000 C 
BRANCH  28  29
ATOM     29  C   UNL     1       2.936   2.499  19.966  0.00  0.00    +0.000 C 
BRANCH  29  30
ATOM     30  C   UNL     1       4.437   2.616  19.677  0.00  0.00    +0.000 C 
BRANCH  30  35
ATOM     31  C   UNL     1       6.470   6.502  17.439  0.00  0.00    +0.000 C 
ATOM     32  N   UNL     1       5.599   5.359  17.685  0.00  0.00    +0.000 N 
ATOM     33  C   UNL     1       4.626   4.884  16.832  0.00  0.00    +0.000 A 
ATOM     34  C   UNL     1       4.064   3.793  17.459  0.00  0.00    +0.000 A 
ATOM     35  N   UNL     1       4.681   3.671  18.659  0.00  0.00    +0.000 N 
ATOM     36  C   UNL     1       5.633   4.621  18.797  0.00  0.00    +0.000 A 
ENDBRANCH  30  35
ENDBRANCH  29  30
ENDBRANCH  28  29
ENDBRANCH  24  28
ENDBRANCH   1  26
TORSDOF 5
ENDMDL
MODEL 2
REMARK VINA RESULT:      -8.3      2.994      9.650
REMARK  Name = 
REMARK  6 active torsions:
REMARK  status: ('A' for Active; 'I' for Inactive)
REMARK    1  A    between atoms: C_1  and  N_2
REMARK    2  A    between atoms: N_5  and  C_6
REMARK    3  A    between atoms: C_6  and  C_7
REMARK    4  A    between atoms: C_7  and  C_8
REMARK    5  A    between atoms: C_8  and  C_9
REMARK    6  A    between atoms: N_11  and  C_12
REMARK                            x       y       z     vdW  Elec       q    Type
REMARK                         _______ _______ _______ _____ _____    ______ ____
ROOT
ATOM      1  C   UNL     1       1.507   8.190  20.009  0.00  0.00    +0.000 A 
ATOM      2  C   UNL     1       1.836   9.179  19.077  0.00  0.00    +0.000 A 
ATOM      3  C   UNL     1       2.661   8.896  17.994  0.00  0.00    +0.000 A 
ATOM      4  C   UNL     1       3.223   7.637  17.868  0.00  0.00    +0.000 A 
ATOM      5  N   UNL     1       3.895   7.322  16.687  0.00  0.00    +0.000 NA
ATOM      6  C   UNL     1       4.725   6.346  16.773  0.00  0.00    +0.000 A 
ATOM      7  C   UNL     1       5.463   5.880  15.645  0.00  0.00    +0.000 A 
ATOM      8  N   UNL     1       4.929   4.984  14.739  0.00  0.00    +0.000 N 
ATOM      9  C   UNL     1       5.921   4.078  14.378  0.00  0.00    +0.000 A 
ATOM     10  C   UNL     1       5.862   3.015  13.478  0.00  0.00    +0.000 A 
ATOM     11  C   UNL     1       6.315   3.485  12.230  0.00  0.00    +0.000 A 
ATOM     12  C   UNL     1       7.322   4.448  12.172  0.00  0.00    +0.000 A 
ATOM     13  C   UNL     1       7.813   5.062  13.344  0.00  0.00    +0.000 A 
ATOM     14  C   UNL     1       7.071   4.856  14.526  0.00  0.00    +0.000 A 
ATOM     15  C   UNL     1       6.817   5.573  15.730  0.00  0.00    +0.000 A 
ATOM     16  C   UNL     1       7.178   5.169  17.077  0.00  0.00    +0.000 A 
ATOM     17  C   UNL     1       6.187   4.898  17.971  0.00  0.00    +0.000 A 
ATOM     18  N   UNL     1       4.976   5.597  17.907  0.00  0.00    +0.000 N 
ATOM     19  C   UNL     1       4.002   5.545  18.896  0.00  0.00    +0.000 A 
ATOM     20  O   UNL     1       3.887   4.664  19.741  0.00  0.00    +0.000 OA
ATOM     21  C   UNL     1       3.080   6.716  18.910  0.00  0.00    +0.000 A 
ATOM     22  C   UNL     1       2.189   6.964  19.964  0.00  0.00    +0.000 A 
ATOM     23  H   UNL     1       3.944   4.803  14.610  0.00  0.00    +0.000 HD
ENDROOT
BRANCH   1  26
ATOM     24  C   UNL     1       0.693   9.069  22.179  0.00  0.00    +0.000 C 
ATOM     25  O   UNL     1       1.744   9.556  22.590  0.00  0.00    +0.000 OA
ATOM     26  N   UNL     1       0.501   8.389  20.987  0.00  0.00    +0.000 N 
ATOM     27  H   UNL     1      -0.452   8.215  20.690  0.00  0.00    +0.000 HD
BRANCH  24  28
ATOM     28  C   UNL     1      -0.502   9.088  23.099  0.00  0.00    +0.000 C 
BRANCH  28  29
ATOM     29  C   UNL     1      -1.098  10.491  23.159  0.00  0.00    +0.000 C 
BRANCH  29  30
ATOM     30  C   UNL     1      -0.448  11.472  22.177  0.00  0.00    +0.000 C 
BRANCH  30  35
ATOM     31  C   UNL     1      -2.531  11.498  17.715  0.00  0.00    +0.000 C 
ATOM     32  N   UNL     1      -2.306  11.782  19.128  0.00  0.00    +0.000 N 
ATOM     33  C   UNL     1      -3.112  12.551  19.938  0.00  0.00    +0.000 A 
ATOM     34  C   UNL     1      -2.530  12.536  21.188  0.00  0.00    +0.000 A 
ATOM     35  N   UNL     1      -1.397  11.801  21.081  0.00  0.00    +0.000 N 
ATOM     36  C   UNL     1      -1.261  11.324  19.823  0.00  0.00    +0.000 A 
ENDBRANCH  30  35
ENDBRANCH  29  30
ENDBRANCH  28  29
ENDBRANCH  24  28
ENDBRANCH   1  26
TORSDOF 5
ENDMDL
MODEL 3
REMARK VINA RESULT:      -8.2      2.152      2.657
REMARK  Name = 
REMARK  6 active torsions:
REMARK  status: ('A' for Active; 'I' for Inactive)
REMARK    1  A    between atoms: C_1  and  N_2
REMARK    2  A    between atoms: N_5  and  C_6
REMARK    3  A    between atoms: C_6  and  C_7
REMARK    4  A    between atoms: C_7  and  C_8
REMARK    5  A    between atoms: C_8  and  C_9
REMARK    6  A    between atoms: N_11  and  C_12
REMARK                            x       y       z     vdW  Elec       q    Type
REMARK                         _______ _______ _______ _____ _____    ______ ____
ROOT
ATOM      1  C   UNL     1       1.838   7.846  20.162  0.00  0.00    +0.000 A 
ATOM      2  C   UNL     1       1.584   8.595  19.008  0.00  0.00    +0.000 A 
ATOM      3  C   UNL     1       1.043   9.873  19.089  0.00  0.00    +0.000 A 
ATOM      4  C   UNL     1       0.683  10.391  20.321  0.00  0.00    +0.000 A 
ATOM      5  N   UNL     1       0.314  11.734  20.398  0.00  0.00    +0.000 NA
ATOM      6  C   UNL     1      -0.385  12.052  21.427  0.00  0.00    +0.000 A 
ATOM      7  C   UNL     1      -0.810  13.392  21.668  0.00  0.00    +0.000 A 
ATOM      8  N   UNL     1       0.009  14.322  22.279  0.00  0.00    +0.000 N 
ATOM      9  C   UNL     1      -0.764  15.086  23.147  0.00  0.00    +0.000 A 
ATOM     10  C   UNL     1      -0.387  16.155  23.958  0.00  0.00    +0.000 A 
ATOM     11  C   UNL     1      -0.630  17.343  23.242  0.00  0.00    +0.000 A 
ATOM     12  C   UNL     1      -1.718  17.423  22.373  0.00  0.00    +0.000 A 
ATOM     13  C   UNL     1      -2.514  16.291  22.094  0.00  0.00    +0.000 A 
ATOM     14  C   UNL     1      -2.010  15.042  22.517  0.00  0.00    +0.000 A 
ATOM     15  C   UNL     1      -2.102  13.688  22.089  0.00  0.00    +0.000 A 
ATOM     16  C   UNL     1      -2.677  12.578  22.827  0.00  0.00    +0.000 A 
ATOM     17  C   UNL     1      -1.866  11.560  23.226  0.00  0.00    +0.000 A 
ATOM     18  N   UNL     1      -0.767  11.193  22.441  0.00  0.00    +0.000 N 
ATOM     19  C   UNL     1      -0.018  10.043  22.650  0.00  0.00    +0.000 A 
ATOM     20  O   UNL     1       0.033   9.402  23.696  0.00  0.00    +0.000 OA
ATOM     21  C   UNL     1       0.725   9.567  21.449  0.00  0.00    +0.000 A 
ATOM     22  C   UNL     1       1.342   8.308  21.390  0.00  0.00    +0.000 A 
ATOM     23  H   UNL     1       1.014  14.258  22.348  0.00  0.00    +0.000 HD
ENDROOT
BRANCH   1  26
ATOM     24  C   UNL     1       2.045   5.379  20.280  0.00  0.00    +0.000 C 
ATOM     25  O   UNL     1       0.870   5.103  20.514  0.00  0.00    +0.000 OA
ATOM     26  N   UNL     1       2.588   6.645  20.124  0.00  0.00    +0.000 N 
ATOM     27  H   UNL     1       3.525   6.714  19.744  0.00  0.00    +0.000 HD
BRANCH  24  28
ATOM     28  C   UNL     1       3.049   4.253  20.279  0.00  0.00    +0.000 C 
BRANCH  28  29
ATOM     29  C   UNL     1       3.744   4.167  18.924  0.00  0.00    +0.000 C 
BRANCH  29  30
ATOM     30  C   UNL     1       5.274   4.142  19.025  0.00  0.00    +0.000 C 
BRANCH  30  35
ATOM     31  C   UNL     1       5.678   4.124  14.118  0.00  0.00    +0.000 C 
ATOM     32  N   UNL     1       6.027   4.287  15.524  0.00  0.00    +0.000 N 
ATOM     33  C   UNL     1       7.237   4.730  16.012  0.00  0.00    +0.000 A 
ATOM     34  C   UNL     1       7.118   4.740  17.386  0.00  0.00    +0.000 A 
ATOM     35  N   UNL     1       5.877   4.279  17.673  0.00  0.00    +0.000 N 
ATOM     36  C   UNL     1       5.198   4.012  16.535  0.00  0.00    +0.000 A 
ENDBRANCH  30  35
ENDBRANCH  29  30
ENDBRANCH  28  29
ENDBRANCH  24  28
ENDBRANCH   1  26
TORSDOF 5
ENDMDL
MODEL 4
REMARK VINA RESULT:      -8.1      2.439      3.732
REMARK  Name = 
REMARK  6 active torsions:
REMARK  status: ('A' for Active; 'I' for Inactive)
REMARK    1  A    between atoms: C_1  and  N_2
REMARK    2  A    between atoms: N_5  and  C_6
REMARK    3  A    between atoms: C_6  and  C_7
REMARK    4  A    between atoms: C_7  and  C_8
REMARK    5  A    between atoms: C_8  and  C_9
REMARK    6  A    between atoms: N_11  and  C_12
REMARK                            x       y       z     vdW  Elec       q    Type
REMARK                         _______ _______ _______ _____ _____    ______ ____
ROOT
ATOM      1  C   UNL     1       2.940   6.587  18.707  0.00  0.00    +0.000 A 
ATOM      2  C   UNL     1       2.598   6.288  20.030  0.00  0.00    +0.000 A 
ATOM      3  C   UNL     1       1.780   7.138  20.767  0.00  0.00    +0.000 A 
ATOM      4  C   UNL     1       1.353   8.332  20.213  0.00  0.00    +0.000 A 
ATOM      5  N   UNL     1       0.393   9.078  20.897  0.00  0.00    +0.000 NA
ATOM      6  C   UNL     1       0.337  10.321  20.580  0.00  0.00    +0.000 A 
ATOM      7  C   UNL     1      -0.615  11.208  21.164  0.00  0.00    +0.000 A 
ATOM      8  N   UNL     1      -1.908  11.313  20.689  0.00  0.00    +0.000 N 
ATOM      9  C   UNL     1      -2.281  12.652  20.719  0.00  0.00    +0.000 A 
ATOM     10  C   UNL     1      -3.495  13.240  20.363  0.00  0.00    +0.000 A 
ATOM     11  C   UNL     1      -4.276  13.350  21.529  0.00  0.00    +0.000 A 
ATOM     12  C   UNL     1      -3.665  13.603  22.756  0.00  0.00    +0.000 A 
ATOM     13  C   UNL     1      -2.259  13.625  22.881  0.00  0.00    +0.000 A 
ATOM     14  C   UNL     1      -1.518  13.127  21.788  0.00  0.00    +0.000 A 
ATOM     15  C   UNL     1      -0.263  12.484  21.592  0.00  0.00    +0.000 A 
ATOM     16  C   UNL     1       0.869  12.994  20.838  0.00  0.00    +0.000 A 
ATOM     17  C   UNL     1       1.259  12.338  19.712  0.00  0.00    +0.000 A 
ATOM     18  N   UNL     1       1.118  10.948  19.627  0.00  0.00    +0.000 N 
ATOM     19  C   UNL     1       1.680  10.174  18.620  0.00  0.00    +0.000 A 
ATOM     20  O   UNL     1       2.050  10.584  17.525  0.00  0.00    +0.000 OA
ATOM     21  C   UNL     1       1.871   8.741  18.982  0.00  0.00    +0.000 A 
ATOM     22  C   UNL     1       2.631   7.858  18.199  0.00  0.00    +0.000 A 
ATOM     23  H   UNL     1      -2.378  10.623  20.122  0.00  0.00    +0.000 HD
ENDROOT
BRANCH   1  26
ATOM     24  C   UNL     1       3.046   4.408  17.531  0.00  0.00    +0.000 C 
ATOM     25  O   UNL     1       1.985   3.930  17.927  0.00  0.00    +0.000 OA
ATOM     26  N   UNL     1       3.580   5.641  17.868  0.00  0.00    +0.000 N 
ATOM     27  H   UNL     1       4.360   5.985  17.320  0.00  0.00    +0.000 HD
BRANCH  24  28
ATOM     28  C   UNL     1       3.943   3.536  16.688  0.00  0.00    +0.000 C 
BRANCH  28  29
ATOM     29  C   UNL     1       4.897   4.399  15.868  0.00  0.00    +0.000 C 
BRANCH  29  30
ATOM     30  C   UNL     1       6.376   4.089  16.130  0.00  0.00    +0.000 C 
BRANCH  30  35
ATOM     31  C   UNL     1       7.885   8.476  17.782  0.00  0.00    +0.000 C 
ATOM     32  N   UNL     1       7.593   7.048  17.746  0.00  0.00    +0.000 N 
ATOM     33  C   UNL     1       7.807   6.152  18.771  0.00  0.00    +0.000 A 
ATOM     34  C   UNL     1       7.378   4.926  18.308  0.00  0.00    +0.000 A 
ATOM     35  N   UNL     1       6.960   5.116  17.033  0.00  0.00    +0.000 N 
ATOM     36  C   UNL     1       7.077   6.418  16.688  0.00  0.00    +0.000 A 
ENDBRANCH  30  35
ENDBRANCH  29  30
ENDBRANCH  28  29
ENDBRANCH  24  28
ENDBRANCH   1  26
TORSDOF 5
ENDMDL
MODEL 5
REMARK VINA RESULT:      -8.1      2.528      9.752
REMARK  Name = 
REMARK  6 active torsions:
REMARK  status: ('A' for Active; 'I' for Inactive)
REMARK    1  A    between atoms: C_1  and  N_2
REMARK    2  A    between atoms: N_5  and  C_6
REMARK    3  A    between atoms: C_6  and  C_7
REMARK    4  A    between atoms: C_7  and  C_8
REMARK    5  A    between atoms: C_8  and  C_9
REMARK    6  A    between atoms: N_11  and  C_12
REMARK                            x       y       z     vdW  Elec       q    Type
REMARK                         _______ _______ _______ _____ _____    ______ ____
ROOT
ATOM      1  C   UNL     1       1.484   8.302  19.925  0.00  0.00    +0.000 A 
ATOM      2  C   UNL     1       1.813   9.279  18.980  0.00  0.00    +0.000 A 
ATOM      3  C   UNL     1       2.643   8.983  17.904  0.00  0.00    +0.000 A 
ATOM      4  C   UNL     1       3.212   7.725  17.800  0.00  0.00    +0.000 A 
ATOM      5  N   UNL     1       3.890   7.395  16.627  0.00  0.00    +0.000 NA
ATOM      6  C   UNL     1       4.724   6.425  16.730  0.00  0.00    +0.000 A 
ATOM      7  C   UNL     1       5.469   5.945  15.613  0.00  0.00    +0.000 A 
ATOM      8  N   UNL     1       4.943   5.033  14.718  0.00  0.00    +0.000 N 
ATOM      9  C   UNL     1       5.941   4.126  14.376  0.00  0.00    +0.000 A 
ATOM     10  C   UNL     1       5.891   3.050  13.491  0.00  0.00    +0.000 A 
ATOM     11  C   UNL     1       6.348   3.503  12.238  0.00  0.00    +0.000 A 
ATOM     12  C   UNL     1       7.350   4.470  12.170  0.00  0.00    +0.000 A 
ATOM     13  C   UNL     1       7.834   5.103  13.335  0.00  0.00    +0.000 A 
ATOM     14  C   UNL     1       7.087   4.912  14.517  0.00  0.00    +0.000 A 
ATOM     15  C   UNL     1       6.824   5.645  15.708  0.00  0.00    +0.000 A 
ATOM     16  C   UNL     1       7.181   5.263  17.063  0.00  0.00    +0.000 A 
ATOM     17  C   UNL     1       6.188   5.001  17.956  0.00  0.00    +0.000 A 
ATOM     18  N   UNL     1       4.974   5.693  17.877  0.00  0.00    +0.000 N 
ATOM     19  C   UNL     1       3.996   5.652  18.862  0.00  0.00    +0.000 A 
ATOM     20  O   UNL     1       3.880   4.783  19.720  0.00  0.00    +0.000 OA
ATOM     21  C   UNL     1       3.069   6.819  18.854  0.00  0.00    +0.000 A 
ATOM     22  C   UNL     1       2.171   7.079  19.901  0.00  0.00    +0.000 A 
ATOM     23  H   UNL     1       3.960   4.846  14.587  0.00  0.00    +0.000 HD
ENDROOT
BRANCH   1  26
ATOM     24  C   UNL     1       0.670   9.163  22.102  0.00  0.00    +0.000 C 
ATOM     25  O   UNL     1       1.729   9.613  22.533  0.00  0.00    +0.000 OA
ATOM     26  N   UNL     1       0.473   8.511  20.895  0.00  0.00    +0.000 N 
ATOM     27  H   UNL     1      -0.481   8.369  20.584  0.00  0.00    +0.000 HD
BRANCH  24  28
ATOM     28  C   UNL     1      -0.535   9.199  23.009  0.00  0.00    +0.000 C 
BRANCH  28  29
ATOM     29  C   UNL     1      -1.040  10.631  23.159  0.00  0.00    +0.000 C 
BRANCH  29  30
ATOM     30  C   UNL     1      -1.289  11.332  21.818  0.00  0.00    +0.000 C 
BRANCH  30  35
ATOM     31  C   UNL     1       0.448  15.858  22.679  0.00  0.00    +0.000 C 
ATOM     32  N   UNL     1       0.323  14.518  22.116  0.00  0.00    +0.000 N 
ATOM     33  C   UNL     1       1.168  13.947  21.190  0.00  0.00    +0.000 A 
ATOM     34  C   UNL     1       0.683  12.678  20.956  0.00  0.00    +0.000 A 
ATOM     35  N   UNL     1      -0.435  12.544  21.709  0.00  0.00    +0.000 N 
ATOM     36  C   UNL     1      -0.653  13.664  22.433  0.00  0.00    +0.000 A 
ENDBRANCH  30  35
ENDBRANCH  29  30
ENDBRANCH  28  29
ENDBRANCH  24  28
ENDBRANCH   1  26
TORSDOF 5
ENDMDL
MODEL 6
REMARK VINA RESULT:      -8.1      3.377     10.259
REMARK  Name = 
REMARK  6 active torsions:
REMARK  status: ('A' for Active; 'I' for Inactive)
REMARK    1  A    between atoms: C_1  and  N_2
REMARK    2  A    between atoms: N_5  and  C_6
REMARK    3  A    between atoms: C_6  and  C_7
REMARK    4  A    between atoms: C_7  and  C_8
REMARK    5  A    between atoms: C_8  and  C_9
REMARK    6  A    between atoms: N_11  and  C_12
REMARK                            x       y       z     vdW  Elec       q    Type
REMARK                         _______ _______ _______ _____ _____    ______ ____
ROOT
ATOM      1  C   UNL     1       1.436   8.386  19.878  0.00  0.00    +0.000 A 
ATOM      2  C   UNL     1       1.750   9.346  18.910  0.00  0.00    +0.000 A 
ATOM      3  C   UNL     1       2.580   9.036  17.839  0.00  0.00    +0.000 A 
ATOM      4  C   UNL     1       3.164   7.783  17.761  0.00  0.00    +0.000 A 
ATOM      5  N   UNL     1       3.843   7.436  16.594  0.00  0.00    +0.000 NA
ATOM      6  C   UNL     1       4.690   6.478  16.716  0.00  0.00    +0.000 A 
ATOM      7  C   UNL     1       5.438   5.983  15.607  0.00  0.00    +0.000 A 
ATOM      8  N   UNL     1       4.921   5.045  14.735  0.00  0.00    +0.000 N 
ATOM      9  C   UNL     1       5.928   4.143  14.409  0.00  0.00    +0.000 A 
ATOM     10  C   UNL     1       5.889   3.047  13.549  0.00  0.00    +0.000 A 
ATOM     11  C   UNL     1       6.337   3.478  12.285  0.00  0.00    +0.000 A 
ATOM     12  C   UNL     1       7.327   4.455  12.192  0.00  0.00    +0.000 A 
ATOM     13  C   UNL     1       7.806   5.120  13.341  0.00  0.00    +0.000 A 
ATOM     14  C   UNL     1       7.065   4.946  14.529  0.00  0.00    +0.000 A 
ATOM     15  C   UNL     1       6.797   5.703  15.705  0.00  0.00    +0.000 A 
ATOM     16  C   UNL     1       7.162   5.356  17.067  0.00  0.00    +0.000 A 
ATOM     17  C   UNL     1       6.175   5.101  17.969  0.00  0.00    +0.000 A 
ATOM     18  N   UNL     1       4.952   5.776  17.878  0.00  0.00    +0.000 N 
ATOM     19  C   UNL     1       3.977   5.745  18.867  0.00  0.00    +0.000 A 
ATOM     20  O   UNL     1       3.876   4.894  19.744  0.00  0.00    +0.000 OA
ATOM     21  C   UNL     1       3.036   6.900  18.836  0.00  0.00    +0.000 A 
ATOM     22  C   UNL     1       2.138   7.172  19.880  0.00  0.00    +0.000 A 
ATOM     23  H   UNL     1       3.940   4.842  14.611  0.00  0.00    +0.000 HD
ENDROOT
BRANCH   1  26
ATOM     24  C   UNL     1       0.611   9.306  22.027  0.00  0.00    +0.000 C 
ATOM     25  O   UNL     1       1.661   9.799  22.435  0.00  0.00    +0.000 OA
ATOM     26  N   UNL     1       0.425   8.604  20.847  0.00  0.00    +0.000 N 
ATOM     27  H   UNL     1      -0.527   8.425  20.548  0.00  0.00    +0.000 HD
BRANCH  24  28
ATOM     28  C   UNL     1      -0.589   9.343  22.941  0.00  0.00    +0.000 C 
BRANCH  28  29
ATOM     29  C   UNL     1      -0.973  10.787  23.247  0.00  0.00    +0.000 C 
BRANCH  29  30
ATOM     30  C   UNL     1      -1.613  11.513  22.057  0.00  0.00    +0.000 C 
BRANCH  30  35
ATOM     31  C   UNL     1      -5.607  14.387  21.866  0.00  0.00    +0.000 C 
ATOM     32  N   UNL     1      -4.569  13.511  22.397  0.00  0.00    +0.000 N 
ATOM     33  C   UNL     1      -4.470  13.069  23.698  0.00  0.00    +0.000 A 
ATOM     34  C   UNL     1      -3.355  12.260  23.747  0.00  0.00    +0.000 A 
ATOM     35  N   UNL     1      -2.812  12.269  22.505  0.00  0.00    +0.000 N 
ATOM     36  C   UNL     1      -3.560  13.023  21.670  0.00  0.00    +0.000 A 
ENDBRANCH  30  35
ENDBRANCH  29  30
ENDBRANCH  28  29
ENDBRANCH  24  28
ENDBRANCH   1  26
TORSDOF 5
ENDMDL
MODEL 7
REMARK VINA RESULT:      -8.0      2.418      3.961
REMARK  Name = 
REMARK  6 active torsions:
REMARK  status: ('A' for Active; 'I' for Inactive)
REMARK    1  A    between atoms: C_1  and  N_2
REMARK    2  A    between atoms: N_5  and  C_6
REMARK    3  A    between atoms: C_6  and  C_7
REMARK    4  A    between atoms: C_7  and  C_8
REMARK    5  A    between atoms: C_8  and  C_9
REMARK    6  A    between atoms: N_11  and  C_12
REMARK                            x       y       z     vdW  Elec       q    Type
REMARK                         _______ _______ _______ _____ _____    ______ ____
ROOT
ATOM      1  C   UNL     1       2.667   6.685  18.665  0.00  0.00    +0.000 A 
ATOM      2  C   UNL     1       2.354   6.391  19.997  0.00  0.00    +0.000 A 
ATOM      3  C   UNL     1       1.622   7.282  20.774  0.00  0.00    +0.000 A 
ATOM      4  C   UNL     1       1.255   8.509  20.250  0.00  0.00    +0.000 A 
ATOM      5  N   UNL     1       0.372   9.307  20.978  0.00  0.00    +0.000 NA
ATOM      6  C   UNL     1       0.386  10.555  20.677  0.00  0.00    +0.000 A 
ATOM      7  C   UNL     1      -0.482  11.495  21.306  0.00  0.00    +0.000 A 
ATOM      8  N   UNL     1      -1.782  11.691  20.881  0.00  0.00    +0.000 N 
ATOM      9  C   UNL     1      -2.065  13.052  20.940  0.00  0.00    +0.000 A 
ATOM     10  C   UNL     1      -3.249  13.722  20.636  0.00  0.00    +0.000 A 
ATOM     11  C   UNL     1      -3.978  13.867  21.832  0.00  0.00    +0.000 A 
ATOM     12  C   UNL     1      -3.307  14.063  23.038  0.00  0.00    +0.000 A 
ATOM     13  C   UNL     1      -1.899  13.991  23.110  0.00  0.00    +0.000 A 
ATOM     14  C   UNL     1      -1.233  13.460  21.985  0.00  0.00    +0.000 A 
ATOM     15  C   UNL     1      -0.032  12.739  21.735  0.00  0.00    +0.000 A 
ATOM     16  C   UNL     1       1.103  13.184  20.945  0.00  0.00    +0.000 A 
ATOM     17  C   UNL     1       1.408  12.519  19.797  0.00  0.00    +0.000 A 
ATOM     18  N   UNL     1       1.172  11.142  19.702  0.00  0.00    +0.000 N 
ATOM     19  C   UNL     1       1.644  10.347  18.666  0.00  0.00    +0.000 A 
ATOM     20  O   UNL     1       2.000  10.747  17.563  0.00  0.00    +0.000 OA
ATOM     21  C   UNL     1       1.754   8.900  19.005  0.00  0.00    +0.000 A 
ATOM     22  C   UNL     1       2.424   7.980  18.184  0.00  0.00    +0.000 A 
ATOM     23  H   UNL     1      -2.317  11.041  20.324  0.00  0.00    +0.000 HD
ENDROOT
BRANCH   1  26
ATOM     24  C   UNL     1       4.554   5.375  17.736  0.00  0.00    +0.000 C 
ATOM     25  O   UNL     1       5.470   5.883  18.381  0.00  0.00    +0.000 OA
ATOM     26  N   UNL     1       3.212   5.710  17.793  0.00  0.00    +0.000 N 
ATOM     27  H   UNL     1       2.548   5.082  17.354  0.00  0.00    +0.000 HD
BRANCH  24  28
ATOM     28  C   UNL     1       4.913   4.365  16.675  0.00  0.00    +0.000 C 
BRANCH  28  29
ATOM     29  C   UNL     1       3.816   3.312  16.556  0.00  0.00    +0.000 C 
BRANCH  29  30
ATOM     30  C   UNL     1       3.889   2.231  17.641  0.00  0.00    +0.000 C 
BRANCH  30  35
ATOM     31  C   UNL     1       1.712   2.931  22.001  0.00  0.00    +0.000 C 
ATOM     32  N   UNL     1       1.886   2.772  20.562  0.00  0.00    +0.000 N 
ATOM     33  C   UNL     1       0.887   2.833  19.615  0.00  0.00    +0.000 A 
ATOM     34  C   UNL     1       1.500   2.643  18.395  0.00  0.00    +0.000 A 
ATOM     35  N   UNL     1       2.817   2.444  18.648  0.00  0.00    +0.000 N 
ATOM     36  C   UNL     1       3.061   2.536  19.974  0.00  0.00    +0.000 A 
ENDBRANCH  30  35
ENDBRANCH  29  30
ENDBRANCH  28  29
ENDBRANCH  24  28
ENDBRANCH   1  26
TORSDOF 5
ENDMDL
MODEL 8
REMARK VINA RESULT:      -7.9      0.778      1.024
REMARK  Name = 
REMARK  6 active torsions:
REMARK  status: ('A' for Active; 'I' for Inactive)
REMARK    1  A    between atoms: C_1  and  N_2
REMARK    2  A    between atoms: N_5  and  C_6
REMARK    3  A    between atoms: C_6  and  C_7
REMARK    4  A    between atoms: C_7  and  C_8
REMARK    5  A    between atoms: C_8  and  C_9
REMARK    6  A    between atoms: N_11  and  C_12
REMARK                            x       y       z     vdW  Elec       q    Type
REMARK                         _______ _______ _______ _____ _____    ______ ____
ROOT
ATOM      1  C   UNL     1       1.833   7.566  20.125  0.00  0.00    +0.000 A 
ATOM      2  C   UNL     1       1.918   7.866  18.761  0.00  0.00    +0.000 A 
ATOM      3  C   UNL     1       1.726   9.164  18.300  0.00  0.00    +0.000 A 
ATOM      4  C   UNL     1       1.376  10.165  19.191  0.00  0.00    +0.000 A 
ATOM      5  N   UNL     1       1.366  11.484  18.739  0.00  0.00    +0.000 NA
ATOM      6  C   UNL     1       0.663  12.298  19.440  0.00  0.00    +0.000 A 
ATOM      7  C   UNL     1       0.580  13.688  19.129  0.00  0.00    +0.000 A 
ATOM      8  N   UNL     1       1.538  14.591  19.547  0.00  0.00    +0.000 N 
ATOM      9  C   UNL     1       0.899  15.763  19.936  0.00  0.00    +0.000 A 
ATOM     10  C   UNL     1       1.448  16.957  20.402  0.00  0.00    +0.000 A 
ATOM     11  C   UNL     1       1.608  17.815  19.297  0.00  0.00    +0.000 A 
ATOM     12  C   UNL     1       0.687  17.785  18.252  0.00  0.00    +0.000 A 
ATOM     13  C   UNL     1      -0.341  16.818  18.213  0.00  0.00    +0.000 A 
ATOM     14  C   UNL     1      -0.234  15.742  19.120  0.00  0.00    +0.000 A 
ATOM     15  C   UNL     1      -0.629  14.375  19.159  0.00  0.00    +0.000 A 
ATOM     16  C   UNL     1      -1.556  13.762  20.093  0.00  0.00    +0.000 A 
ATOM     17  C   UNL     1      -1.091  12.825  20.963  0.00  0.00    +0.000 A 
ATOM     18  N   UNL     1      -0.044  11.976  20.584  0.00  0.00    +0.000 N 
ATOM     19  C   UNL     1       0.347  10.860  21.311  0.00  0.00    +0.000 A 
ATOM     20  O   UNL     1       0.108  10.659  22.497  0.00  0.00    +0.000 OA
ATOM     21  C   UNL     1       1.071   9.830  20.512  0.00  0.00    +0.000 A 
ATOM     22  C   UNL     1       1.339   8.543  21.003  0.00  0.00    +0.000 A 
ATOM     23  H   UNL     1       2.476  14.354  19.834  0.00  0.00    +0.000 HD
ENDROOT
BRANCH   1  26
ATOM     24  C   UNL     1       2.081   5.105  19.979  0.00  0.00    +0.000 C 
ATOM     25  O   UNL     1       1.538   4.926  18.891  0.00  0.00    +0.000 OA
ATOM     26  N   UNL     1       2.241   6.311  20.641  0.00  0.00    +0.000 N 
ATOM     27  H   UNL     1       2.875   6.337  21.432  0.00  0.00    +0.000 HD
BRANCH  24  28
ATOM     28  C   UNL     1       2.520   3.890  20.758  0.00  0.00    +0.000 C 
BRANCH  28  29
ATOM     29  C   UNL     1       3.001   2.799  19.806  0.00  0.00    +0.000 C 
BRANCH  29  30
ATOM     30  C   UNL     1       4.527   2.734  19.675  0.00  0.00    +0.000 C 
BRANCH  30  35
ATOM     31  C   UNL     1       5.292   5.533  15.697  0.00  0.00    +0.000 C 
ATOM     32  N   UNL     1       5.319   5.077  17.082  0.00  0.00    +0.000 N 
ATOM     33  C   UNL     1       5.895   5.742  18.142  0.00  0.00    +0.000 A 
ATOM     34  C   UNL     1       5.673   4.960  19.255  0.00  0.00    +0.000 A 
ATOM     35  N   UNL     1       5.015   3.855  18.829  0.00  0.00    +0.000 N 
ATOM     36  C   UNL     1       4.783   3.928  17.500  0.00  0.00    +0.000 A 
ENDBRANCH  30  35
ENDBRANCH  29  30
ENDBRANCH  28  29
ENDBRANCH  24  28
ENDBRANCH   1  26
TORSDOF 5
ENDMDL
MODEL 9
REMARK VINA RESULT:      -7.9      2.454      4.166
REMARK  Name = 
REMARK  6 active torsions:
REMARK  status: ('A' for Active; 'I' for Inactive)
REMARK    1  A    between atoms: C_1  and  N_2
REMARK    2  A    between atoms: N_5  and  C_6
REMARK    3  A    between atoms: C_6  and  C_7
REMARK    4  A    between atoms: C_7  and  C_8
REMARK    5  A    between atoms: C_8  and  C_9
REMARK    6  A    between atoms: N_11  and  C_12
REMARK                            x       y       z     vdW  Elec       q    Type
REMARK                         _______ _______ _______ _____ _____    ______ ____
ROOT
ATOM      1  C   UNL     1       2.156   7.734  19.033  0.00  0.00    +0.000 A 
ATOM      2  C   UNL     1       1.863   7.287  20.326  0.00  0.00    +0.000 A 
ATOM      3  C   UNL     1       1.087   8.053  21.189  0.00  0.00    +0.000 A 
ATOM      4  C   UNL     1       0.655   9.308  20.796  0.00  0.00    +0.000 A 
ATOM      5  N   UNL     1      -0.266   9.978  21.600  0.00  0.00    +0.000 NA
ATOM      6  C   UNL     1      -0.317  11.250  21.432  0.00  0.00    +0.000 A 
ATOM      7  C   UNL     1      -1.232  12.072  22.153  0.00  0.00    +0.000 A 
ATOM      8  N   UNL     1      -2.541  12.244  21.747  0.00  0.00    +0.000 N 
ATOM      9  C   UNL     1      -2.894  13.575  21.947  0.00  0.00    +0.000 A 
ATOM     10  C   UNL     1      -4.112  14.211  21.712  0.00  0.00    +0.000 A 
ATOM     11  C   UNL     1      -4.844  14.192  22.914  0.00  0.00    +0.000 A 
ATOM     12  C   UNL     1      -4.181  14.295  24.136  0.00  0.00    +0.000 A 
ATOM     13  C   UNL     1      -2.771  14.289  24.204  0.00  0.00    +0.000 A 
ATOM     14  C   UNL     1      -2.081  13.914  23.031  0.00  0.00    +0.000 A 
ATOM     15  C   UNL     1      -0.845  13.287  22.711  0.00  0.00    +0.000 A 
ATOM     16  C   UNL     1       0.263  13.870  21.975  0.00  0.00    +0.000 A 
ATOM     17  C   UNL     1       0.599  13.345  20.765  0.00  0.00    +0.000 A 
ATOM     18  N   UNL     1       0.434  11.976  20.526  0.00  0.00    +0.000 N 
ATOM     19  C   UNL     1       0.945  11.319  19.414  0.00  0.00    +0.000 A 
ATOM     20  O   UNL     1       1.277  11.850  18.359  0.00  0.00    +0.000 OA
ATOM     21  C   UNL     1       1.130   9.851  19.599  0.00  0.00    +0.000 A 
ATOM     22  C   UNL     1       1.845   9.058  18.689  0.00  0.00    +0.000 A 
ATOM     23  H   UNL     1      -3.043  11.629  21.124  0.00  0.00    +0.000 HD
ENDROOT
BRANCH   1  26
ATOM     24  C   UNL     1       3.825   6.051  18.312  0.00  0.00    +0.000 C 
ATOM     25  O   UNL     1       4.452   5.945  19.364  0.00  0.00    +0.000 OA
ATOM     26  N   UNL     1       2.748   6.886  18.065  0.00  0.00    +0.000 N 
ATOM     27  H   UNL     1       2.211   6.729  17.220  0.00  0.00    +0.000 HD
BRANCH  24  28
ATOM     28  C   UNL     1       4.335   5.298  17.108  0.00  0.00    +0.000 C 
BRANCH  28  29
ATOM     29  C   UNL     1       4.669   3.859  17.489  0.00  0.00    +0.000 C 
BRANCH  29  30
ATOM     30  C   UNL     1       3.505   2.885  17.269  0.00  0.00    +0.000 C 
BRANCH  30  35
ATOM     31  C   UNL     1       1.822   2.609  21.889  0.00  0.00    +0.000 C 
ATOM     32  N   UNL     1       1.853   2.842  20.449  0.00  0.00    +0.000 N 
ATOM     33  C   UNL     1       0.806   3.300  19.681  0.00  0.00    +0.000 A 
ATOM     34  C   UNL     1       1.282   3.382  18.389  0.00  0.00    +0.000 A 
ATOM     35  N   UNL     1       2.565   2.946  18.419  0.00  0.00    +0.000 N 
ATOM     36  C   UNL     1       2.925   2.627  19.682  0.00  0.00    +0.000 A 
ENDBRANCH  30  35
ENDBRANCH  29  30
ENDBRANCH  28  29
ENDBRANCH  24  28
ENDBRANCH   1  26
TORSDOF 5
ENDMDL
