MODEL 1
REMARK VINA RESULT:      -6.8      0.000      0.000
REMARK  Name = 
REMARK  8 active torsions:
REMARK  status: ('A' for Active; 'I' for Inactive)
REMARK    1  A    between atoms: C_1  and  N_2
REMARK    2  A    between atoms: C_4  and  C_5
REMARK    3  A    between atoms: N_9  and  C_10
REMARK    4  A    between atoms: C_10  and  C_11
REMARK    5  A    between atoms: C_14  and  C_15
REMARK    6  A    between atoms: C_15  and  C_16
REMARK    7  A    between atoms: C_15  and  C_17
REMARK    8  A    between atoms: C_15  and  C_18
REMARK                            x       y       z     vdW  Elec       q    Type
REMARK                         _______ _______ _______ _____ _____    ______ ____
ROOT
ATOM      1  C   UNL     1       3.515   4.363  17.161  0.00  0.00    +0.000 C 
ATOM      2  C   UNL     1       4.867   3.707  16.914  0.00  0.00    +0.000 C 
ATOM      3  C   UNL     1       5.652   4.765  16.162  0.00  0.00    +0.000 C 
ATOM      4  C   UNL     1       5.092   6.091  16.655  0.00  0.00    +0.000 C 
ATOM      5  N   UNL     1       3.809   5.797  17.286  0.00  0.00    +0.000 NA
ENDROOT
BRANCH   1   9
ATOM      6  C   UNL     1       2.192   2.736  21.664  0.00  0.00    +0.000 C 
ATOM      7  N   UNL     1       2.131   3.024  20.251  0.00  0.00    +0.000 N 
ATOM      8  C   UNL     1       3.207   3.192  19.439  0.00  0.00    +0.000 A 
ATOM      9  C   UNL     1       2.735   3.791  18.289  0.00  0.00    +0.000 A 
ATOM     10  C   UNL     1       1.327   3.779  18.459  0.00  0.00    +0.000 A 
ATOM     11  N   UNL     1       0.960   3.308  19.657  0.00  0.00    +0.000 NA
ENDBRANCH   1   9
BRANCH   5  12
ATOM     12  C   UNL     1       3.545   6.526  18.534  0.00  0.00    +0.000 C 
BRANCH  12  13
ATOM     13  C   UNL     1       2.580   7.686  18.502  0.00  0.00    +0.000 A 
ATOM     14  N   UNL     1       2.500   8.470  17.414  0.00  0.00    +0.000 NA
ATOM     15  O   UNL     1       1.608   9.470  17.787  0.00  0.00    +0.000 OA
ATOM     16  C   UNL     1       1.242   9.209  19.077  0.00  0.00    +0.000 A 
ATOM     17  N   UNL     1       1.793   8.110  19.554  0.00  0.00    +0.000 NA
BRANCH  16  18
ATOM     18  C   UNL     1       0.313  10.192  19.737  0.00  0.00    +0.000 C 
ATOM     19  C   UNL     1       1.010  11.554  19.890  0.00  0.00    +0.000 C 
ATOM     20  C   UNL     1      -0.953  10.365  18.877  0.00  0.00    +0.000 C 
ATOM     21  C   UNL     1      -0.111   9.689  21.129  0.00  0.00    +0.000 C 
ENDBRANCH  16  18
ENDBRANCH  12  13
ENDBRANCH   5  12
TORSDOF 4
ENDMDL
MODEL 2
REMARK VINA RESULT:      -6.7      3.400      5.780
REMARK  Name = 
REMARK  8 active torsions:
REMARK  status: ('A' for Active; 'I' for Inactive)
REMARK    1  A    between atoms: C_1  and  N_2
REMARK    2  A    between atoms: C_4  and  C_5
REMARK    3  A    between atoms: N_9  and  C_10
REMARK    4  A    between atoms: C_10  and  C_11
REMARK    5  A    between atoms: C_14  and  C_15
REMARK    6  A    between atoms: C_15  and  C_16
REMARK    7  A    between atoms: C_15  and  C_17
REMARK    8  A    between atoms: C_15  and  C_18
REMARK                            x       y       z     vdW  Elec       q    Type
REMARK                         _______ _______ _______ _____ _____    ______ ____
ROOT
ATOM      1  C   UNL     1       7.254   5.535  16.410  0.00  0.00    +0.000 C 
ATOM      2  C   UNL     1       7.661   4.561  17.507  0.00  0.00    +0.000 C 
ATOM      3  C   UNL     1       7.590   5.392  18.775  0.00  0.00    +0.000 C 
ATOM      4  C   UNL     1       6.512   6.430  18.503  0.00  0.00    +0.000 C 
ATOM      5  N   UNL     1       6.314   6.461  17.056  0.00  0.00    +0.000 NA
ENDROOT
BRANCH   1   9
ATOM      6  C   UNL     1       6.968   3.663  11.819  0.00  0.00    +0.000 C 
ATOM      7  N   UNL     1       6.568   4.109  13.131  0.00  0.00    +0.000 N 
ATOM      8  C   UNL     1       7.230   5.029  13.880  0.00  0.00    +0.000 A 
ATOM      9  C   UNL     1       6.743   4.904  15.166  0.00  0.00    +0.000 A 
ATOM     10  C   UNL     1       5.668   3.989  15.029  0.00  0.00    +0.000 A 
ATOM     11  N   UNL     1       5.560   3.507  13.785  0.00  0.00    +0.000 NA
ENDBRANCH   1   9
BRANCH   5  12
ATOM     12  C   UNL     1       4.914   6.558  16.619  0.00  0.00    +0.000 C 
BRANCH  12  13
ATOM     13  C   UNL     1       3.836   6.019  17.527  0.00  0.00    +0.000 A 
ATOM     14  N   UNL     1       3.068   6.859  18.240  0.00  0.00    +0.000 NA
ATOM     15  O   UNL     1       2.285   6.016  19.020  0.00  0.00    +0.000 OA
ATOM     16  C   UNL     1       2.663   4.738  18.720  0.00  0.00    +0.000 A 
ATOM     17  N   UNL     1       3.596   4.685  17.790  0.00  0.00    +0.000 NA
BRANCH  16  18
ATOM     18  C   UNL     1       1.991   3.628  19.483  0.00  0.00    +0.000 C 
ATOM     19  C   UNL     1       3.049   2.719  20.130  0.00  0.00    +0.000 C 
ATOM     20  C   UNL     1       1.095   4.225  20.584  0.00  0.00    +0.000 C 
ATOM     21  C   UNL     1       1.110   2.781  18.547  0.00  0.00    +0.000 C 
ENDBRANCH  16  18
ENDBRANCH  12  13
ENDBRANCH   5  12
TORSDOF 4
ENDMDL
MODEL 3
REMARK VINA RESULT:      -6.7      1.487      3.621
REMARK  Name = 
REMARK  8 active torsions:
REMARK  status: ('A' for Active; 'I' for Inactive)
REMARK    1  A    between atoms: C_1  and  N_2
REMARK    2  A    between atoms: C_4  and  C_5
REMARK    3  A    between atoms: N_9  and  C_10
REMARK    4  A    between atoms: C_10  and  C_11
REMARK    5  A    between atoms: C_14  and  C_15
REMARK    6  A    between atoms: C_15  and  C_16
REMARK    7  A    between atoms: C_15  and  C_17
REMARK    8  A    between atoms: C_15  and  C_18
REMARK                            x       y       z     vdW  Elec       q    Type
REMARK                         _______ _______ _______ _____ _____    ______ ____
ROOT
ATOM      1  C   UNL     1       3.998   3.939  18.163  0.00  0.00    +0.000 C 
ATOM      2  C   UNL     1       2.950   3.087  17.459  0.00  0.00    +0.000 C 
ATOM      3  C   UNL     1       1.658   3.443  18.169  0.00  0.00    +0.000 C 
ATOM      4  C   UNL     1       1.847   4.879  18.632  0.00  0.00    +0.000 C 
ATOM      5  N   UNL     1       3.281   5.152  18.581  0.00  0.00    +0.000 NA
ENDROOT
BRANCH   1   9
ATOM      6  C   UNL     1       7.119   4.982  14.443  0.00  0.00    +0.000 C 
ATOM      7  N   UNL     1       6.644   4.605  15.752  0.00  0.00    +0.000 N 
ATOM      8  C   UNL     1       5.424   4.069  16.017  0.00  0.00    +0.000 A 
ATOM      9  C   UNL     1       5.234   4.191  17.378  0.00  0.00    +0.000 A 
ATOM     10  C   UNL     1       6.486   4.665  17.849  0.00  0.00    +0.000 A 
ATOM     11  N   UNL     1       7.346   4.914  16.855  0.00  0.00    +0.000 NA
ENDBRANCH   1   9
BRANCH   5  12
ATOM     12  C   UNL     1       3.648   6.475  18.058  0.00  0.00    +0.000 C 
BRANCH  12  13
ATOM     13  C   UNL     1       2.680   7.618  18.245  0.00  0.00    +0.000 A 
ATOM     14  N   UNL     1       2.485   8.507  17.257  0.00  0.00    +0.000 NA
ATOM     15  O   UNL     1       1.632   9.451  17.821  0.00  0.00    +0.000 OA
ATOM     16  C   UNL     1       1.402   9.054  19.107  0.00  0.00    +0.000 A 
ATOM     17  N   UNL     1       2.004   7.920  19.410  0.00  0.00    +0.000 NA
BRANCH  16  18
ATOM     18  C   UNL     1       0.542   9.950  19.957  0.00  0.00    +0.000 C 
ATOM     19  C   UNL     1       1.243  11.301  20.174  0.00  0.00    +0.000 C 
ATOM     20  C   UNL     1      -0.809  10.187  19.255  0.00  0.00    +0.000 C 
ATOM     21  C   UNL     1       0.269   9.303  21.327  0.00  0.00    +0.000 C 
ENDBRANCH  16  18
ENDBRANCH  12  13
ENDBRANCH   5  12
TORSDOF 4
ENDMDL
MODEL 4
REMARK VINA RESULT:      -6.7      1.648      3.789
REMARK  Name = 
REMARK  8 active torsions:
REMARK  status: ('A' for Active; 'I' for Inactive)
REMARK    1  A    between atoms: C_1  and  N_2
REMARK    2  A    between atoms: C_4  and  C_5
REMARK    3  A    between atoms: N_9  and  C_10
REMARK    4  A    between atoms: C_10  and  C_11
REMARK    5  A    between atoms: C_14  and  C_15
REMARK    6  A    between atoms: C_15  and  C_16
REMARK    7  A    between atoms: C_15  and  C_17
REMARK    8  A    between atoms: C_15  and  C_18
REMARK                            x       y       z     vdW  Elec       q    Type
REMARK                         _______ _______ _______ _____ _____    ______ ____
ROOT
ATOM      1  C   UNL     1       3.826   3.476  18.416  0.00  0.00    +0.000 C 
ATOM      2  C   UNL     1       3.046   2.340  17.770  0.00  0.00    +0.000 C 
ATOM      3  C   UNL     1       1.649   2.487  18.343  0.00  0.00    +0.000 C 
ATOM      4  C   UNL     1       1.493   3.975  18.619  0.00  0.00    +0.000 C 
ATOM      5  N   UNL     1       2.838   4.545  18.621  0.00  0.00    +0.000 NA
ENDROOT
BRANCH   1   9
ATOM      6  C   UNL     1       6.940   4.890  14.815  0.00  0.00    +0.000 C 
ATOM      7  N   UNL     1       6.460   4.481  16.112  0.00  0.00    +0.000 N 
ATOM      8  C   UNL     1       5.326   3.767  16.337  0.00  0.00    +0.000 A 
ATOM      9  C   UNL     1       5.048   3.898  17.683  0.00  0.00    +0.000 A 
ATOM     10  C   UNL     1       6.183   4.575  18.196  0.00  0.00    +0.000 A 
ATOM     11  N   UNL     1       7.047   4.928  17.236  0.00  0.00    +0.000 NA
ENDBRANCH   1   9
BRANCH   5  12
ATOM     12  C   UNL     1       2.967   5.844  17.948  0.00  0.00    +0.000 C 
BRANCH  12  13
ATOM     13  C   UNL     1       2.444   7.075  18.650  0.00  0.00    +0.000 A 
ATOM     14  N   UNL     1       2.235   7.060  19.977  0.00  0.00    +0.000 NA
ATOM     15  O   UNL     1       1.663   8.300  20.239  0.00  0.00    +0.000 OA
ATOM     16  C   UNL     1       1.561   8.947  19.040  0.00  0.00    +0.000 A 
ATOM     17  N   UNL     1       2.050   8.247  18.036  0.00  0.00    +0.000 NA
BRANCH  16  18
ATOM     18  C   UNL     1       0.913  10.306  19.049  0.00  0.00    +0.000 C 
ATOM     19  C   UNL     1       0.678  10.768  20.497  0.00  0.00    +0.000 C 
ATOM     20  C   UNL     1       1.828  11.319  18.336  0.00  0.00    +0.000 C 
ATOM     21  C   UNL     1      -0.437  10.269  18.311  0.00  0.00    +0.000 C 
ENDBRANCH  16  18
ENDBRANCH  12  13
ENDBRANCH   5  12
TORSDOF 4
ENDMDL
MODEL 5
REMARK VINA RESULT:      -6.7      3.660      6.108
REMARK  Name = 
REMARK  8 active torsions:
REMARK  status: ('A' for Active; 'I' for Inactive)
REMARK    1  A    between atoms: C_1  and  N_2
REMARK    2  A    between atoms: C_4  and  C_5
REMARK    3  A    between atoms: N_9  and  C_10
REMARK    4  A    between atoms: C_10  and  C_11
REMARK    5  A    between atoms: C_14  and  C_15
REMARK    6  A    between atoms: C_15  and  C_16
REMARK    7  A    between atoms: C_15  and  C_17
REMARK    8  A    between atoms: C_15  and  C_18
REMARK                            x       y       z     vdW  Elec       q    Type
REMARK                         _______ _______ _______ _____ _____    ______ ____
ROOT
ATOM      1  C   UNL     1       7.262   5.524  16.520  0.00  0.00    +0.000 C 
ATOM      2  C   UNL     1       7.706   4.576  17.626  0.00  0.00    +0.000 C 
ATOM      3  C   UNL     1       7.560   5.401  18.890  0.00  0.00    +0.000 C 
ATOM      4  C   UNL     1       6.425   6.371  18.597  0.00  0.00    +0.000 C 
ATOM      5  N   UNL     1       6.254   6.390  17.147  0.00  0.00    +0.000 NA
ENDROOT
BRANCH   1   9
ATOM      6  C   UNL     1       7.050   3.921  11.824  0.00  0.00    +0.000 C 
ATOM      7  N   UNL     1       6.666   4.174  13.191  0.00  0.00    +0.000 N 
ATOM      8  C   UNL     1       7.147   5.181  13.965  0.00  0.00    +0.000 A 
ATOM      9  C   UNL     1       6.816   4.862  15.266  0.00  0.00    +0.000 A 
ATOM     10  C   UNL     1       5.986   3.720  15.130  0.00  0.00    +0.000 A 
ATOM     11  N   UNL     1       5.893   3.303  13.862  0.00  0.00    +0.000 NA
ENDBRANCH   1   9
BRANCH   5  12
ATOM     12  C   UNL     1       4.860   6.400  16.682  0.00  0.00    +0.000 C 
BRANCH  12  13
ATOM     13  C   UNL     1       3.832   5.621  17.466  0.00  0.00    +0.000 A 
ATOM     14  N   UNL     1       2.854   6.264  18.125  0.00  0.00    +0.000 NA
ATOM     15  O   UNL     1       2.185   5.250  18.802  0.00  0.00    +0.000 OA
ATOM     16  C   UNL     1       2.832   4.084  18.505  0.00  0.00    +0.000 A 
ATOM     17  N   UNL     1       3.837   4.255  17.667  0.00  0.00    +0.000 NA
BRANCH  16  18
ATOM     18  C   UNL     1       2.327   2.832  19.168  0.00  0.00    +0.000 C 
ATOM     19  C   UNL     1       0.865   2.577  18.768  0.00  0.00    +0.000 C 
ATOM     20  C   UNL     1       3.189   1.632  18.733  0.00  0.00    +0.000 C 
ATOM     21  C   UNL     1       2.410   2.957  20.701  0.00  0.00    +0.000 C 
ENDBRANCH  16  18
ENDBRANCH  12  13
ENDBRANCH   5  12
TORSDOF 4
ENDMDL
MODEL 6
REMARK VINA RESULT:      -6.6      0.376      1.036
REMARK  Name = 
REMARK  8 active torsions:
REMARK  status: ('A' for Active; 'I' for Inactive)
REMARK    1  A    between atoms: C_1  and  N_2
REMARK    2  A    between atoms: C_4  and  C_5
REMARK    3  A    between atoms: N_9  and  C_10
REMARK    4  A    between atoms: C_10  and  C_11
REMARK    5  A    between atoms: C_14  and  C_15
REMARK    6  A    between atoms: C_15  and  C_16
REMARK    7  A    between atoms: C_15  and  C_17
REMARK    8  A    between atoms: C_15  and  C_18
REMARK                            x       y       z     vdW  Elec       q    Type
REMARK                         _______ _______ _______ _____ _____    ______ ____
ROOT
ATOM      1  C   UNL     1       3.756   4.677  17.196  0.00  0.00    +0.000 C 
ATOM      2  C   UNL     1       5.195   4.198  17.064  0.00  0.00    +0.000 C 
ATOM      3  C   UNL     1       5.916   5.383  16.449  0.00  0.00    +0.000 C 
ATOM      4  C   UNL     1       5.153   6.604  16.939  0.00  0.00    +0.000 C 
ATOM      5  N   UNL     1       3.858   6.126  17.417  0.00  0.00    +0.000 NA
ENDROOT
BRANCH   1   9
ATOM      6  C   UNL     1       2.159   2.715  21.471  0.00  0.00    +0.000 C 
ATOM      7  N   UNL     1       2.229   3.037  20.066  0.00  0.00    +0.000 N 
ATOM      8  C   UNL     1       3.357   3.397  19.401  0.00  0.00    +0.000 A 
ATOM      9  C   UNL     1       2.942   3.953  18.208  0.00  0.00    +0.000 A 
ATOM     10  C   UNL     1       1.544   3.717  18.196  0.00  0.00    +0.000 A 
ATOM     11  N   UNL     1       1.110   3.154  19.330  0.00  0.00    +0.000 NA
ENDBRANCH   1   9
BRANCH   5  12
ATOM     12  C   UNL     1       3.384   6.745  18.662  0.00  0.00    +0.000 C 
BRANCH  12  13
ATOM     13  C   UNL     1       2.416   7.899  18.571  0.00  0.00    +0.000 A 
ATOM     14  N   UNL     1       2.335   8.627  17.445  0.00  0.00    +0.000 NA
ATOM     15  O   UNL     1       1.440   9.643  17.767  0.00  0.00    +0.000 OA
ATOM     16  C   UNL     1       1.074   9.446  19.068  0.00  0.00    +0.000 A 
ATOM     17  N   UNL     1       1.627   8.373  19.600  0.00  0.00    +0.000 NA
BRANCH  16  18
ATOM     18  C   UNL     1       0.142  10.458  19.677  0.00  0.00    +0.000 C 
ATOM     19  C   UNL     1      -1.153  10.544  18.852  0.00  0.00    +0.000 C 
ATOM     20  C   UNL     1      -0.203  10.042  21.119  0.00  0.00    +0.000 C 
ATOM     21  C   UNL     1       0.801  11.849  19.718  0.00  0.00    +0.000 C 
ENDBRANCH  16  18
ENDBRANCH  12  13
ENDBRANCH   5  12
TORSDOF 4
ENDMDL
MODEL 7
REMARK VINA RESULT:      -6.6      1.652      3.878
REMARK  Name = 
REMARK  8 active torsions:
REMARK  status: ('A' for Active; 'I' for Inactive)
REMARK    1  A    between atoms: C_1  and  N_2
REMARK    2  A    between atoms: C_4  and  C_5
REMARK    3  A    between atoms: N_9  and  C_10
REMARK    4  A    between atoms: C_10  and  C_11
REMARK    5  A    between atoms: C_14  and  C_15
REMARK    6  A    between atoms: C_15  and  C_16
REMARK    7  A    between atoms: C_15  and  C_17
REMARK    8  A    between atoms: C_15  and  C_18
REMARK                            x       y       z     vdW  Elec       q    Type
REMARK                         _______ _______ _______ _____ _____    ______ ____
ROOT
ATOM      1  C   UNL     1       4.033   3.587  18.265  0.00  0.00    +0.000 C 
ATOM      2  C   UNL     1       3.191   2.507  17.599  0.00  0.00    +0.000 C 
ATOM      3  C   UNL     1       1.825   2.666  18.238  0.00  0.00    +0.000 C 
ATOM      4  C   UNL     1       1.727   4.142  18.593  0.00  0.00    +0.000 C 
ATOM      5  N   UNL     1       3.088   4.672  18.564  0.00  0.00    +0.000 NA
ENDROOT
BRANCH   1   9
ATOM      6  C   UNL     1       7.048   5.031  14.591  0.00  0.00    +0.000 C 
ATOM      7  N   UNL     1       6.604   4.604  15.896  0.00  0.00    +0.000 N 
ATOM      8  C   UNL     1       5.471   3.898  16.145  0.00  0.00    +0.000 A 
ATOM      9  C   UNL     1       5.236   4.008  17.501  0.00  0.00    +0.000 A 
ATOM     10  C   UNL     1       6.393   4.667  17.989  0.00  0.00    +0.000 A 
ATOM     11  N   UNL     1       7.230   5.027  17.008  0.00  0.00    +0.000 NA
ENDBRANCH   1   9
BRANCH   5  12
ATOM     12  C   UNL     1       3.229   5.999  17.951  0.00  0.00    +0.000 C 
BRANCH  12  13
ATOM     13  C   UNL     1       2.558   7.176  18.616  0.00  0.00    +0.000 A 
ATOM     14  N   UNL     1       2.321   7.161  19.938  0.00  0.00    +0.000 NA
ATOM     15  O   UNL     1       1.610   8.336  20.163  0.00  0.00    +0.000 OA
ATOM     16  C   UNL     1       1.466   8.947  18.951  0.00  0.00    +0.000 A 
ATOM     17  N   UNL     1       2.052   8.287  17.971  0.00  0.00    +0.000 NA
BRANCH  16  18
ATOM     18  C   UNL     1       0.674  10.226  18.918  0.00  0.00    +0.000 C 
ATOM     19  C   UNL     1      -0.482  10.104  17.911  0.00  0.00    +0.000 C 
ATOM     20  C   UNL     1       0.099  10.514  20.318  0.00  0.00    +0.000 C 
ATOM     21  C   UNL     1       1.570  11.410  18.510  0.00  0.00    +0.000 C 
ENDBRANCH  16  18
ENDBRANCH  12  13
ENDBRANCH   5  12
TORSDOF 4
ENDMDL
MODEL 8
REMARK VINA RESULT:      -6.6      1.635      3.939
REMARK  Name = 
REMARK  8 active torsions:
REMARK  status: ('A' for Active; 'I' for Inactive)
REMARK    1  A    between atoms: C_1  and  N_2
REMARK    2  A    between atoms: C_4  and  C_5
REMARK    3  A    between atoms: N_9  and  C_10
REMARK    4  A    between atoms: C_10  and  C_11
REMARK    5  A    between atoms: C_14  and  C_15
REMARK    6  A    between atoms: C_15  and  C_16
REMARK    7  A    between atoms: C_15  and  C_17
REMARK    8  A    between atoms: C_15  and  C_18
REMARK                            x       y       z     vdW  Elec       q    Type
REMARK                         _______ _______ _______ _____ _____    ______ ____
ROOT
ATOM      1  C   UNL     1       5.027   4.936  19.182  0.00  0.00    +0.000 C 
ATOM      2  C   UNL     1       4.581   3.490  19.353  0.00  0.00    +0.000 C 
ATOM      3  C   UNL     1       3.313   3.596  20.178  0.00  0.00    +0.000 C 
ATOM      4  C   UNL     1       2.716   4.945  19.806  0.00  0.00    +0.000 C 
ATOM      5  N   UNL     1       3.781   5.716  19.173  0.00  0.00    +0.000 NA
ENDROOT
BRANCH   1   9
ATOM      6  C   UNL     1       6.974   4.937  14.613  0.00  0.00    +0.000 C 
ATOM      7  N   UNL     1       6.833   5.172  16.029  0.00  0.00    +0.000 N 
ATOM      8  C   UNL     1       6.060   4.437  16.872  0.00  0.00    +0.000 A 
ATOM      9  C   UNL     1       5.922   5.186  18.023  0.00  0.00    +0.000 A 
ATOM     10  C   UNL     1       6.799   6.281  17.817  0.00  0.00    +0.000 A 
ATOM     11  N   UNL     1       7.357   6.270  16.601  0.00  0.00    +0.000 NA
ENDBRANCH   1   9
BRANCH   5  12
ATOM     12  C   UNL     1       3.375   6.492  17.993  0.00  0.00    +0.000 C 
BRANCH  12  13
ATOM     13  C   UNL     1       2.565   7.749  18.201  0.00  0.00    +0.000 A 
ATOM     14  N   UNL     1       2.562   8.714  17.267  0.00  0.00    +0.000 NA
ATOM     15  O   UNL     1       1.813   9.735  17.843  0.00  0.00    +0.000 OA
ATOM     16  C   UNL     1       1.445   9.300  19.084  0.00  0.00    +0.000 A 
ATOM     17  N   UNL     1       1.861   8.075  19.343  0.00  0.00    +0.000 NA
BRANCH  16  18
ATOM     18  C   UNL     1       0.663  10.258  19.942  0.00  0.00    +0.000 C 
ATOM     19  C   UNL     1      -0.825  10.218  19.553  0.00  0.00    +0.000 C 
ATOM     20  C   UNL     1       0.810   9.865  21.423  0.00  0.00    +0.000 C 
ATOM     21  C   UNL     1       1.186  11.695  19.766  0.00  0.00    +0.000 C 
ENDBRANCH  16  18
ENDBRANCH  12  13
ENDBRANCH   5  12
TORSDOF 4
ENDMDL
MODEL 9
REMARK VINA RESULT:      -6.6      1.512      3.748
REMARK  Name = 
REMARK  8 active torsions:
REMARK  status: ('A' for Active; 'I' for Inactive)
REMARK    1  A    between atoms: C_1  and  N_2
REMARK    2  A    between atoms: C_4  and  C_5
REMARK    3  A    between atoms: N_9  and  C_10
REMARK    4  A    between atoms: C_10  and  C_11
REMARK    5  A    between atoms: C_14  and  C_15
REMARK    6  A    between atoms: C_15  and  C_16
REMARK    7  A    between atoms: C_15  and  C_17
REMARK    8  A    between atoms: C_15  and  C_18
REMARK                            x       y       z     vdW  Elec       q    Type
REMARK                         _______ _______ _______ _____ _____    ______ ____
ROOT
ATOM      1  C   UNL     1       3.900   3.834  18.055  0.00  0.00    +0.000 C 
ATOM      2  C   UNL     1       2.761   3.261  17.223  0.00  0.00    +0.000 C 
ATOM      3  C   UNL     1       1.516   3.630  18.008  0.00  0.00    +0.000 C 
ATOM      4  C   UNL     1       1.875   4.921  18.727  0.00  0.00    +0.000 C 
ATOM      5  N   UNL     1       3.332   5.025  18.703  0.00  0.00    +0.000 NA
ENDROOT
BRANCH   1   9
ATOM      6  C   UNL     1       7.141   4.926  14.453  0.00  0.00    +0.000 C 
ATOM      7  N   UNL     1       6.622   4.513  15.734  0.00  0.00    +0.000 N 
ATOM      8  C   UNL     1       5.381   4.004  15.949  0.00  0.00    +0.000 A 
ATOM      9  C   UNL     1       5.162   4.079  17.310  0.00  0.00    +0.000 A 
ATOM     10  C   UNL     1       6.415   4.495  17.828  0.00  0.00    +0.000 A 
ATOM     11  N   UNL     1       7.307   4.756  16.865  0.00  0.00    +0.000 NA
ENDBRANCH   1   9
BRANCH   5  12
ATOM     12  C   UNL     1       3.859   6.369  18.429  0.00  0.00    +0.000 C 
BRANCH  12  13
ATOM     13  C   UNL     1       2.881   7.508  18.267  0.00  0.00    +0.000 A 
ATOM     14  N   UNL     1       2.763   8.135  17.086  0.00  0.00    +0.000 NA
ATOM     15  O   UNL     1       1.871   9.171  17.345  0.00  0.00    +0.000 OA
ATOM     16  C   UNL     1       1.544   9.086  18.668  0.00  0.00    +0.000 A 
ATOM     17  N   UNL     1       2.119   8.066  19.275  0.00  0.00    +0.000 NA
BRANCH  16  18
ATOM     18  C   UNL     1       0.624  10.143  19.215  0.00  0.00    +0.000 C 
ATOM     19  C   UNL     1      -0.662  10.208  18.374  0.00  0.00    +0.000 C 
ATOM     20  C   UNL     1       0.259   9.808  20.673  0.00  0.00    +0.000 C 
ATOM     21  C   UNL     1       1.306  11.524  19.191  0.00  0.00    +0.000 C 
ENDBRANCH  16  18
ENDBRANCH  12  13
ENDBRANCH   5  12
TORSDOF 4
ENDMDL
