MODEL 1
REMARK VINA RESULT:      -7.5      0.000      0.000
REMARK  Name = 
REMARK  7 active torsions:
REMARK  status: ('A' for Active; 'I' for Inactive)
REMARK    1  A    between atoms: C_1  and  O_2
REMARK    2  A    between atoms: O_2  and  C_3
REMARK    3  A    between atoms: C_9  and  N_10
REMARK    4  A    between atoms: C_11  and  C_13
REMARK    5  A    between atoms: N_20  and  C_21
REMARK    6  A    between atoms: C_21  and  C_22
REMARK    7  A    between atoms: C_22  and  O_23
REMARK                            x       y       z     vdW  Elec       q    Type
REMARK                         _______ _______ _______ _____ _____    ______ ____
ROOT
ATOM      1  C   UNL     1       0.614   9.935  19.502  0.00  0.00    +0.000 A 
ATOM      2  C   UNL     1       0.921  10.229  20.825  0.00  0.00    +0.000 A 
ATOM      3  S   UNL     1      -0.155  11.320  21.554  0.00  0.00    +0.000 S 
ATOM      4  C   UNL     1      -1.093  11.424  20.127  0.00  0.00    +0.000 A 
ATOM      5  C   UNL     1      -2.249  12.182  19.929  0.00  0.00    +0.000 A 
ATOM      6  C   UNL     1      -2.864  12.068  18.692  0.00  0.00    +0.000 A 
ATOM      7  C   UNL     1      -2.338  11.218  17.724  0.00  0.00    +0.000 A 
ATOM      8  N   UNL     1      -3.125  11.034  16.577  0.00  0.00    +0.000 N 
ATOM      9  N   UNL     1      -1.202  10.514  17.892  0.00  0.00    +0.000 NA
ATOM     10  C   UNL     1      -0.583  10.619  19.103  0.00  0.00    +0.000 A 
ATOM     11  H   UNL     1      -3.285  11.917  16.103  0.00  0.00    +0.000 HD
ENDROOT
BRANCH   1  13
ATOM     12  N   UNL     1       1.895   7.850  19.403  0.00  0.00    +0.000 N 
ATOM     13  C   UNL     1       1.470   9.009  18.762  0.00  0.00    +0.000 C 
ATOM     14  O   UNL     1       1.753   9.279  17.594  0.00  0.00    +0.000 OA
ATOM     15  H   UNL     1       1.460   7.615  20.293  0.00  0.00    +0.000 HD
BRANCH  12  22
ATOM     16  C   UNL     1       2.887   5.596  19.415  0.00  0.00    +0.000 A 
ATOM     17  C   UNL     1       3.673   4.611  18.783  0.00  0.00    +0.000 A 
ATOM     18  C   UNL     1       4.396   4.903  17.625  0.00  0.00    +0.000 A 
ATOM     19  C   UNL     1       4.339   6.180  17.095  0.00  0.00    +0.000 A 
ATOM     20 CL   UNL     1       5.270   6.568  15.699  0.00  0.00    +0.000 Cl
ATOM     21  C   UNL     1       3.536   7.156  17.688  0.00  0.00    +0.000 A 
ATOM     22  C   UNL     1       2.768   6.876  18.829  0.00  0.00    +0.000 A 
BRANCH  16  24
ATOM     23  C   UNL     1       1.181   4.360  20.511  0.00  0.00    +0.000 C 
ATOM     24  O   UNL     1       2.199   5.362  20.586  0.00  0.00    +0.000 OA
ENDBRANCH  16  24
ENDBRANCH  12  22
ENDBRANCH   1  13
BRANCH   8  25
ATOM     25  C   UNL     1      -2.738   9.939  15.683  0.00  0.00    +0.000 C 
BRANCH  25  26
ATOM     26  C   UNL     1      -3.436  10.115  14.324  0.00  0.00    +0.000 C 
BRANCH  26  27
ATOM     27  O   UNL     1      -2.505   9.843  13.272  0.00  0.00    +0.000 OA
ATOM     28  H   UNL     1      -2.732   8.933  12.984  0.00  0.00    +0.000 HD
ENDBRANCH  26  27
ENDBRANCH  25  26
ENDBRANCH   8  25
TORSDOF 6
ENDMDL
MODEL 2
REMARK VINA RESULT:      -7.4      1.000      1.048
REMARK  Name = 
REMARK  7 active torsions:
REMARK  status: ('A' for Active; 'I' for Inactive)
REMARK    1  A    between atoms: C_1  and  O_2
REMARK    2  A    between atoms: O_2  and  C_3
REMARK    3  A    between atoms: C_9  and  N_10
REMARK    4  A    between atoms: C_11  and  C_13
REMARK    5  A    between atoms: N_20  and  C_21
REMARK    6  A    between atoms: C_21  and  C_22
REMARK    7  A    between atoms: C_22  and  O_23
REMARK                            x       y       z     vdW  Elec       q    Type
REMARK                         _______ _______ _______ _____ _____    ______ ____
ROOT
ATOM      1  C   UNL     1       1.110   9.309  19.332  0.00  0.00    +0.000 A 
ATOM      2  C   UNL     1       1.488   9.429  20.663  0.00  0.00    +0.000 A 
ATOM      3  S   UNL     1       0.517  10.492  21.561  0.00  0.00    +0.000 S 
ATOM      4  C   UNL     1      -0.469  10.818  20.201  0.00  0.00    +0.000 A 
ATOM      5  C   UNL     1      -1.578  11.663  20.144  0.00  0.00    +0.000 A 
ATOM      6  C   UNL     1      -2.248  11.731  18.933  0.00  0.00    +0.000 A 
ATOM      7  C   UNL     1      -1.820  10.967  17.852  0.00  0.00    +0.000 A 
ATOM      8  N   UNL     1      -2.662  10.964  16.730  0.00  0.00    +0.000 N 
ATOM      9  N   UNL     1      -0.727  10.180  17.885  0.00  0.00    +0.000 NA
ATOM     10  C   UNL     1      -0.054  10.106  19.070  0.00  0.00    +0.000 A 
ATOM     11  H   UNL     1      -2.782  11.905  16.366  0.00  0.00    +0.000 HD
ENDROOT
BRANCH   1  13
ATOM     12  N   UNL     1       2.325   7.213  18.969  0.00  0.00    +0.000 N 
ATOM     13  C   UNL     1       1.871   8.423  18.453  0.00  0.00    +0.000 C 
ATOM     14  O   UNL     1       2.054   8.772  17.286  0.00  0.00    +0.000 OA
ATOM     15  H   UNL     1       1.967   6.923  19.876  0.00  0.00    +0.000 HD
BRANCH  12  22
ATOM     16  C   UNL     1       2.616   4.973  17.991  0.00  0.00    +0.000 A 
ATOM     17  C   UNL     1       3.365   4.083  17.194  0.00  0.00    +0.000 A 
ATOM     18  C   UNL     1       4.629   4.435  16.718  0.00  0.00    +0.000 A 
ATOM     19  C   UNL     1       5.152   5.676  17.037  0.00  0.00    +0.000 A 
ATOM     20 CL   UNL     1       6.733   6.100  16.504  0.00  0.00    +0.000 Cl
ATOM     21  C   UNL     1       4.407   6.583  17.795  0.00  0.00    +0.000 A 
ATOM     22  C   UNL     1       3.117   6.267  18.250  0.00  0.00    +0.000 A 
BRANCH  16  24
ATOM     23  C   UNL     1       1.414   3.696  19.592  0.00  0.00    +0.000 C 
ATOM     24  O   UNL     1       1.387   4.644  18.521  0.00  0.00    +0.000 OA
ENDBRANCH  16  24
ENDBRANCH  12  22
ENDBRANCH   1  13
BRANCH   8  25
ATOM     25  C   UNL     1      -2.385   9.958  15.701  0.00  0.00    +0.000 C 
BRANCH  25  26
ATOM     26  C   UNL     1      -3.287  10.209  14.481  0.00  0.00    +0.000 C 
BRANCH  26  27
ATOM     27  O   UNL     1      -2.585   9.848  13.287  0.00  0.00    +0.000 OA
ATOM     28  H   UNL     1      -3.296   9.722  12.624  0.00  0.00    +0.000 HD
ENDBRANCH  26  27
ENDBRANCH  25  26
ENDBRANCH   8  25
TORSDOF 6
ENDMDL
MODEL 3
REMARK VINA RESULT:      -7.2      4.970      7.095
REMARK  Name = 
REMARK  7 active torsions:
REMARK  status: ('A' for Active; 'I' for Inactive)
REMARK    1  A    between atoms: C_1  and  O_2
REMARK    2  A    between atoms: O_2  and  C_3
REMARK    3  A    between atoms: C_9  and  N_10
REMARK    4  A    between atoms: C_11  and  C_13
REMARK    5  A    between atoms: N_20  and  C_21
REMARK    6  A    between atoms: C_21  and  C_22
REMARK    7  A    between atoms: C_22  and  O_23
REMARK                            x       y       z     vdW  Elec       q    Type
REMARK                         _______ _______ _______ _____ _____    ______ ____
ROOT
ATOM      1  C   UNL     1       3.293   6.742  18.029  0.00  0.00    +0.000 A 
ATOM      2  C   UNL     1       2.764   8.005  18.258  0.00  0.00    +0.000 A 
ATOM      3  S   UNL     1       1.789   8.101  19.644  0.00  0.00    +0.000 S 
ATOM      4  C   UNL     1       2.058   6.451  20.007  0.00  0.00    +0.000 A 
ATOM      5  C   UNL     1       1.554   5.731  21.091  0.00  0.00    +0.000 A 
ATOM      6  C   UNL     1       1.950   4.407  21.199  0.00  0.00    +0.000 A 
ATOM      7  C   UNL     1       2.823   3.860  20.264  0.00  0.00    +0.000 A 
ATOM      8  N   UNL     1       3.306   2.575  20.554  0.00  0.00    +0.000 N 
ATOM      9  N   UNL     1       3.282   4.534  19.192  0.00  0.00    +0.000 NA
ATOM     10  C   UNL     1       2.897   5.838  19.070  0.00  0.00    +0.000 A 
ATOM     11  H   UNL     1       2.542   1.910  20.633  0.00  0.00    +0.000 HD
ENDROOT
BRANCH   1  13
ATOM     12  N   UNL     1       4.546   5.230  16.564  0.00  0.00    +0.000 N 
ATOM     13  C   UNL     1       4.149   6.530  16.863  0.00  0.00    +0.000 C 
ATOM     14  O   UNL     1       4.459   7.506  16.179  0.00  0.00    +0.000 OA
ATOM     15  H   UNL     1       4.091   4.471  17.064  0.00  0.00    +0.000 HD
BRANCH  12  22
ATOM     16  C   UNL     1       6.806   5.094  15.596  0.00  0.00    +0.000 A 
ATOM     17  C   UNL     1       7.664   4.644  14.572  0.00  0.00    +0.000 A 
ATOM     18  C   UNL     1       7.154   4.047  13.418  0.00  0.00    +0.000 A 
ATOM     19  C   UNL     1       5.785   3.900  13.280  0.00  0.00    +0.000 A 
ATOM     20 CL   UNL     1       5.141   3.217  11.836  0.00  0.00    +0.000 Cl
ATOM     21  C   UNL     1       4.924   4.307  14.301  0.00  0.00    +0.000 A 
ATOM     22  C   UNL     1       5.416   4.872  15.488  0.00  0.00    +0.000 A 
BRANCH  16  24
ATOM     23  C   UNL     1       7.636   4.873  17.810  0.00  0.00    +0.000 C 
ATOM     24  O   UNL     1       7.267   5.732  16.728  0.00  0.00    +0.000 OA
ENDBRANCH  16  24
ENDBRANCH  12  22
ENDBRANCH   1  13
BRANCH   8  25
ATOM     25  C   UNL     1       4.431   2.096  19.746  0.00  0.00    +0.000 C 
BRANCH  25  26
ATOM     26  C   UNL     1       3.896   1.390  18.490  0.00  0.00    +0.000 C 
BRANCH  26  27
ATOM     27  O   UNL     1       4.091   2.233  17.350  0.00  0.00    +0.000 OA
ATOM     28  H   UNL     1       5.038   2.112  17.125  0.00  0.00    +0.000 HD
ENDBRANCH  26  27
ENDBRANCH  25  26
ENDBRANCH   8  25
TORSDOF 6
ENDMDL
MODEL 4
REMARK VINA RESULT:      -7.1      1.592      1.795
REMARK  Name = 
REMARK  7 active torsions:
REMARK  status: ('A' for Active; 'I' for Inactive)
REMARK    1  A    between atoms: C_1  and  O_2
REMARK    2  A    between atoms: O_2  and  C_3
REMARK    3  A    between atoms: C_9  and  N_10
REMARK    4  A    between atoms: C_11  and  C_13
REMARK    5  A    between atoms: N_20  and  C_21
REMARK    6  A    between atoms: C_21  and  C_22
REMARK    7  A    between atoms: C_22  and  O_23
REMARK                            x       y       z     vdW  Elec       q    Type
REMARK                         _______ _______ _______ _____ _____    ______ ____
ROOT
ATOM      1  C   UNL     1       1.148   8.811  20.227  0.00  0.00    +0.000 A 
ATOM      2  C   UNL     1       1.489   8.587  21.555  0.00  0.00    +0.000 A 
ATOM      3  S   UNL     1       0.681   9.597  22.653  0.00  0.00    +0.000 S 
ATOM      4  C   UNL     1      -0.180  10.363  21.389  0.00  0.00    +0.000 A 
ATOM      5  C   UNL     1      -1.126  11.384  21.508  0.00  0.00    +0.000 A 
ATOM      6  C   UNL     1      -1.727  11.816  20.336  0.00  0.00    +0.000 A 
ATOM      7  C   UNL     1      -1.394  11.226  19.120  0.00  0.00    +0.000 A 
ATOM      8  N   UNL     1      -2.181  11.603  18.021  0.00  0.00    +0.000 N 
ATOM      9  N   UNL     1      -0.455  10.270  18.990  0.00  0.00    +0.000 NA
ATOM     10  C   UNL     1       0.149   9.837  20.135  0.00  0.00    +0.000 A 
ATOM     11  H   UNL     1      -2.123  12.604  17.861  0.00  0.00    +0.000 HD
ENDROOT
BRANCH   1  13
ATOM     12  N   UNL     1       2.276   6.752  19.529  0.00  0.00    +0.000 N 
ATOM     13  C   UNL     1       1.779   8.004  19.184  0.00  0.00    +0.000 C 
ATOM     14  O   UNL     1       1.818   8.455  18.038  0.00  0.00    +0.000 OA
ATOM     15  H   UNL     1       2.031   6.383  20.445  0.00  0.00    +0.000 HD
BRANCH  12  22
ATOM     16  C   UNL     1       2.419   4.598  18.343  0.00  0.00    +0.000 A 
ATOM     17  C   UNL     1       3.047   3.780  17.383  0.00  0.00    +0.000 A 
ATOM     18  C   UNL     1       4.235   4.177  16.768  0.00  0.00    +0.000 A 
ATOM     19  C   UNL     1       4.803   5.391  17.111  0.00  0.00    +0.000 A 
ATOM     20 CL   UNL     1       6.298   5.866  16.401  0.00  0.00    +0.000 Cl
ATOM     21  C   UNL     1       4.174   6.230  18.033  0.00  0.00    +0.000 A 
ATOM     22  C   UNL     1       2.958   5.871  18.635  0.00  0.00    +0.000 A 
BRANCH  16  24
ATOM     23  C   UNL     1       1.083   2.811  19.156  0.00  0.00    +0.000 C 
ATOM     24  O   UNL     1       1.272   4.221  19.009  0.00  0.00    +0.000 OA
ENDBRANCH  16  24
ENDBRANCH  12  22
ENDBRANCH   1  13
BRANCH   8  25
ATOM     25  C   UNL     1      -2.041  10.797  16.805  0.00  0.00    +0.000 C 
BRANCH  25  26
ATOM     26  C   UNL     1      -3.189  11.126  15.836  0.00  0.00    +0.000 C 
BRANCH  26  27
ATOM     27  O   UNL     1      -4.157  11.941  16.504  0.00  0.00    +0.000 OA
ATOM     28  H   UNL     1      -3.842  11.969  17.433  0.00  0.00    +0.000 HD
ENDBRANCH  26  27
ENDBRANCH  25  26
ENDBRANCH   8  25
TORSDOF 6
ENDMDL
MODEL 5
REMARK VINA RESULT:      -7.1      1.414      1.613
REMARK  Name = 
REMARK  7 active torsions:
REMARK  status: ('A' for Active; 'I' for Inactive)
REMARK    1  A    between atoms: C_1  and  O_2
REMARK    2  A    between atoms: O_2  and  C_3
REMARK    3  A    between atoms: C_9  and  N_10
REMARK    4  A    between atoms: C_11  and  C_13
REMARK    5  A    between atoms: N_20  and  C_21
REMARK    6  A    between atoms: C_21  and  C_22
REMARK    7  A    between atoms: C_22  and  O_23
REMARK                            x       y       z     vdW  Elec       q    Type
REMARK                         _______ _______ _______ _____ _____    ______ ____
ROOT
ATOM      1  C   UNL     1       0.989   8.873  20.652  0.00  0.00    +0.000 A 
ATOM      2  C   UNL     1       1.213   8.860  22.024  0.00  0.00    +0.000 A 
ATOM      3  S   UNL     1       0.290   9.998  22.881  0.00  0.00    +0.000 S 
ATOM      4  C   UNL     1      -0.467  10.538  21.445  0.00  0.00    +0.000 A 
ATOM      5  C   UNL     1      -1.438  11.534  21.325  0.00  0.00    +0.000 A 
ATOM      6  C   UNL     1      -1.938  11.767  20.053  0.00  0.00    +0.000 A 
ATOM      7  C   UNL     1      -1.485  11.013  18.974  0.00  0.00    +0.000 A 
ATOM      8  N   UNL     1      -2.175  11.196  17.766  0.00  0.00    +0.000 N 
ATOM      9  N   UNL     1      -0.521  10.078  19.074  0.00  0.00    +0.000 NA
ATOM     10  C   UNL     1      -0.016   9.841  20.319  0.00  0.00    +0.000 A 
ATOM     11  H   UNL     1      -2.122  12.164  17.462  0.00  0.00    +0.000 HD
ENDROOT
BRANCH   1  13
ATOM     12  N   UNL     1       2.074   6.701  20.331  0.00  0.00    +0.000 N 
ATOM     13  C   UNL     1       1.727   7.940  19.803  0.00  0.00    +0.000 C 
ATOM     14  O   UNL     1       1.985   8.279  18.647  0.00  0.00    +0.000 OA
ATOM     15  H   UNL     1       1.657   6.432  21.220  0.00  0.00    +0.000 HD
BRANCH  12  22
ATOM     16  C   UNL     1       2.914   4.392  20.156  0.00  0.00    +0.000 A 
ATOM     17  C   UNL     1       3.580   3.395  19.417  0.00  0.00    +0.000 A 
ATOM     18  C   UNL     1       4.225   3.700  18.217  0.00  0.00    +0.000 A 
ATOM     19  C   UNL     1       4.210   5.004  17.753  0.00  0.00    +0.000 A 
ATOM     20 CL   UNL     1       5.050   5.405  16.304  0.00  0.00    +0.000 Cl
ATOM     21  C   UNL     1       3.523   5.996  18.455  0.00  0.00    +0.000 A 
ATOM     22  C   UNL     1       2.833   5.705  19.642  0.00  0.00    +0.000 A 
BRANCH  16  24
ATOM     23  C   UNL     1       1.562   2.923  21.442  0.00  0.00    +0.000 C 
ATOM     24  O   UNL     1       2.308   4.141  21.369  0.00  0.00    +0.000 OA
ENDBRANCH  16  24
ENDBRANCH  12  22
ENDBRANCH   1  13
BRANCH   8  25
ATOM     25  C   UNL     1      -1.911  10.222  16.704  0.00  0.00    +0.000 C 
BRANCH  25  26
ATOM     26  C   UNL     1      -2.998  10.335  15.622  0.00  0.00    +0.000 C 
BRANCH  26  27
ATOM     27  O   UNL     1      -3.289  11.715  15.381  0.00  0.00    +0.000 OA
ATOM     28  H   UNL     1      -3.840  11.703  14.570  0.00  0.00    +0.000 HD
ENDBRANCH  26  27
ENDBRANCH  25  26
ENDBRANCH   8  25
TORSDOF 6
ENDMDL
MODEL 6
REMARK VINA RESULT:      -7.1      3.541      7.867
REMARK  Name = 
REMARK  7 active torsions:
REMARK  status: ('A' for Active; 'I' for Inactive)
REMARK    1  A    between atoms: C_1  and  O_2
REMARK    2  A    between atoms: O_2  and  C_3
REMARK    3  A    between atoms: C_9  and  N_10
REMARK    4  A    between atoms: C_11  and  C_13
REMARK    5  A    between atoms: N_20  and  C_21
REMARK    6  A    between atoms: C_21  and  C_22
REMARK    7  A    between atoms: C_22  and  O_23
REMARK                            x       y       z     vdW  Elec       q    Type
REMARK                         _______ _______ _______ _____ _____    ______ ____
ROOT
ATOM      1  C   UNL     1       3.193   6.645  18.342  0.00  0.00    +0.000 A 
ATOM      2  C   UNL     1       4.030   7.489  17.622  0.00  0.00    +0.000 A 
ATOM      3  S   UNL     1       5.056   6.680  16.540  0.00  0.00    +0.000 S 
ATOM      4  C   UNL     1       4.401   5.161  16.977  0.00  0.00    +0.000 A 
ATOM      5  C   UNL     1       4.755   3.910  16.470  0.00  0.00    +0.000 A 
ATOM      6  C   UNL     1       4.047   2.820  16.950  0.00  0.00    +0.000 A 
ATOM      7  C   UNL     1       3.026   3.001  17.877  0.00  0.00    +0.000 A 
ATOM      8  N   UNL     1       2.251   1.868  18.166  0.00  0.00    +0.000 N 
ATOM      9  N   UNL     1       2.703   4.199  18.402  0.00  0.00    +0.000 NA
ATOM     10  C   UNL     1       3.395   5.282  17.943  0.00  0.00    +0.000 A 
ATOM     11  H   UNL     1       2.828   1.121  18.542  0.00  0.00    +0.000 HD
ENDROOT
BRANCH   1  13
ATOM     12  N   UNL     1       1.829   8.529  19.109  0.00  0.00    +0.000 N 
ATOM     13  C   UNL     1       2.262   7.223  19.310  0.00  0.00    +0.000 C 
ATOM     14  O   UNL     1       1.879   6.519  20.245  0.00  0.00    +0.000 OA
ATOM     15  H   UNL     1       2.043   8.966  18.215  0.00  0.00    +0.000 HD
BRANCH  12  22
ATOM     16  C   UNL     1       0.007  10.147  19.469  0.00  0.00    +0.000 A 
ATOM     17  C   UNL     1      -0.911  10.768  20.338  0.00  0.00    +0.000 A 
ATOM     18  C   UNL     1      -0.848  10.561  21.718  0.00  0.00    +0.000 A 
ATOM     19  C   UNL     1       0.135   9.735  22.234  0.00  0.00    +0.000 A 
ATOM     20 CL   UNL     1       0.260   9.517  23.937  0.00  0.00    +0.000 Cl
ATOM     21  C   UNL     1       1.029   9.084  21.382  0.00  0.00    +0.000 A 
ATOM     22  C   UNL     1       0.959   9.243  19.990  0.00  0.00    +0.000 A 
BRANCH  16  24
ATOM     23  C   UNL     1      -1.218  10.063  17.436  0.00  0.00    +0.000 C 
ATOM     24  O   UNL     1       0.009  10.364  18.107  0.00  0.00    +0.000 OA
ENDBRANCH  16  24
ENDBRANCH  12  22
ENDBRANCH   1  13
BRANCH   8  25
ATOM     25  C   UNL     1       1.009   2.092  18.911  0.00  0.00    +0.000 C 
BRANCH  25  26
ATOM     26  C   UNL     1       1.341   2.454  20.368  0.00  0.00    +0.000 C 
BRANCH  26  27
ATOM     27  O   UNL     1       0.744   3.713  20.694  0.00  0.00    +0.000 OA
ATOM     28  H   UNL     1       0.025   3.812  20.034  0.00  0.00    +0.000 HD
ENDBRANCH  26  27
ENDBRANCH  25  26
ENDBRANCH   8  25
TORSDOF 6
ENDMDL
MODEL 7
REMARK VINA RESULT:      -7.0      3.674      8.083
REMARK  Name = 
REMARK  7 active torsions:
REMARK  status: ('A' for Active; 'I' for Inactive)
REMARK    1  A    between atoms: C_1  and  O_2
REMARK    2  A    between atoms: O_2  and  C_3
REMARK    3  A    between atoms: C_9  and  N_10
REMARK    4  A    between atoms: C_11  and  C_13
REMARK    5  A    between atoms: N_20  and  C_21
REMARK    6  A    between atoms: C_21  and  C_22
REMARK    7  A    between atoms: C_22  and  O_23
REMARK                            x       y       z     vdW  Elec       q    Type
REMARK                         _______ _______ _______ _____ _____    ______ ____
ROOT
ATOM      1  C   UNL     1       2.662   6.464  18.123  0.00  0.00    +0.000 A 
ATOM      2  C   UNL     1       1.832   5.353  18.211  0.00  0.00    +0.000 A 
ATOM      3  S   UNL     1       2.518   3.931  17.588  0.00  0.00    +0.000 S 
ATOM      4  C   UNL     1       3.970   4.746  17.196  0.00  0.00    +0.000 A 
ATOM      5  C   UNL     1       5.114   4.201  16.609  0.00  0.00    +0.000 A 
ATOM      6  C   UNL     1       6.189   5.055  16.428  0.00  0.00    +0.000 A 
ATOM      7  C   UNL     1       6.106   6.382  16.840  0.00  0.00    +0.000 A 
ATOM      8  N   UNL     1       7.300   7.118  16.781  0.00  0.00    +0.000 N 
ATOM      9  N   UNL     1       4.995   6.927  17.369  0.00  0.00    +0.000 NA
ATOM     10  C   UNL     1       3.926   6.099  17.550  0.00  0.00    +0.000 A 
ATOM     11  H   UNL     1       7.658   7.151  15.831  0.00  0.00    +0.000 HD
ENDROOT
BRANCH   1  13
ATOM     12  N   UNL     1       1.834   8.730  17.699  0.00  0.00    +0.000 N 
ATOM     13  C   UNL     1       2.183   7.751  18.624  0.00  0.00    +0.000 C 
ATOM     14  O   UNL     1       2.081   7.904  19.842  0.00  0.00    +0.000 OA
ATOM     15  H   UNL     1       1.767   8.454  16.722  0.00  0.00    +0.000 HD
BRANCH  12  22
ATOM     16  C   UNL     1       0.016  10.347  18.075  0.00  0.00    +0.000 A 
ATOM     17  C   UNL     1      -0.407  11.622  18.504  0.00  0.00    +0.000 A 
ATOM     18  C   UNL     1       0.519  12.617  18.820  0.00  0.00    +0.000 A 
ATOM     19  C   UNL     1       1.871  12.346  18.705  0.00  0.00    +0.000 A 
ATOM     20 CL   UNL     1       3.022  13.583  19.037  0.00  0.00    +0.000 Cl
ATOM     21  C   UNL     1       2.306  11.077  18.316  0.00  0.00    +0.000 A 
ATOM     22  C   UNL     1       1.395  10.047  18.034  0.00  0.00    +0.000 A 
BRANCH  16  24
ATOM     23  C   UNL     1      -2.096   9.806  17.134  0.00  0.00    +0.000 C 
ATOM     24  O   UNL     1      -0.866   9.354  17.706  0.00  0.00    +0.000 OA
ENDBRANCH  16  24
ENDBRANCH  12  22
ENDBRANCH   1  13
BRANCH   8  25
ATOM     25  C   UNL     1       7.308   8.414  17.466  0.00  0.00    +0.000 C 
BRANCH  25  26
ATOM     26  C   UNL     1       8.505   8.477  18.430  0.00  0.00    +0.000 C 
BRANCH  26  27
ATOM     27  O   UNL     1       8.617   7.235  19.131  0.00  0.00    +0.000 OA
ATOM     28  H   UNL     1       8.315   6.567  18.480  0.00  0.00    +0.000 HD
ENDBRANCH  26  27
ENDBRANCH  25  26
ENDBRANCH   8  25
TORSDOF 6
ENDMDL
MODEL 8
REMARK VINA RESULT:      -7.0      3.712      7.918
REMARK  Name = 
REMARK  7 active torsions:
REMARK  status: ('A' for Active; 'I' for Inactive)
REMARK    1  A    between atoms: C_1  and  O_2
REMARK    2  A    between atoms: O_2  and  C_3
REMARK    3  A    between atoms: C_9  and  N_10
REMARK    4  A    between atoms: C_11  and  C_13
REMARK    5  A    between atoms: N_20  and  C_21
REMARK    6  A    between atoms: C_21  and  C_22
REMARK    7  A    between atoms: C_22  and  O_23
REMARK                            x       y       z     vdW  Elec       q    Type
REMARK                         _______ _______ _______ _____ _____    ______ ____
ROOT
ATOM      1  C   UNL     1       2.324   6.408  19.814  0.00  0.00    +0.000 A 
ATOM      2  C   UNL     1       1.603   5.593  20.677  0.00  0.00    +0.000 A 
ATOM      3  S   UNL     1       2.228   4.022  20.823  0.00  0.00    +0.000 S 
ATOM      4  C   UNL     1       3.511   4.381  19.749  0.00  0.00    +0.000 A 
ATOM      5  C   UNL     1       4.535   3.525  19.339  0.00  0.00    +0.000 A 
ATOM      6  C   UNL     1       5.493   4.060  18.492  0.00  0.00    +0.000 A 
ATOM      7  C   UNL     1       5.417   5.393  18.103  0.00  0.00    +0.000 A 
ATOM      8  N   UNL     1       6.522   5.890  17.395  0.00  0.00    +0.000 N 
ATOM      9  N   UNL     1       4.411   6.215  18.460  0.00  0.00    +0.000 NA
ATOM     10  C   UNL     1       3.458   5.702  19.290  0.00  0.00    +0.000 A 
ATOM     11  H   UNL     1       6.668   5.365  16.538  0.00  0.00    +0.000 HD
ENDROOT
BRANCH   1  13
ATOM     12  N   UNL     1       0.917   8.307  20.456  0.00  0.00    +0.000 N 
ATOM     13  C   UNL     1       1.883   7.786  19.602  0.00  0.00    +0.000 C 
ATOM     14  O   UNL     1       2.407   8.435  18.696  0.00  0.00    +0.000 OA
ATOM     15  H   UNL     1       0.682   7.770  21.288  0.00  0.00    +0.000 HD
BRANCH  12  22
ATOM     16  C   UNL     1       0.453  10.523  21.424  0.00  0.00    +0.000 A 
ATOM     17  C   UNL     1      -0.016  11.843  21.268  0.00  0.00    +0.000 A 
ATOM     18  C   UNL     1      -0.644  12.248  20.088  0.00  0.00    +0.000 A 
ATOM     19  C   UNL     1      -0.808  11.335  19.061  0.00  0.00    +0.000 A 
ATOM     20 CL   UNL     1      -1.631  11.806  17.624  0.00  0.00    +0.000 Cl
ATOM     21  C   UNL     1      -0.317  10.034  19.187  0.00  0.00    +0.000 A 
ATOM     22  C   UNL     1       0.354   9.616  20.346  0.00  0.00    +0.000 A 
BRANCH  16  24
ATOM     23  C   UNL     1       0.133   9.491  23.539  0.00  0.00    +0.000 C 
ATOM     24  O   UNL     1       1.032  10.071  22.590  0.00  0.00    +0.000 OA
ENDBRANCH  16  24
ENDBRANCH  12  22
ENDBRANCH   1  13
BRANCH   8  25
ATOM     25  C   UNL     1       6.595   7.344  17.224  0.00  0.00    +0.000 C 
BRANCH  25  26
ATOM     26  C   UNL     1       7.942   7.857  17.760  0.00  0.00    +0.000 C 
BRANCH  26  27
ATOM     27  O   UNL     1       8.334   7.074  18.892  0.00  0.00    +0.000 OA
ATOM     28  H   UNL     1       7.492   6.908  19.368  0.00  0.00    +0.000 HD
ENDBRANCH  26  27
ENDBRANCH  25  26
ENDBRANCH   8  25
TORSDOF 6
ENDMDL
MODEL 9
REMARK VINA RESULT:      -7.0      3.270      7.964
REMARK  Name = 
REMARK  7 active torsions:
REMARK  status: ('A' for Active; 'I' for Inactive)
REMARK    1  A    between atoms: C_1  and  O_2
REMARK    2  A    between atoms: O_2  and  C_3
REMARK    3  A    between atoms: C_9  and  N_10
REMARK    4  A    between atoms: C_11  and  C_13
REMARK    5  A    between atoms: N_20  and  C_21
REMARK    6  A    between atoms: C_21  and  C_22
REMARK    7  A    between atoms: C_22  and  O_23
REMARK                            x       y       z     vdW  Elec       q    Type
REMARK                         _______ _______ _______ _____ _____    ______ ____
ROOT
ATOM      1  C   UNL     1       3.077   7.233  18.022  0.00  0.00    +0.000 A 
ATOM      2  C   UNL     1       3.863   7.804  17.028  0.00  0.00    +0.000 A 
ATOM      3  S   UNL     1       4.913   6.708  16.268  0.00  0.00    +0.000 S 
ATOM      4  C   UNL     1       4.336   5.415  17.227  0.00  0.00    +0.000 A 
ATOM      5  C   UNL     1       4.743   4.080  17.180  0.00  0.00    +0.000 A 
ATOM      6  C   UNL     1       4.094   3.200  18.031  0.00  0.00    +0.000 A 
ATOM      7  C   UNL     1       3.078   3.654  18.866  0.00  0.00    +0.000 A 
ATOM      8  N   UNL     1       2.361   2.664  19.555  0.00  0.00    +0.000 N 
ATOM      9  N   UNL     1       2.706   4.946  18.948  0.00  0.00    +0.000 NA
ATOM     10  C   UNL     1       3.339   5.826  18.119  0.00  0.00    +0.000 A 
ATOM     11  H   UNL     1       2.979   2.120  20.151  0.00  0.00    +0.000 HD
ENDROOT
BRANCH   1  13
ATOM     12  N   UNL     1       1.548   9.146  18.083  0.00  0.00    +0.000 N 
ATOM     13  C   UNL     1       2.133   8.076  18.753  0.00  0.00    +0.000 C 
ATOM     14  O   UNL     1       1.873   7.785  19.922  0.00  0.00    +0.000 OA
ATOM     15  H   UNL     1       1.672   9.196  17.075  0.00  0.00    +0.000 HD
BRANCH  12  22
ATOM     16  C   UNL     1      -0.686  10.172  18.215  0.00  0.00    +0.000 A 
ATOM     17  C   UNL     1      -1.594  11.027  18.873  0.00  0.00    +0.000 A 
ATOM     18  C   UNL     1      -1.178  11.841  19.928  0.00  0.00    +0.000 A 
ATOM     19  C   UNL     1       0.146  11.807  20.328  0.00  0.00    +0.000 A 
ATOM     20 CL   UNL     1       0.683  12.848  21.591  0.00  0.00    +0.000 Cl
ATOM     21  C   UNL     1       1.049  10.940  19.711  0.00  0.00    +0.000 A 
ATOM     22  C   UNL     1       0.646  10.082  18.675  0.00  0.00    +0.000 A 
BRANCH  16  24
ATOM     23  C   UNL     1      -2.262   9.764  16.486  0.00  0.00    +0.000 C 
ATOM     24  O   UNL     1      -1.045   9.390  17.138  0.00  0.00    +0.000 OA
ENDBRANCH  16  24
ENDBRANCH  12  22
ENDBRANCH   1  13
BRANCH   8  25
ATOM     25  C   UNL     1       1.120   3.085  20.210  0.00  0.00    +0.000 C 
BRANCH  25  26
ATOM     26  C   UNL     1       1.252   2.898  21.730  0.00  0.00    +0.000 C 
BRANCH  26  27
ATOM     27  O   UNL     1       2.602   2.549  22.051  0.00  0.00    +0.000 OA
ATOM     28  H   UNL     1       2.542   2.176  22.957  0.00  0.00    +0.000 HD
ENDBRANCH  26  27
ENDBRANCH  25  26
ENDBRANCH   8  25
TORSDOF 6
ENDMDL
