MODEL 1
REMARK VINA RESULT:      -7.2      0.000      0.000
REMARK  Name = 
REMARK  10 active torsions:
REMARK  status: ('A' for Active; 'I' for Inactive)
REMARK    1  A    between atoms: N_1  and  C_2
REMARK    2  A    between atoms: C_2  and  C_3
REMARK    3  A    between atoms: C_3  and  C_4
REMARK    4  A    between atoms: C_4  and  C_5
REMARK    5  A    between atoms: C_5  and  C_6
REMARK    6  A    between atoms: C_6  and  O_7
REMARK    7  A    between atoms: O_7  and  C_8
REMARK    8  A    between atoms: N_10  and  C_11
REMARK    9  A    between atoms: C_11  and  C_12
REMARK   10  A    between atoms: C_21  and  N_22
REMARK                            x       y       z     vdW  Elec       q    Type
REMARK                         _______ _______ _______ _____ _____    ______ ____
ROOT
ATOM      1  C   UNL     1       2.652   5.927  19.980  0.00  0.00    +0.000 A 
ATOM      2  N   UNL     1       3.355   5.675  18.855  0.00  0.00    +0.000 NA
ATOM      3  N   UNL     1       3.237   6.738  18.063  0.00  0.00    +0.000 N 
ATOM      4  C   UNL     1       2.476   7.664  18.692  0.00  0.00    +0.000 A 
ATOM      5  C   UNL     1       2.097   8.945  18.284  0.00  0.00    +0.000 A 
ATOM      6  C   UNL     1       1.309   9.709  19.174  0.00  0.00    +0.000 A 
ATOM      7  C   UNL     1       0.918   9.186  20.443  0.00  0.00    +0.000 A 
ATOM      8  C   UNL     1       1.317   7.882  20.801  0.00  0.00    +0.000 A 
ATOM      9  C   UNL     1       2.090   7.168  19.900  0.00  0.00    +0.000 A 
ENDROOT
BRANCH   7  10
ATOM     10  N   UNL     1       0.148   9.966  21.356  0.00  0.00    +0.000 N 
ATOM     11  O   UNL     1      -0.776  10.617  20.969  0.00  0.00    +0.000 OA
ATOM     12  O   UNL     1       0.472  10.012  22.632  0.00  0.00    +0.000 OA
ENDBRANCH   7  10
BRANCH   1  13
ATOM     13  O   UNL     1       2.548   5.107  21.041  0.00  0.00    +0.000 OA
BRANCH  13  14
ATOM     14  C   UNL     1       2.075   3.818  20.966  0.00  0.00    +0.000 C 
BRANCH  14  15
ATOM     15  C   UNL     1       0.791   3.815  20.145  0.00  0.00    +0.000 C 
BRANCH  15  16
ATOM     16  C   UNL     1       0.870   2.755  19.040  0.00  0.00    +0.000 C 
BRANCH  16  17
ATOM     17  C   UNL     1       2.142   1.916  19.163  0.00  0.00    +0.000 C 
BRANCH  17  18
ATOM     18  C   UNL     1       3.051   2.145  17.954  0.00  0.00    +0.000 C 
BRANCH  18  19
ATOM     19  N   UNL     1       4.346   2.660  18.387  0.00  0.00    +0.000 NA
ATOM     20  H   UNL     1       4.233   3.080  19.337  0.00  0.00    +0.000 HD
ATOM     21  H   UNL     1       4.644   3.421  17.734  0.00  0.00    +0.000 HD
ENDBRANCH  18  19
ENDBRANCH  17  18
ENDBRANCH  16  17
ENDBRANCH  15  16
ENDBRANCH  14  15
ENDBRANCH  13  14
ENDBRANCH   1  13
BRANCH   3  22
ATOM     22  C   UNL     1       3.941   6.861  16.789  0.00  0.00    +0.000 C 
BRANCH  22  23
ATOM     23  C   UNL     1       5.219   6.069  16.859  0.00  0.00    +0.000 A 
ATOM     24  C   UNL     1       5.414   4.982  15.986  0.00  0.00    +0.000 A 
ATOM     25  C   UNL     1       6.581   4.218  16.058  0.00  0.00    +0.000 A 
ATOM     26  C   UNL     1       7.566   4.535  16.994  0.00  0.00    +0.000 A 
ATOM     27  C   UNL     1       7.387   5.621  17.857  0.00  0.00    +0.000 A 
ATOM     28  C   UNL     1       6.218   6.389  17.790  0.00  0.00    +0.000 A 
ENDBRANCH  22  23
ENDBRANCH   3  22
TORSDOF 10
ENDMDL
MODEL 2
REMARK VINA RESULT:      -7.1      1.068      1.419
REMARK  Name = 
REMARK  10 active torsions:
REMARK  status: ('A' for Active; 'I' for Inactive)
REMARK    1  A    between atoms: N_1  and  C_2
REMARK    2  A    between atoms: C_2  and  C_3
REMARK    3  A    between atoms: C_3  and  C_4
REMARK    4  A    between atoms: C_4  and  C_5
REMARK    5  A    between atoms: C_5  and  C_6
REMARK    6  A    between atoms: C_6  and  O_7
REMARK    7  A    between atoms: O_7  and  C_8
REMARK    8  A    between atoms: N_10  and  C_11
REMARK    9  A    between atoms: C_11  and  C_12
REMARK   10  A    between atoms: C_21  and  N_22
REMARK                            x       y       z     vdW  Elec       q    Type
REMARK                         _______ _______ _______ _____ _____    ______ ____
ROOT
ATOM      1  C   UNL     1       2.612   5.398  20.236  0.00  0.00    +0.000 A 
ATOM      2  N   UNL     1       3.461   4.994  19.267  0.00  0.00    +0.000 NA
ATOM      3  N   UNL     1       3.537   5.973  18.369  0.00  0.00    +0.000 N 
ATOM      4  C   UNL     1       2.752   6.997  18.776  0.00  0.00    +0.000 A 
ATOM      5  C   UNL     1       2.527   8.247  18.194  0.00  0.00    +0.000 A 
ATOM      6  C   UNL     1       1.664   9.138  18.870  0.00  0.00    +0.000 A 
ATOM      7  C   UNL     1       1.049   8.772  20.105  0.00  0.00    +0.000 A 
ATOM      8  C   UNL     1       1.300   7.493  20.644  0.00  0.00    +0.000 A 
ATOM      9  C   UNL     1       2.153   6.651  19.949  0.00  0.00    +0.000 A 
ENDROOT
BRANCH   7  10
ATOM     10  N   UNL     1       0.201   9.681  20.805  0.00  0.00    +0.000 N 
ATOM     11  O   UNL     1      -0.007  10.774  20.370  0.00  0.00    +0.000 OA
ATOM     12  O   UNL     1      -0.330   9.341  21.961  0.00  0.00    +0.000 OA
ENDBRANCH   7  10
BRANCH   1  13
ATOM     13  O   UNL     1       2.292   4.699  21.339  0.00  0.00    +0.000 OA
BRANCH  13  14
ATOM     14  C   UNL     1       1.633   3.493  21.315  0.00  0.00    +0.000 C 
BRANCH  14  15
ATOM     15  C   UNL     1       0.886   3.369  19.992  0.00  0.00    +0.000 C 
BRANCH  15  16
ATOM     16  C   UNL     1       1.241   2.046  19.303  0.00  0.00    +0.000 C 
BRANCH  16  17
ATOM     17  C   UNL     1       2.157   2.273  18.100  0.00  0.00    +0.000 C 
BRANCH  17  18
ATOM     18  C   UNL     1       3.456   1.481  18.263  0.00  0.00    +0.000 C 
BRANCH  18  19
ATOM     19  N   UNL     1       4.543   2.370  18.661  0.00  0.00    +0.000 NA
ATOM     20  H   UNL     1       4.758   3.005  17.860  0.00  0.00    +0.000 HD
ATOM     21  H   UNL     1       5.396   1.797  18.853  0.00  0.00    +0.000 HD
ENDBRANCH  18  19
ENDBRANCH  17  18
ENDBRANCH  16  17
ENDBRANCH  15  16
ENDBRANCH  14  15
ENDBRANCH  13  14
ENDBRANCH   1  13
BRANCH   3  22
ATOM     22  C   UNL     1       4.436   5.927  17.217  0.00  0.00    +0.000 C 
BRANCH  22  23
ATOM     23  C   UNL     1       5.809   6.360  17.652  0.00  0.00    +0.000 A 
ATOM     24  C   UNL     1       6.514   5.596  18.601  0.00  0.00    +0.000 A 
ATOM     25  C   UNL     1       7.778   6.000  19.037  0.00  0.00    +0.000 A 
ATOM     26  C   UNL     1       8.352   7.165  18.526  0.00  0.00    +0.000 A 
ATOM     27  C   UNL     1       7.665   7.925  17.574  0.00  0.00    +0.000 A 
ATOM     28  C   UNL     1       6.398   7.524  17.135  0.00  0.00    +0.000 A 
ENDBRANCH  22  23
ENDBRANCH   3  22
TORSDOF 10
ENDMDL
MODEL 3
REMARK VINA RESULT:      -7.1      4.597      8.426
REMARK  Name = 
REMARK  10 active torsions:
REMARK  status: ('A' for Active; 'I' for Inactive)
REMARK    1  A    between atoms: N_1  and  C_2
REMARK    2  A    between atoms: C_2  and  C_3
REMARK    3  A    between atoms: C_3  and  C_4
REMARK    4  A    between atoms: C_4  and  C_5
REMARK    5  A    between atoms: C_5  and  C_6
REMARK    6  A    between atoms: C_6  and  O_7
REMARK    7  A    between atoms: O_7  and  C_8
REMARK    8  A    between atoms: N_10  and  C_11
REMARK    9  A    between atoms: C_11  and  C_12
REMARK   10  A    between atoms: C_21  and  N_22
REMARK                            x       y       z     vdW  Elec       q    Type
REMARK                         _______ _______ _______ _____ _____    ______ ____
ROOT
ATOM      1  C   UNL     1       7.234   5.967  18.231  0.00  0.00    +0.000 A 
ATOM      2  N   UNL     1       6.496   5.375  19.195  0.00  0.00    +0.000 NA
ATOM      3  N   UNL     1       5.738   4.453  18.607  0.00  0.00    +0.000 N 
ATOM      4  C   UNL     1       6.007   4.451  17.281  0.00  0.00    +0.000 A 
ATOM      5  C   UNL     1       5.493   3.648  16.259  0.00  0.00    +0.000 A 
ATOM      6  C   UNL     1       5.988   3.857  14.952  0.00  0.00    +0.000 A 
ATOM      7  C   UNL     1       6.977   4.852  14.690  0.00  0.00    +0.000 A 
ATOM      8  C   UNL     1       7.453   5.644  15.756  0.00  0.00    +0.000 A 
ATOM      9  C   UNL     1       6.943   5.405  17.022  0.00  0.00    +0.000 A 
ENDROOT
BRANCH   7  10
ATOM     10  N   UNL     1       7.499   5.045  13.377  0.00  0.00    +0.000 N 
ATOM     11  O   UNL     1       7.056   4.433  12.451  0.00  0.00    +0.000 OA
ATOM     12  O   UNL     1       8.506   5.870  13.175  0.00  0.00    +0.000 OA
ENDBRANCH   7  10
BRANCH   1  13
ATOM     13  O   UNL     1       8.148   6.934  18.425  0.00  0.00    +0.000 OA
BRANCH  13  14
ATOM     14  C   UNL     1       8.025   8.211  17.932  0.00  0.00    +0.000 C 
BRANCH  14  15
ATOM     15  C   UNL     1       8.730   9.173  18.882  0.00  0.00    +0.000 C 
BRANCH  15  16
ATOM     16  C   UNL     1       9.080  10.477  18.155  0.00  0.00    +0.000 C 
BRANCH  16  17
ATOM     17  C   UNL     1       9.810  11.451  19.080  0.00  0.00    +0.000 C 
BRANCH  17  18
ATOM     18  C   UNL     1      11.280  11.573  18.673  0.00  0.00    +0.000 C 
BRANCH  18  19
ATOM     19  N   UNL     1      11.387  11.891  17.254  0.00  0.00    +0.000 NA
ATOM     20  H   UNL     1      12.368  11.707  16.948  0.00  0.00    +0.000 HD
ATOM     21  H   UNL     1      11.195  12.910  17.119  0.00  0.00    +0.000 HD
ENDBRANCH  18  19
ENDBRANCH  17  18
ENDBRANCH  16  17
ENDBRANCH  15  16
ENDBRANCH  14  15
ENDBRANCH  13  14
ENDBRANCH   1  13
BRANCH   3  22
ATOM     22  C   UNL     1       4.869   3.546  19.354  0.00  0.00    +0.000 C 
BRANCH  22  23
ATOM     23  C   UNL     1       3.606   4.275  19.726  0.00  0.00    +0.000 A 
ATOM     24  C   UNL     1       3.482   5.647  19.435  0.00  0.00    +0.000 A 
ATOM     25  C   UNL     1       2.329   6.345  19.799  0.00  0.00    +0.000 A 
ATOM     26  C   UNL     1       1.287   5.680  20.450  0.00  0.00    +0.000 A 
ATOM     27  C   UNL     1       1.396   4.315  20.731  0.00  0.00    +0.000 A 
ATOM     28  C   UNL     1       2.551   3.611  20.369  0.00  0.00    +0.000 A 
ENDBRANCH  22  23
ENDBRANCH   3  22
TORSDOF 10
ENDMDL
MODEL 4
REMARK VINA RESULT:      -7.0      2.397      5.781
REMARK  Name = 
REMARK  10 active torsions:
REMARK  status: ('A' for Active; 'I' for Inactive)
REMARK    1  A    between atoms: N_1  and  C_2
REMARK    2  A    between atoms: C_2  and  C_3
REMARK    3  A    between atoms: C_3  and  C_4
REMARK    4  A    between atoms: C_4  and  C_5
REMARK    5  A    between atoms: C_5  and  C_6
REMARK    6  A    between atoms: C_6  and  O_7
REMARK    7  A    between atoms: O_7  and  C_8
REMARK    8  A    between atoms: N_10  and  C_11
REMARK    9  A    between atoms: C_11  and  C_12
REMARK   10  A    between atoms: C_21  and  N_22
REMARK                            x       y       z     vdW  Elec       q    Type
REMARK                         _______ _______ _______ _____ _____    ______ ____
ROOT
ATOM      1  C   UNL     1       2.991   5.692  19.909  0.00  0.00    +0.000 A 
ATOM      2  N   UNL     1       2.001   6.519  19.510  0.00  0.00    +0.000 NA
ATOM      3  N   UNL     1       2.432   7.166  18.431  0.00  0.00    +0.000 N 
ATOM      4  C   UNL     1       3.683   6.740  18.140  0.00  0.00    +0.000 A 
ATOM      5  C   UNL     1       4.536   7.096  17.092  0.00  0.00    +0.000 A 
ATOM      6  C   UNL     1       5.793   6.455  17.025  0.00  0.00    +0.000 A 
ATOM      7  C   UNL     1       6.173   5.478  17.993  0.00  0.00    +0.000 A 
ATOM      8  C   UNL     1       5.280   5.164  19.039  0.00  0.00    +0.000 A 
ATOM      9  C   UNL     1       4.057   5.814  19.066  0.00  0.00    +0.000 A 
ENDROOT
BRANCH   7  10
ATOM     10  N   UNL     1       7.430   4.808  17.911  0.00  0.00    +0.000 N 
ATOM     11  O   UNL     1       8.108   4.666  18.884  0.00  0.00    +0.000 OA
ATOM     12  O   UNL     1       7.878   4.375  16.751  0.00  0.00    +0.000 OA
ENDBRANCH   7  10
BRANCH   1  13
ATOM     13  O   UNL     1       2.932   4.844  20.952  0.00  0.00    +0.000 OA
BRANCH  13  14
ATOM     14  C   UNL     1       2.710   3.493  20.826  0.00  0.00    +0.000 C 
BRANCH  14  15
ATOM     15  C   UNL     1       1.207   3.249  20.755  0.00  0.00    +0.000 C 
BRANCH  15  16
ATOM     16  C   UNL     1       0.816   2.742  19.362  0.00  0.00    +0.000 C 
BRANCH  16  17
ATOM     17  C   UNL     1       2.035   2.229  18.594  0.00  0.00    +0.000 C 
BRANCH  17  18
ATOM     18  C   UNL     1       2.269   3.074  17.340  0.00  0.00    +0.000 C 
BRANCH  18  19
ATOM     19  N   UNL     1       1.274   4.138  17.254  0.00  0.00    +0.000 NA
ATOM     20  H   UNL     1       1.205   4.599  18.189  0.00  0.00    +0.000 HD
ATOM     21  H   UNL     1       0.343   3.714  17.036  0.00  0.00    +0.000 HD
ENDBRANCH  18  19
ENDBRANCH  17  18
ENDBRANCH  16  17
ENDBRANCH  15  16
ENDBRANCH  14  15
ENDBRANCH  13  14
ENDBRANCH   1  13
BRANCH   3  22
ATOM     22  C   UNL     1       1.591   8.086  17.668  0.00  0.00    +0.000 C 
BRANCH  22  23
ATOM     23  C   UNL     1       1.486   9.387  18.416  0.00  0.00    +0.000 A 
ATOM     24  C   UNL     1       0.717   9.454  19.593  0.00  0.00    +0.000 A 
ATOM     25  C   UNL     1       0.584  10.660  20.284  0.00  0.00    +0.000 A 
ATOM     26  C   UNL     1       1.223  11.808  19.811  0.00  0.00    +0.000 A 
ATOM     27  C   UNL     1       2.000  11.748  18.650  0.00  0.00    +0.000 A 
ATOM     28  C   UNL     1       2.134  10.542  17.954  0.00  0.00    +0.000 A 
ENDBRANCH  22  23
ENDBRANCH   3  22
TORSDOF 10
ENDMDL
MODEL 5
REMARK VINA RESULT:      -7.0      4.785      8.494
REMARK  Name = 
REMARK  10 active torsions:
REMARK  status: ('A' for Active; 'I' for Inactive)
REMARK    1  A    between atoms: N_1  and  C_2
REMARK    2  A    between atoms: C_2  and  C_3
REMARK    3  A    between atoms: C_3  and  C_4
REMARK    4  A    between atoms: C_4  and  C_5
REMARK    5  A    between atoms: C_5  and  C_6
REMARK    6  A    between atoms: C_6  and  O_7
REMARK    7  A    between atoms: O_7  and  C_8
REMARK    8  A    between atoms: N_10  and  C_11
REMARK    9  A    between atoms: C_11  and  C_12
REMARK   10  A    between atoms: C_21  and  N_22
REMARK                            x       y       z     vdW  Elec       q    Type
REMARK                         _______ _______ _______ _____ _____    ______ ____
ROOT
ATOM      1  C   UNL     1       7.015   6.566  17.400  0.00  0.00    +0.000 A 
ATOM      2  N   UNL     1       6.462   6.035  18.512  0.00  0.00    +0.000 NA
ATOM      3  N   UNL     1       5.910   4.874  18.168  0.00  0.00    +0.000 N 
ATOM      4  C   UNL     1       6.127   4.665  16.848  0.00  0.00    +0.000 A 
ATOM      5  C   UNL     1       5.772   3.585  16.037  0.00  0.00    +0.000 A 
ATOM      6  C   UNL     1       6.162   3.630  14.680  0.00  0.00    +0.000 A 
ATOM      7  C   UNL     1       6.893   4.740  14.161  0.00  0.00    +0.000 A 
ATOM      8  C   UNL     1       7.216   5.811  15.020  0.00  0.00    +0.000 A 
ATOM      9  C   UNL     1       6.816   5.726  16.344  0.00  0.00    +0.000 A 
ENDROOT
BRANCH   7  10
ATOM     10  N   UNL     1       7.314   4.774  12.798  0.00  0.00    +0.000 N 
ATOM     11  O   UNL     1       6.962   3.927  12.033  0.00  0.00    +0.000 OA
ATOM     12  O   UNL     1       8.131   5.717  12.377  0.00  0.00    +0.000 OA
ENDBRANCH   7  10
BRANCH   1  13
ATOM     13  O   UNL     1       7.695   7.725  17.340  0.00  0.00    +0.000 OA
BRANCH  13  14
ATOM     14  C   UNL     1       8.442   8.228  18.379  0.00  0.00    +0.000 C 
BRANCH  14  15
ATOM     15  C   UNL     1       8.573   9.736  18.202  0.00  0.00    +0.000 C 
BRANCH  15  16
ATOM     16  C   UNL     1       9.251  10.358  19.429  0.00  0.00    +0.000 C 
BRANCH  16  17
ATOM     17  C   UNL     1      10.512  11.127  19.037  0.00  0.00    +0.000 C 
BRANCH  17  18
ATOM     18  C   UNL     1      10.949  12.051  20.176  0.00  0.00    +0.000 C 
BRANCH  18  19
ATOM     19  N   UNL     1      10.134  11.811  21.362  0.00  0.00    +0.000 NA
ATOM     20  H   UNL     1      10.599  11.072  21.936  0.00  0.00    +0.000 HD
ATOM     21  H   UNL     1       9.201  11.445  21.064  0.00  0.00    +0.000 HD
ENDBRANCH  18  19
ENDBRANCH  17  18
ENDBRANCH  16  17
ENDBRANCH  15  16
ENDBRANCH  14  15
ENDBRANCH  13  14
ENDBRANCH   1  13
BRANCH   3  22
ATOM     22  C   UNL     1       5.293   3.970  19.136  0.00  0.00    +0.000 C 
BRANCH  22  23
ATOM     23  C   UNL     1       3.842   3.791  18.780  0.00  0.00    +0.000 A 
ATOM     24  C   UNL     1       3.286   2.498  18.745  0.00  0.00    +0.000 A 
ATOM     25  C   UNL     1       1.949   2.312  18.388  0.00  0.00    +0.000 A 
ATOM     26  C   UNL     1       1.153   3.413  18.070  0.00  0.00    +0.000 A 
ATOM     27  C   UNL     1       1.692   4.703  18.114  0.00  0.00    +0.000 A 
ATOM     28  C   UNL     1       3.032   4.894  18.470  0.00  0.00    +0.000 A 
ENDBRANCH  22  23
ENDBRANCH   3  22
TORSDOF 10
ENDMDL
MODEL 6
REMARK VINA RESULT:      -7.0      4.826      8.520
REMARK  Name = 
REMARK  10 active torsions:
REMARK  status: ('A' for Active; 'I' for Inactive)
REMARK    1  A    between atoms: N_1  and  C_2
REMARK    2  A    between atoms: C_2  and  C_3
REMARK    3  A    between atoms: C_3  and  C_4
REMARK    4  A    between atoms: C_4  and  C_5
REMARK    5  A    between atoms: C_5  and  C_6
REMARK    6  A    between atoms: C_6  and  O_7
REMARK    7  A    between atoms: O_7  and  C_8
REMARK    8  A    between atoms: N_10  and  C_11
REMARK    9  A    between atoms: C_11  and  C_12
REMARK   10  A    between atoms: C_21  and  N_22
REMARK                            x       y       z     vdW  Elec       q    Type
REMARK                         _______ _______ _______ _____ _____    ______ ____
ROOT
ATOM      1  C   UNL     1       7.112   6.570  17.303  0.00  0.00    +0.000 A 
ATOM      2  N   UNL     1       6.558   6.101  18.442  0.00  0.00    +0.000 NA
ATOM      3  N   UNL     1       5.952   4.953  18.148  0.00  0.00    +0.000 N 
ATOM      4  C   UNL     1       6.135   4.690  16.833  0.00  0.00    +0.000 A 
ATOM      5  C   UNL     1       5.721   3.598  16.067  0.00  0.00    +0.000 A 
ATOM      6  C   UNL     1       6.087   3.579  14.703  0.00  0.00    +0.000 A 
ATOM      7  C   UNL     1       6.855   4.639  14.133  0.00  0.00    +0.000 A 
ATOM      8  C   UNL     1       7.238   5.725  14.948  0.00  0.00    +0.000 A 
ATOM      9  C   UNL     1       6.859   5.703  16.281  0.00  0.00    +0.000 A 
ENDROOT
BRANCH   7  10
ATOM     10  N   UNL     1       7.252   4.608  12.763  0.00  0.00    +0.000 N 
ATOM     11  O   UNL     1       7.986   5.442  12.325  0.00  0.00    +0.000 OA
ATOM     12  O   UNL     1       6.779   3.683  11.954  0.00  0.00    +0.000 OA
ENDBRANCH   7  10
BRANCH   1  13
ATOM     13  O   UNL     1       7.838   7.696  17.190  0.00  0.00    +0.000 OA
BRANCH  13  14
ATOM     14  C   UNL     1       7.630   8.819  17.954  0.00  0.00    +0.000 C 
BRANCH  14  15
ATOM     15  C   UNL     1       8.873   9.698  17.882  0.00  0.00    +0.000 C 
BRANCH  15  16
ATOM     16  C   UNL     1       9.192  10.281  19.264  0.00  0.00    +0.000 C 
BRANCH  16  17
ATOM     17  C   UNL     1      10.438  11.166  19.220  0.00  0.00    +0.000 C 
BRANCH  17  18
ATOM     18  C   UNL     1      10.575  11.827  17.847  0.00  0.00    +0.000 C 
BRANCH  18  19
ATOM     19  N   UNL     1      11.965  11.791  17.406  0.00  0.00    +0.000 NA
ATOM     20  H   UNL     1      12.518  12.440  18.009  0.00  0.00    +0.000 HD
ATOM     21  H   UNL     1      12.017  12.145  16.423  0.00  0.00    +0.000 HD
ENDBRANCH  18  19
ENDBRANCH  17  18
ENDBRANCH  16  17
ENDBRANCH  15  16
ENDBRANCH  14  15
ENDBRANCH  13  14
ENDBRANCH   1  13
BRANCH   3  22
ATOM     22  C   UNL     1       5.315   4.111  19.158  0.00  0.00    +0.000 C 
BRANCH  22  23
ATOM     23  C   UNL     1       3.875   3.896  18.778  0.00  0.00    +0.000 A 
ATOM     24  C   UNL     1       3.342   2.594  18.769  0.00  0.00    +0.000 A 
ATOM     25  C   UNL     1       2.016   2.374  18.390  0.00  0.00    +0.000 A 
ATOM     26  C   UNL     1       1.208   3.452  18.024  0.00  0.00    +0.000 A 
ATOM     27  C   UNL     1       1.725   4.752  18.041  0.00  0.00    +0.000 A 
ATOM     28  C   UNL     1       3.053   4.976  18.419  0.00  0.00    +0.000 A 
ENDBRANCH  22  23
ENDBRANCH   3  22
TORSDOF 10
ENDMDL
MODEL 7
REMARK VINA RESULT:      -7.0      4.740      8.530
REMARK  Name = 
REMARK  10 active torsions:
REMARK  status: ('A' for Active; 'I' for Inactive)
REMARK    1  A    between atoms: N_1  and  C_2
REMARK    2  A    between atoms: C_2  and  C_3
REMARK    3  A    between atoms: C_3  and  C_4
REMARK    4  A    between atoms: C_4  and  C_5
REMARK    5  A    between atoms: C_5  and  C_6
REMARK    6  A    between atoms: C_6  and  O_7
REMARK    7  A    between atoms: O_7  and  C_8
REMARK    8  A    between atoms: N_10  and  C_11
REMARK    9  A    between atoms: C_11  and  C_12
REMARK   10  A    between atoms: C_21  and  N_22
REMARK                            x       y       z     vdW  Elec       q    Type
REMARK                         _______ _______ _______ _____ _____    ______ ____
ROOT
ATOM      1  C   UNL     1       6.873   6.609  17.398  0.00  0.00    +0.000 A 
ATOM      2  N   UNL     1       6.340   6.073  18.517  0.00  0.00    +0.000 NA
ATOM      3  N   UNL     1       5.835   4.886  18.189  0.00  0.00    +0.000 N 
ATOM      4  C   UNL     1       6.062   4.666  16.873  0.00  0.00    +0.000 A 
ATOM      5  C   UNL     1       5.752   3.560  16.079  0.00  0.00    +0.000 A 
ATOM      6  C   UNL     1       6.142   3.599  14.722  0.00  0.00    +0.000 A 
ATOM      7  C   UNL     1       6.830   4.730  14.187  0.00  0.00    +0.000 A 
ATOM      8  C   UNL     1       7.108   5.826  15.029  0.00  0.00    +0.000 A 
ATOM      9  C   UNL     1       6.710   5.745  16.354  0.00  0.00    +0.000 A 
ENDROOT
BRANCH   7  10
ATOM     10  N   UNL     1       7.252   4.760  12.824  0.00  0.00    +0.000 N 
ATOM     11  O   UNL     1       6.886   3.920  12.057  0.00  0.00    +0.000 OA
ATOM     12  O   UNL     1       8.083   5.690  12.404  0.00  0.00    +0.000 OA
ENDBRANCH   7  10
BRANCH   1  13
ATOM     13  O   UNL     1       7.507   7.793  17.320  0.00  0.00    +0.000 OA
BRANCH  13  14
ATOM     14  C   UNL     1       8.332   8.283  18.303  0.00  0.00    +0.000 C 
BRANCH  14  15
ATOM     15  C   UNL     1       8.522   9.779  18.082  0.00  0.00    +0.000 C 
BRANCH  15  16
ATOM     16  C   UNL     1       9.347  10.385  19.224  0.00  0.00    +0.000 C 
BRANCH  16  17
ATOM     17  C   UNL     1      10.381  11.380  18.697  0.00  0.00    +0.000 C 
BRANCH  17  18
ATOM     18  C   UNL     1       9.804  12.797  18.692  0.00  0.00    +0.000 C 
BRANCH  18  19
ATOM     19  N   UNL     1       9.551  13.236  17.324  0.00  0.00    +0.000 NA
ATOM     20  H   UNL     1      10.468  13.325  16.833  0.00  0.00    +0.000 HD
ATOM     21  H   UNL     1       9.108  14.182  17.348  0.00  0.00    +0.000 HD
ENDBRANCH  18  19
ENDBRANCH  17  18
ENDBRANCH  16  17
ENDBRANCH  15  16
ENDBRANCH  14  15
ENDBRANCH  13  14
ENDBRANCH   1  13
BRANCH   3  22
ATOM     22  C   UNL     1       5.253   3.974  19.171  0.00  0.00    +0.000 C 
BRANCH  22  23
ATOM     23  C   UNL     1       3.815   3.720  18.808  0.00  0.00    +0.000 A 
ATOM     24  C   UNL     1       2.974   4.803  18.491  0.00  0.00    +0.000 A 
ATOM     25  C   UNL     1       1.629   4.588  18.181  0.00  0.00    +0.000 A 
ATOM     26  C   UNL     1       1.114   3.291  18.176  0.00  0.00    +0.000 A 
ATOM     27  C   UNL     1       1.945   2.206  18.477  0.00  0.00    +0.000 A 
ATOM     28  C   UNL     1       3.292   2.418  18.790  0.00  0.00    +0.000 A 
ENDBRANCH  22  23
ENDBRANCH   3  22
TORSDOF 10
ENDMDL
MODEL 8
REMARK VINA RESULT:      -6.9      2.350      3.666
REMARK  Name = 
REMARK  10 active torsions:
REMARK  status: ('A' for Active; 'I' for Inactive)
REMARK    1  A    between atoms: N_1  and  C_2
REMARK    2  A    between atoms: C_2  and  C_3
REMARK    3  A    between atoms: C_3  and  C_4
REMARK    4  A    between atoms: C_4  and  C_5
REMARK    5  A    between atoms: C_5  and  C_6
REMARK    6  A    between atoms: C_6  and  O_7
REMARK    7  A    between atoms: O_7  and  C_8
REMARK    8  A    between atoms: N_10  and  C_11
REMARK    9  A    between atoms: C_11  and  C_12
REMARK   10  A    between atoms: C_21  and  N_22
REMARK                            x       y       z     vdW  Elec       q    Type
REMARK                         _______ _______ _______ _____ _____    ______ ____
ROOT
ATOM      1  C   UNL     1       4.012   3.934  17.888  0.00  0.00    +0.000 A 
ATOM      2  N   UNL     1       5.177   3.529  17.338  0.00  0.00    +0.000 NA
ATOM      3  N   UNL     1       5.771   4.604  16.826  0.00  0.00    +0.000 N 
ATOM      4  C   UNL     1       4.993   5.686  17.065  0.00  0.00    +0.000 A 
ATOM      5  C   UNL     1       5.201   7.031  16.753  0.00  0.00    +0.000 A 
ATOM      6  C   UNL     1       4.213   7.956  17.158  0.00  0.00    +0.000 A 
ATOM      7  C   UNL     1       3.048   7.528  17.861  0.00  0.00    +0.000 A 
ATOM      8  C   UNL     1       2.881   6.155  18.141  0.00  0.00    +0.000 A 
ATOM      9  C   UNL     1       3.874   5.282  17.727  0.00  0.00    +0.000 A 
ENDROOT
BRANCH   7  10
ATOM     10  N   UNL     1       2.063   8.464  18.297  0.00  0.00    +0.000 N 
ATOM     11  O   UNL     1       1.646   8.429  19.416  0.00  0.00    +0.000 OA
ATOM     12  O   UNL     1       1.571   9.352  17.459  0.00  0.00    +0.000 OA
ENDBRANCH   7  10
BRANCH   1  13
ATOM     13  O   UNL     1       3.133   3.146  18.533  0.00  0.00    +0.000 OA
BRANCH  13  14
ATOM     14  C   UNL     1       2.202   2.360  17.897  0.00  0.00    +0.000 C 
BRANCH  14  15
ATOM     15  C   UNL     1       0.884   2.451  18.655  0.00  0.00    +0.000 C 
BRANCH  15  16
ATOM     16  C   UNL     1       0.982   3.502  19.767  0.00  0.00    +0.000 C 
BRANCH  16  17
ATOM     17  C   UNL     1       1.012   2.850  21.149  0.00  0.00    +0.000 C 
BRANCH  17  18
ATOM     18  C   UNL     1       2.301   3.219  21.885  0.00  0.00    +0.000 C 
BRANCH  18  19
ATOM     19  N   UNL     1       3.418   2.433  21.374  0.00  0.00    +0.000 NA
ATOM     20  H   UNL     1       3.393   2.465  20.330  0.00  0.00    +0.000 HD
ATOM     21  H   UNL     1       3.292   1.436  21.666  0.00  0.00    +0.000 HD
ENDBRANCH  18  19
ENDBRANCH  17  18
ENDBRANCH  16  17
ENDBRANCH  15  16
ENDBRANCH  14  15
ENDBRANCH  13  14
ENDBRANCH   1  13
BRANCH   3  22
ATOM     22  C   UNL     1       7.102   4.564  16.224  0.00  0.00    +0.000 C 
BRANCH  22  23
ATOM     23  C   UNL     1       6.960   4.485  14.728  0.00  0.00    +0.000 A 
ATOM     24  C   UNL     1       6.010   3.613  14.164  0.00  0.00    +0.000 A 
ATOM     25  C   UNL     1       5.886   3.505  12.777  0.00  0.00    +0.000 A 
ATOM     26  C   UNL     1       6.701   4.271  11.942  0.00  0.00    +0.000 A 
ATOM     27  C   UNL     1       7.639   5.150  12.494  0.00  0.00    +0.000 A 
ATOM     28  C   UNL     1       7.768   5.260  13.883  0.00  0.00    +0.000 A 
ENDBRANCH  22  23
ENDBRANCH   3  22
TORSDOF 10
ENDMDL
MODEL 9
REMARK VINA RESULT:      -6.9      1.160      1.577
REMARK  Name = 
REMARK  10 active torsions:
REMARK  status: ('A' for Active; 'I' for Inactive)
REMARK    1  A    between atoms: N_1  and  C_2
REMARK    2  A    between atoms: C_2  and  C_3
REMARK    3  A    between atoms: C_3  and  C_4
REMARK    4  A    between atoms: C_4  and  C_5
REMARK    5  A    between atoms: C_5  and  C_6
REMARK    6  A    between atoms: C_6  and  O_7
REMARK    7  A    between atoms: O_7  and  C_8
REMARK    8  A    between atoms: N_10  and  C_11
REMARK    9  A    between atoms: C_11  and  C_12
REMARK   10  A    between atoms: C_21  and  N_22
REMARK                            x       y       z     vdW  Elec       q    Type
REMARK                         _______ _______ _______ _____ _____    ______ ____
ROOT
ATOM      1  C   UNL     1       2.688   5.276  20.313  0.00  0.00    +0.000 A 
ATOM      2  N   UNL     1       3.568   4.817  19.397  0.00  0.00    +0.000 NA
ATOM      3  N   UNL     1       3.674   5.743  18.447  0.00  0.00    +0.000 N 
ATOM      4  C   UNL     1       2.877   6.788  18.768  0.00  0.00    +0.000 A 
ATOM      5  C   UNL     1       2.672   8.001  18.107  0.00  0.00    +0.000 A 
ATOM      6  C   UNL     1       1.789   8.929  18.701  0.00  0.00    +0.000 A 
ATOM      7  C   UNL     1       1.133   8.635  19.934  0.00  0.00    +0.000 A 
ATOM      8  C   UNL     1       1.365   7.390  20.555  0.00  0.00    +0.000 A 
ATOM      9  C   UNL     1       2.240   6.509  19.939  0.00  0.00    +0.000 A 
ENDROOT
BRANCH   7  10
ATOM     10  N   UNL     1       0.263   9.582  20.552  0.00  0.00    +0.000 N 
ATOM     11  O   UNL     1      -0.453  10.271  19.889  0.00  0.00    +0.000 OA
ATOM     12  O   UNL     1       0.270   9.739  21.859  0.00  0.00    +0.000 OA
ENDBRANCH   7  10
BRANCH   1  13
ATOM     13  O   UNL     1       2.331   4.642  21.444  0.00  0.00    +0.000 OA
BRANCH  13  14
ATOM     14  C   UNL     1       2.443   3.284  21.627  0.00  0.00    +0.000 C 
BRANCH  14  15
ATOM     15  C   UNL     1       1.108   2.633  21.284  0.00  0.00    +0.000 C 
BRANCH  15  16
ATOM     16  C   UNL     1       0.615   3.118  19.916  0.00  0.00    +0.000 C 
BRANCH  16  17
ATOM     17  C   UNL     1       0.802   2.045  18.844  0.00  0.00    +0.000 C 
BRANCH  17  18
ATOM     18  C   UNL     1       2.016   2.368  17.971  0.00  0.00    +0.000 C 
BRANCH  18  19
ATOM     19  N   UNL     1       3.174   1.596  18.409  0.00  0.00    +0.000 NA
ATOM     20  H   UNL     1       2.951   0.581  18.304  0.00  0.00    +0.000 HD
ATOM     21  H   UNL     1       3.341   1.783  19.425  0.00  0.00    +0.000 HD
ENDBRANCH  18  19
ENDBRANCH  17  18
ENDBRANCH  16  17
ENDBRANCH  15  16
ENDBRANCH  14  15
ENDBRANCH  13  14
ENDBRANCH   1  13
BRANCH   3  22
ATOM     22  C   UNL     1       4.610   5.630  17.330  0.00  0.00    +0.000 C 
BRANCH  22  23
ATOM     23  C   UNL     1       5.928   6.233  17.735  0.00  0.00    +0.000 A 
ATOM     24  C   UNL     1       6.353   7.439  17.146  0.00  0.00    +0.000 A 
ATOM     25  C   UNL     1       7.587   7.997  17.488  0.00  0.00    +0.000 A 
ATOM     26  C   UNL     1       8.403   7.362  18.426  0.00  0.00    +0.000 A 
ATOM     27  C   UNL     1       7.983   6.170  19.026  0.00  0.00    +0.000 A 
ATOM     28  C   UNL     1       6.749   5.607  18.685  0.00  0.00    +0.000 A 
ENDBRANCH  22  23
ENDBRANCH   3  22
TORSDOF 10
ENDMDL
