MODEL 1
REMARK VINA RESULT:      -8.4      0.000      0.000
REMARK  Name = 
REMARK  6 active torsions:
REMARK  status: ('A' for Active; 'I' for Inactive)
REMARK    1  A    between atoms: C_1  and  C_2
REMARK    2  A    between atoms: C_5  and  O_6
REMARK    3  A    between atoms: O_6  and  C_7
REMARK    4  A    between atoms: C_7  and  C_8
REMARK    5  A    between atoms: N_10  and  C_11
REMARK    6  A    between atoms: C_11  and  C_12
REMARK                            x       y       z     vdW  Elec       q    Type
REMARK                         _______ _______ _______ _____ _____    ______ ____
ROOT
ATOM      1  C   UNL     1       5.261   6.191  17.733  0.00  0.00    +0.000 C 
ATOM      2  O   UNL     1       5.392   7.389  17.440  0.00  0.00    +0.000 OA
ATOM      3  N   UNL     1       4.000   5.604  17.780  0.00  0.00    +0.000 N 
ATOM      4  C   UNL     1       3.819   4.255  18.153  0.00  0.00    +0.000 A 
ATOM      5  C   UNL     1       3.032   3.428  17.356  0.00  0.00    +0.000 A 
ATOM      6  C   UNL     1       2.884   2.091  17.707  0.00  0.00    +0.000 A 
ATOM      7  C   UNL     1       3.503   1.622  18.859  0.00  0.00    +0.000 A 
ATOM      8  C   UNL     1       4.253   2.512  19.604  0.00  0.00    +0.000 A 
ATOM      9  N   UNL     1       4.435   3.806  19.266  0.00  0.00    +0.000 NA
ENDROOT
BRANCH   1  10
ATOM     10  C   UNL     1       6.539   5.346  18.002  0.00  0.00    +0.000 C 
BRANCH  10  11
ATOM     11  O   UNL     1       7.437   5.288  16.897  0.00  0.00    +0.000 OA
BRANCH  11  16
ATOM     12  C   UNL     1       5.683   3.266  11.859  0.00  0.00    +0.000 C 
ATOM     13  C   UNL     1       6.151   3.747  13.205  0.00  0.00    +0.000 A 
ATOM     14  C   UNL     1       7.070   4.798  13.305  0.00  0.00    +0.000 A 
ATOM     15  C   UNL     1       7.476   5.269  14.561  0.00  0.00    +0.000 A 
ATOM     16  C   UNL     1       6.967   4.717  15.739  0.00  0.00    +0.000 A 
ATOM     17  C   UNL     1       6.079   3.646  15.642  0.00  0.00    +0.000 A 
ATOM     18  C   UNL     1       5.674   3.165  14.381  0.00  0.00    +0.000 A 
ENDBRANCH  11  16
ENDBRANCH  10  11
ENDBRANCH   1  10
BRANCH   3  19
ATOM     19  C   UNL     1       2.784   6.423  17.576  0.00  0.00    +0.000 C 
BRANCH  19  20
ATOM     20  C   UNL     1       2.296   7.095  18.862  0.00  0.00    +0.000 A 
ATOM     21  C   UNL     1       2.106   6.260  19.985  0.00  0.00    +0.000 A 
ATOM     22  C   UNL     1       1.522   6.744  21.150  0.00  0.00    +0.000 A 
ATOM     23  C   UNL     1       1.080   8.061  21.206  0.00  0.00    +0.000 A 
ATOM     24  C   UNL     1       1.262   8.928  20.119  0.00  0.00    +0.000 A 
ATOM     25  C   UNL     1       0.767  10.241  20.197  0.00  0.00    +0.000 A 
ATOM     26  C   UNL     1       0.949  11.136  19.151  0.00  0.00    +0.000 A 
ATOM     27  C   UNL     1       1.690  10.749  18.039  0.00  0.00    +0.000 A 
ATOM     28  C   UNL     1       2.181   9.440  17.949  0.00  0.00    +0.000 A 
ATOM     29  C   UNL     1       1.932   8.473  18.951  0.00  0.00    +0.000 A 
ENDBRANCH  19  20
ENDBRANCH   3  19
TORSDOF 5
ENDMDL
MODEL 2
REMARK VINA RESULT:      -8.2      1.838      7.696
REMARK  Name = 
REMARK  6 active torsions:
REMARK  status: ('A' for Active; 'I' for Inactive)
REMARK    1  A    between atoms: C_1  and  C_2
REMARK    2  A    between atoms: C_5  and  O_6
REMARK    3  A    between atoms: O_6  and  C_7
REMARK    4  A    between atoms: C_7  and  C_8
REMARK    5  A    between atoms: N_10  and  C_11
REMARK    6  A    between atoms: C_11  and  C_12
REMARK                            x       y       z     vdW  Elec       q    Type
REMARK                         _______ _______ _______ _____ _____    ______ ____
ROOT
ATOM      1  C   UNL     1       2.978   6.208  18.396  0.00  0.00    +0.000 C 
ATOM      2  O   UNL     1       3.373   6.850  17.410  0.00  0.00    +0.000 OA
ATOM      3  N   UNL     1       3.074   4.820  18.425  0.00  0.00    +0.000 N 
ATOM      4  C   UNL     1       2.594   4.062  19.515  0.00  0.00    +0.000 A 
ATOM      5  C   UNL     1       3.414   3.093  20.085  0.00  0.00    +0.000 A 
ATOM      6  C   UNL     1       2.951   2.373  21.181  0.00  0.00    +0.000 A 
ATOM      7  C   UNL     1       1.671   2.621  21.661  0.00  0.00    +0.000 A 
ATOM      8  C   UNL     1       0.914   3.588  21.027  0.00  0.00    +0.000 A 
ATOM      9  N   UNL     1       1.354   4.320  19.982  0.00  0.00    +0.000 NA
ENDROOT
BRANCH   1  10
ATOM     10  C   UNL     1       2.418   6.990  19.618  0.00  0.00    +0.000 C 
BRANCH  10  11
ATOM     11  O   UNL     1       1.854   8.256  19.286  0.00  0.00    +0.000 OA
BRANCH  11  16
ATOM     12  C   UNL     1      -1.232  11.240  23.044  0.00  0.00    +0.000 C 
ATOM     13  C   UNL     1      -0.439  10.406  22.075  0.00  0.00    +0.000 A 
ATOM     14  C   UNL     1      -0.358  10.769  20.725  0.00  0.00    +0.000 A 
ATOM     15  C   UNL     1       0.413  10.012  19.832  0.00  0.00    +0.000 A 
ATOM     16  C   UNL     1       1.127   8.891  20.264  0.00  0.00    +0.000 A 
ATOM     17  C   UNL     1       1.018   8.507  21.600  0.00  0.00    +0.000 A 
ATOM     18  C   UNL     1       0.239   9.262  22.500  0.00  0.00    +0.000 A 
ENDBRANCH  11  16
ENDBRANCH  10  11
ENDBRANCH   1  10
BRANCH   3  19
ATOM     19  C   UNL     1       3.558   4.077  17.240  0.00  0.00    +0.000 C 
BRANCH  19  20
ATOM     20  C   UNL     1       5.058   4.253  16.998  0.00  0.00    +0.000 A 
ATOM     21  C   UNL     1       5.860   4.518  18.130  0.00  0.00    +0.000 A 
ATOM     22  C   UNL     1       7.205   4.844  17.997  0.00  0.00    +0.000 A 
ATOM     23  C   UNL     1       7.769   4.949  16.731  0.00  0.00    +0.000 A 
ATOM     24  C   UNL     1       7.013   4.679  15.581  0.00  0.00    +0.000 A 
ATOM     25  C   UNL     1       7.606   4.835  14.316  0.00  0.00    +0.000 A 
ATOM     26  C   UNL     1       6.897   4.553  13.156  0.00  0.00    +0.000 A 
ATOM     27  C   UNL     1       5.604   4.046  13.248  0.00  0.00    +0.000 A 
ATOM     28  C   UNL     1       5.002   3.896  14.505  0.00  0.00    +0.000 A 
ATOM     29  C   UNL     1       5.659   4.264  15.702  0.00  0.00    +0.000 A 
ENDBRANCH  19  20
ENDBRANCH   3  19
TORSDOF 5
ENDMDL
MODEL 3
REMARK VINA RESULT:      -8.0      2.253      7.948
REMARK  Name = 
REMARK  6 active torsions:
REMARK  status: ('A' for Active; 'I' for Inactive)
REMARK    1  A    between atoms: C_1  and  C_2
REMARK    2  A    between atoms: C_5  and  O_6
REMARK    3  A    between atoms: O_6  and  C_7
REMARK    4  A    between atoms: C_7  and  C_8
REMARK    5  A    between atoms: N_10  and  C_11
REMARK    6  A    between atoms: C_11  and  C_12
REMARK                            x       y       z     vdW  Elec       q    Type
REMARK                         _______ _______ _______ _____ _____    ______ ____
ROOT
ATOM      1  C   UNL     1       2.361   7.053  19.393  0.00  0.00    +0.000 C 
ATOM      2  O   UNL     1       2.520   8.024  18.637  0.00  0.00    +0.000 OA
ATOM      3  N   UNL     1       2.690   5.766  18.976  0.00  0.00    +0.000 N 
ATOM      4  C   UNL     1       2.479   4.639  19.799  0.00  0.00    +0.000 A 
ATOM      5  C   UNL     1       3.513   3.725  19.980  0.00  0.00    +0.000 A 
ATOM      6  C   UNL     1       3.313   2.634  20.819  0.00  0.00    +0.000 A 
ATOM      7  C   UNL     1       2.077   2.470  21.433  0.00  0.00    +0.000 A 
ATOM      8  C   UNL     1       1.098   3.414  21.186  0.00  0.00    +0.000 A 
ATOM      9  N   UNL     1       1.280   4.496  20.400  0.00  0.00    +0.000 NA
ENDROOT
BRANCH   1  10
ATOM     10  C   UNL     1       1.830   7.308  20.832  0.00  0.00    +0.000 C 
BRANCH  10  11
ATOM     11  O   UNL     1       0.444   7.633  20.889  0.00  0.00    +0.000 OA
BRANCH  11  16
ATOM     12  C   UNL     1      -1.125  12.724  22.930  0.00  0.00    +0.000 C 
ATOM     13  C   UNL     1      -0.664  11.406  22.373  0.00  0.00    +0.000 A 
ATOM     14  C   UNL     1      -0.795  10.231  23.124  0.00  0.00    +0.000 A 
ATOM     15  C   UNL     1      -0.401   8.998  22.587  0.00  0.00    +0.000 A 
ATOM     16  C   UNL     1       0.117   8.905  21.292  0.00  0.00    +0.000 A 
ATOM     17  C   UNL     1       0.282  10.078  20.557  0.00  0.00    +0.000 A 
ATOM     18  C   UNL     1      -0.108  11.321  21.095  0.00  0.00    +0.000 A 
ENDBRANCH  11  16
ENDBRANCH  10  11
ENDBRANCH   1  10
BRANCH   3  19
ATOM     19  C   UNL     1       3.144   5.521  17.588  0.00  0.00    +0.000 C 
BRANCH  19  20
ATOM     20  C   UNL     1       4.668   5.493  17.456  0.00  0.00    +0.000 A 
ATOM     21  C   UNL     1       5.411   6.040  18.525  0.00  0.00    +0.000 A 
ATOM     22  C   UNL     1       6.789   6.201  18.435  0.00  0.00    +0.000 A 
ATOM     23  C   UNL     1       7.450   5.854  17.262  0.00  0.00    +0.000 A 
ATOM     24  C   UNL     1       6.753   5.292  16.182  0.00  0.00    +0.000 A 
ATOM     25  C   UNL     1       7.447   4.990  14.998  0.00  0.00    +0.000 A 
ATOM     26  C   UNL     1       6.797   4.411  13.917  0.00  0.00    +0.000 A 
ATOM     27  C   UNL     1       5.454   4.063  14.030  0.00  0.00    +0.000 A 
ATOM     28  C   UNL     1       4.752   4.367  15.204  0.00  0.00    +0.000 A 
ATOM     29  C   UNL     1       5.358   5.045  16.289  0.00  0.00    +0.000 A 
ENDBRANCH  19  20
ENDBRANCH   3  19
TORSDOF 5
ENDMDL
MODEL 4
REMARK VINA RESULT:      -8.0      0.535      1.030
REMARK  Name = 
REMARK  6 active torsions:
REMARK  status: ('A' for Active; 'I' for Inactive)
REMARK    1  A    between atoms: C_1  and  C_2
REMARK    2  A    between atoms: C_5  and  O_6
REMARK    3  A    between atoms: O_6  and  C_7
REMARK    4  A    between atoms: C_7  and  C_8
REMARK    5  A    between atoms: N_10  and  C_11
REMARK    6  A    between atoms: C_11  and  C_12
REMARK                            x       y       z     vdW  Elec       q    Type
REMARK                         _______ _______ _______ _____ _____    ______ ____
ROOT
ATOM      1  C   UNL     1       5.585   6.362  17.190  0.00  0.00    +0.000 C 
ATOM      2  O   UNL     1       5.817   7.528  16.835  0.00  0.00    +0.000 OA
ATOM      3  N   UNL     1       4.279   5.926  17.391  0.00  0.00    +0.000 N 
ATOM      4  C   UNL     1       3.988   4.618  17.836  0.00  0.00    +0.000 A 
ATOM      5  C   UNL     1       3.033   3.865  17.159  0.00  0.00    +0.000 A 
ATOM      6  C   UNL     1       2.774   2.565  17.579  0.00  0.00    +0.000 A 
ATOM      7  C   UNL     1       3.457   2.061  18.679  0.00  0.00    +0.000 A 
ATOM      8  C   UNL     1       4.377   2.881  19.305  0.00  0.00    +0.000 A 
ATOM      9  N   UNL     1       4.666   4.134  18.897  0.00  0.00    +0.000 NA
ENDROOT
BRANCH   1  10
ATOM     10  C   UNL     1       6.781   5.383  17.360  0.00  0.00    +0.000 C 
BRANCH  10  11
ATOM     11  O   UNL     1       7.666   5.350  16.243  0.00  0.00    +0.000 OA
BRANCH  11  16
ATOM     12  C   UNL     1       5.386   2.877  11.635  0.00  0.00    +0.000 C 
ATOM     13  C   UNL     1       5.985   3.578  12.823  0.00  0.00    +0.000 A 
ATOM     14  C   UNL     1       5.545   3.284  14.119  0.00  0.00    +0.000 A 
ATOM     15  C   UNL     1       6.132   3.910  15.227  0.00  0.00    +0.000 A 
ATOM     16  C   UNL     1       7.173   4.829  15.072  0.00  0.00    +0.000 A 
ATOM     17  C   UNL     1       7.588   5.150  13.779  0.00  0.00    +0.000 A 
ATOM     18  C   UNL     1       6.997   4.527  12.662  0.00  0.00    +0.000 A 
ENDBRANCH  11  16
ENDBRANCH  10  11
ENDBRANCH   1  10
BRANCH   3  19
ATOM     19  C   UNL     1       3.147   6.875  17.280  0.00  0.00    +0.000 C 
BRANCH  19  20
ATOM     20  C   UNL     1       2.556   7.258  18.639  0.00  0.00    +0.000 A 
ATOM     21  C   UNL     1       2.463   6.233  19.605  0.00  0.00    +0.000 A 
ATOM     22  C   UNL     1       1.803   6.441  20.812  0.00  0.00    +0.000 A 
ATOM     23  C   UNL     1       1.190   7.664  21.063  0.00  0.00    +0.000 A 
ATOM     24  C   UNL     1       1.272   8.714  20.136  0.00  0.00    +0.000 A 
ATOM     25  C   UNL     1       0.606   9.921  20.406  0.00  0.00    +0.000 A 
ATOM     26  C   UNL     1       0.684  10.992  19.525  0.00  0.00    +0.000 A 
ATOM     27  C   UNL     1       1.485  10.891  18.392  0.00  0.00    +0.000 A 
ATOM     28  C   UNL     1       2.146   9.687  18.111  0.00  0.00    +0.000 A 
ATOM     29  C   UNL     1       2.012   8.545  18.935  0.00  0.00    +0.000 A 
ENDBRANCH  19  20
ENDBRANCH   3  19
TORSDOF 5
ENDMDL
MODEL 5
REMARK VINA RESULT:      -7.9      3.462      6.296
REMARK  Name = 
REMARK  6 active torsions:
REMARK  status: ('A' for Active; 'I' for Inactive)
REMARK    1  A    between atoms: C_1  and  C_2
REMARK    2  A    between atoms: C_5  and  O_6
REMARK    3  A    between atoms: O_6  and  C_7
REMARK    4  A    between atoms: C_7  and  C_8
REMARK    5  A    between atoms: N_10  and  C_11
REMARK    6  A    between atoms: C_11  and  C_12
REMARK                            x       y       z     vdW  Elec       q    Type
REMARK                         _______ _______ _______ _____ _____    ______ ____
ROOT
ATOM      1  C   UNL     1       1.514   9.042  18.518  0.00  0.00    +0.000 C 
ATOM      2  O   UNL     1       1.636   9.248  17.300  0.00  0.00    +0.000 OA
ATOM      3  N   UNL     1       0.725   9.876  19.304  0.00  0.00    +0.000 N 
ATOM      4  C   UNL     1       0.603   9.691  20.698  0.00  0.00    +0.000 A 
ATOM      5  C   UNL     1      -0.664   9.676  21.275  0.00  0.00    +0.000 A 
ATOM      6  C   UNL     1      -0.782   9.459  22.644  0.00  0.00    +0.000 A 
ATOM      7  C   UNL     1       0.369   9.290  23.403  0.00  0.00    +0.000 A 
ATOM      8  C   UNL     1       1.589   9.337  22.755  0.00  0.00    +0.000 A 
ATOM      9  N   UNL     1       1.726   9.516  21.425  0.00  0.00    +0.000 NA
ENDROOT
BRANCH   1  10
ATOM     10  C   UNL     1       2.224   7.806  19.139  0.00  0.00    +0.000 C 
BRANCH  10  11
ATOM     11  O   UNL     1       3.108   7.136  18.245  0.00  0.00    +0.000 OA
BRANCH  11  16
ATOM     12  C   UNL     1       3.540   1.453  18.500  0.00  0.00    +0.000 C 
ATOM     13  C   UNL     1       3.373   2.947  18.450  0.00  0.00    +0.000 A 
ATOM     14  C   UNL     1       4.375   3.791  18.943  0.00  0.00    +0.000 A 
ATOM     15  C   UNL     1       4.234   5.184  18.861  0.00  0.00    +0.000 A 
ATOM     16  C   UNL     1       3.105   5.763  18.275  0.00  0.00    +0.000 A 
ATOM     17  C   UNL     1       2.090   4.924  17.816  0.00  0.00    +0.000 A 
ATOM     18  C   UNL     1       2.225   3.524  17.903  0.00  0.00    +0.000 A 
ENDBRANCH  11  16
ENDBRANCH  10  11
ENDBRANCH   1  10
BRANCH   3  19
ATOM     19  C   UNL     1       0.095  11.082  18.720  0.00  0.00    +0.000 C 
BRANCH  19  20
ATOM     20  C   UNL     1      -1.376  10.868  18.354  0.00  0.00    +0.000 A 
ATOM     21  C   UNL     1      -1.644  10.002  17.271  0.00  0.00    +0.000 A 
ATOM     22  C   UNL     1      -2.931   9.861  16.764  0.00  0.00    +0.000 A 
ATOM     23  C   UNL     1      -3.971  10.610  17.303  0.00  0.00    +0.000 A 
ATOM     24  C   UNL     1      -3.752  11.470  18.389  0.00  0.00    +0.000 A 
ATOM     25  C   UNL     1      -4.818  12.242  18.881  0.00  0.00    +0.000 A 
ATOM     26  C   UNL     1      -4.647  13.086  19.970  0.00  0.00    +0.000 A 
ATOM     27  C   UNL     1      -3.419  13.119  20.625  0.00  0.00    +0.000 A 
ATOM     28  C   UNL     1      -2.347  12.360  20.136  0.00  0.00    +0.000 A 
ATOM     29  C   UNL     1      -2.459  11.563  18.971  0.00  0.00    +0.000 A 
ENDBRANCH  19  20
ENDBRANCH   3  19
TORSDOF 5
ENDMDL
MODEL 6
REMARK VINA RESULT:      -7.9      3.392      6.009
REMARK  Name = 
REMARK  6 active torsions:
REMARK  status: ('A' for Active; 'I' for Inactive)
REMARK    1  A    between atoms: C_1  and  C_2
REMARK    2  A    between atoms: C_5  and  O_6
REMARK    3  A    between atoms: O_6  and  C_7
REMARK    4  A    between atoms: C_7  and  C_8
REMARK    5  A    between atoms: N_10  and  C_11
REMARK    6  A    between atoms: C_11  and  C_12
REMARK                            x       y       z     vdW  Elec       q    Type
REMARK                         _______ _______ _______ _____ _____    ______ ____
ROOT
ATOM      1  C   UNL     1       1.608   9.021  18.545  0.00  0.00    +0.000 C 
ATOM      2  O   UNL     1       1.757   9.219  17.330  0.00  0.00    +0.000 OA
ATOM      3  N   UNL     1       0.787   9.849  19.305  0.00  0.00    +0.000 N 
ATOM      4  C   UNL     1       0.634   9.673  20.698  0.00  0.00    +0.000 A 
ATOM      5  C   UNL     1      -0.646   9.643  21.244  0.00  0.00    +0.000 A 
ATOM      6  C   UNL     1      -0.794   9.435  22.611  0.00  0.00    +0.000 A 
ATOM      7  C   UNL     1       0.340   9.290  23.399  0.00  0.00    +0.000 A 
ATOM      8  C   UNL     1       1.575   9.350  22.781  0.00  0.00    +0.000 A 
ATOM      9  N   UNL     1       1.742   9.520  21.453  0.00  0.00    +0.000 NA
ENDROOT
BRANCH   1  10
ATOM     10  C   UNL     1       2.320   7.800  19.194  0.00  0.00    +0.000 C 
BRANCH  10  11
ATOM     11  O   UNL     1       2.107   6.572  18.504  0.00  0.00    +0.000 OA
BRANCH  11  16
ATOM     12  C   UNL     1       6.364   4.012  15.699  0.00  0.00    +0.000 C 
ATOM     13  C   UNL     1       5.242   4.727  16.400  0.00  0.00    +0.000 A 
ATOM     14  C   UNL     1       4.143   4.015  16.895  0.00  0.00    +0.000 A 
ATOM     15  C   UNL     1       3.118   4.679  17.581  0.00  0.00    +0.000 A 
ATOM     16  C   UNL     1       3.169   6.057  17.802  0.00  0.00    +0.000 A 
ATOM     17  C   UNL     1       4.245   6.774  17.278  0.00  0.00    +0.000 A 
ATOM     18  C   UNL     1       5.275   6.112  16.582  0.00  0.00    +0.000 A 
ENDBRANCH  11  16
ENDBRANCH  10  11
ENDBRANCH   1  10
BRANCH   3  19
ATOM     19  C   UNL     1       0.154  11.040  18.696  0.00  0.00    +0.000 C 
BRANCH  19  20
ATOM     20  C   UNL     1      -1.317  10.815  18.337  0.00  0.00    +0.000 A 
ATOM     21  C   UNL     1      -1.584   9.937  17.265  0.00  0.00    +0.000 A 
ATOM     22  C   UNL     1      -2.873   9.785  16.764  0.00  0.00    +0.000 A 
ATOM     23  C   UNL     1      -3.915  10.535  17.298  0.00  0.00    +0.000 A 
ATOM     24  C   UNL     1      -3.696  11.407  18.375  0.00  0.00    +0.000 A 
ATOM     25  C   UNL     1      -4.764  12.179  18.862  0.00  0.00    +0.000 A 
ATOM     26  C   UNL     1      -4.593  13.035  19.941  0.00  0.00    +0.000 A 
ATOM     27  C   UNL     1      -3.363  13.082  20.591  0.00  0.00    +0.000 A 
ATOM     28  C   UNL     1      -2.289  12.322  20.107  0.00  0.00    +0.000 A 
ATOM     29  C   UNL     1      -2.401  11.513  18.952  0.00  0.00    +0.000 A 
ENDBRANCH  19  20
ENDBRANCH   3  19
TORSDOF 5
ENDMDL
MODEL 7
REMARK VINA RESULT:      -7.9      4.166      6.845
REMARK  Name = 
REMARK  6 active torsions:
REMARK  status: ('A' for Active; 'I' for Inactive)
REMARK    1  A    between atoms: C_1  and  C_2
REMARK    2  A    between atoms: C_5  and  O_6
REMARK    3  A    between atoms: O_6  and  C_7
REMARK    4  A    between atoms: C_7  and  C_8
REMARK    5  A    between atoms: N_10  and  C_11
REMARK    6  A    between atoms: C_11  and  C_12
REMARK                            x       y       z     vdW  Elec       q    Type
REMARK                         _______ _______ _______ _____ _____    ______ ____
ROOT
ATOM      1  C   UNL     1       1.648   9.247  18.332  0.00  0.00    +0.000 C 
ATOM      2  O   UNL     1       1.780   9.529  17.132  0.00  0.00    +0.000 OA
ATOM      3  N   UNL     1       0.781   9.975  19.143  0.00  0.00    +0.000 N 
ATOM      4  C   UNL     1       0.645   9.703  20.522  0.00  0.00    +0.000 A 
ATOM      5  C   UNL     1      -0.629   9.561  21.065  0.00  0.00    +0.000 A 
ATOM      6  C   UNL     1      -0.759   9.259  22.416  0.00  0.00    +0.000 A 
ATOM      7  C   UNL     1       0.385   9.134  23.194  0.00  0.00    +0.000 A 
ATOM      8  C   UNL     1       1.612   9.308  22.581  0.00  0.00    +0.000 A 
ATOM      9  N   UNL     1       1.762   9.571  21.266  0.00  0.00    +0.000 NA
ENDROOT
BRANCH   1  10
ATOM     10  C   UNL     1       2.435   8.034  18.903  0.00  0.00    +0.000 C 
BRANCH  10  11
ATOM     11  O   UNL     1       2.235   6.822  18.180  0.00  0.00    +0.000 OA
BRANCH  11  16
ATOM     12  C   UNL     1       1.540   2.319  21.613  0.00  0.00    +0.000 C 
ATOM     13  C   UNL     1       1.678   3.489  20.679  0.00  0.00    +0.000 A 
ATOM     14  C   UNL     1       1.968   4.766  21.176  0.00  0.00    +0.000 A 
ATOM     15  C   UNL     1       2.135   5.848  20.301  0.00  0.00    +0.000 A 
ATOM     16  C   UNL     1       2.030   5.682  18.918  0.00  0.00    +0.000 A 
ATOM     17  C   UNL     1       1.706   4.419  18.423  0.00  0.00    +0.000 A 
ATOM     18  C   UNL     1       1.532   3.329  19.300  0.00  0.00    +0.000 A 
ENDBRANCH  11  16
ENDBRANCH  10  11
ENDBRANCH   1  10
BRANCH   3  19
ATOM     19  C   UNL     1       0.075  11.161  18.609  0.00  0.00    +0.000 C 
BRANCH  19  20
ATOM     20  C   UNL     1      -1.400  10.888  18.302  0.00  0.00    +0.000 A 
ATOM     21  C   UNL     1      -1.675   9.987  17.251  0.00  0.00    +0.000 A 
ATOM     22  C   UNL     1      -2.974   9.789  16.795  0.00  0.00    +0.000 A 
ATOM     23  C   UNL     1      -4.020  10.517  17.352  0.00  0.00    +0.000 A 
ATOM     24  C   UNL     1      -3.792  11.411  18.408  0.00  0.00    +0.000 A 
ATOM     25  C   UNL     1      -4.867  12.159  18.919  0.00  0.00    +0.000 A 
ATOM     26  C   UNL     1      -4.686  13.036  19.980  0.00  0.00    +0.000 A 
ATOM     27  C   UNL     1      -3.438  13.128  20.589  0.00  0.00    +0.000 A 
ATOM     28  C   UNL     1      -2.359  12.392  20.081  0.00  0.00    +0.000 A 
ATOM     29  C   UNL     1      -2.484  11.563  18.941  0.00  0.00    +0.000 A 
ENDBRANCH  19  20
ENDBRANCH   3  19
TORSDOF 5
ENDMDL
MODEL 8
REMARK VINA RESULT:      -7.8      3.368      8.329
REMARK  Name = 
REMARK  6 active torsions:
REMARK  status: ('A' for Active; 'I' for Inactive)
REMARK    1  A    between atoms: C_1  and  C_2
REMARK    2  A    between atoms: C_5  and  O_6
REMARK    3  A    between atoms: O_6  and  C_7
REMARK    4  A    between atoms: C_7  and  C_8
REMARK    5  A    between atoms: N_10  and  C_11
REMARK    6  A    between atoms: C_11  and  C_12
REMARK                            x       y       z     vdW  Elec       q    Type
REMARK                         _______ _______ _______ _____ _____    ______ ____
ROOT
ATOM      1  C   UNL     1       1.542   8.856  18.464  0.00  0.00    +0.000 C 
ATOM      2  O   UNL     1       2.193   8.511  17.466  0.00  0.00    +0.000 OA
ATOM      3  N   UNL     1       1.835   8.333  19.720  0.00  0.00    +0.000 N 
ATOM      4  C   UNL     1       1.083   8.675  20.865  0.00  0.00    +0.000 A 
ATOM      5  C   UNL     1       1.746   9.072  22.022  0.00  0.00    +0.000 A 
ATOM      6  C   UNL     1       1.001   9.441  23.136  0.00  0.00    +0.000 A 
ATOM      7  C   UNL     1      -0.386   9.379  23.074  0.00  0.00    +0.000 A 
ATOM      8  C   UNL     1      -0.966   8.958  21.892  0.00  0.00    +0.000 A 
ATOM      9  N   UNL     1      -0.264   8.624  20.789  0.00  0.00    +0.000 NA
ENDROOT
BRANCH   1  10
ATOM     10  C   UNL     1       0.422   9.921  18.291  0.00  0.00    +0.000 C 
BRANCH  10  11
ATOM     11  O   UNL     1      -0.580   9.560  17.344  0.00  0.00    +0.000 OA
BRANCH  11  16
ATOM     12  C   UNL     1      -5.622  12.224  17.211  0.00  0.00    +0.000 C 
ATOM     13  C   UNL     1      -4.304  11.506  17.299  0.00  0.00    +0.000 A 
ATOM     14  C   UNL     1      -3.849  10.721  16.232  0.00  0.00    +0.000 A 
ATOM     15  C   UNL     1      -2.603  10.083  16.301  0.00  0.00    +0.000 A 
ATOM     16  C   UNL     1      -1.780  10.223  17.421  0.00  0.00    +0.000 A 
ATOM     17  C   UNL     1      -2.247  10.975  18.499  0.00  0.00    +0.000 A 
ATOM     18  C   UNL     1      -3.502  11.613  18.436  0.00  0.00    +0.000 A 
ENDBRANCH  11  16
ENDBRANCH  10  11
ENDBRANCH   1  10
BRANCH   3  19
ATOM     19  C   UNL     1       2.865   7.281  19.872  0.00  0.00    +0.000 C 
BRANCH  19  20
ATOM     20  C   UNL     1       2.331   5.877  19.578  0.00  0.00    +0.000 A 
ATOM     21  C   UNL     1       1.309   5.394  20.424  0.00  0.00    +0.000 A 
ATOM     22  C   UNL     1       0.865   4.079  20.337  0.00  0.00    +0.000 A 
ATOM     23  C   UNL     1       1.458   3.208  19.429  0.00  0.00    +0.000 A 
ATOM     24  C   UNL     1       2.465   3.651  18.560  0.00  0.00    +0.000 A 
ATOM     25  C   UNL     1       3.070   2.733  17.684  0.00  0.00    +0.000 A 
ATOM     26  C   UNL     1       4.053   3.139  16.791  0.00  0.00    +0.000 A 
ATOM     27  C   UNL     1       4.399   4.485  16.717  0.00  0.00    +0.000 A 
ATOM     28  C   UNL     1       3.807   5.406  17.592  0.00  0.00    +0.000 A 
ATOM     29  C   UNL     1       2.873   5.012  18.579  0.00  0.00    +0.000 A 
ENDBRANCH  19  20
ENDBRANCH   3  19
TORSDOF 5
ENDMDL
MODEL 9
REMARK VINA RESULT:      -7.8      3.535      6.143
REMARK  Name = 
REMARK  6 active torsions:
REMARK  status: ('A' for Active; 'I' for Inactive)
REMARK    1  A    between atoms: C_1  and  C_2
REMARK    2  A    between atoms: C_5  and  O_6
REMARK    3  A    between atoms: O_6  and  C_7
REMARK    4  A    between atoms: C_7  and  C_8
REMARK    5  A    between atoms: N_10  and  C_11
REMARK    6  A    between atoms: C_11  and  C_12
REMARK                            x       y       z     vdW  Elec       q    Type
REMARK                         _______ _______ _______ _____ _____    ______ ____
ROOT
ATOM      1  C   UNL     1       7.262   5.972  18.787  0.00  0.00    +0.000 C 
ATOM      2  O   UNL     1       7.331   6.043  20.024  0.00  0.00    +0.000 OA
ATOM      3  N   UNL     1       6.388   5.080  18.174  0.00  0.00    +0.000 N 
ATOM      4  C   UNL     1       6.321   4.948  16.770  0.00  0.00    +0.000 A 
ATOM      5  C   UNL     1       5.079   4.982  16.141  0.00  0.00    +0.000 A 
ATOM      6  C   UNL     1       5.019   4.887  14.755  0.00  0.00    +0.000 A 
ATOM      7  C   UNL     1       6.198   4.733  14.036  0.00  0.00    +0.000 A 
ATOM      8  C   UNL     1       7.388   4.691  14.738  0.00  0.00    +0.000 A 
ATOM      9  N   UNL     1       7.472   4.812  16.080  0.00  0.00    +0.000 NA
ENDROOT
BRANCH   1  10
ATOM     10  C   UNL     1       8.139   6.935  17.936  0.00  0.00    +0.000 C 
BRANCH  10  11
ATOM     11  O   UNL     1       7.546   8.211  17.712  0.00  0.00    +0.000 OA
BRANCH  11  16
ATOM     12  C   UNL     1      10.284  12.987  19.209  0.00  0.00    +0.000 C 
ATOM     13  C   UNL     1       9.551  11.719  18.869  0.00  0.00    +0.000 A 
ATOM     14  C   UNL     1       8.667  11.678  17.784  0.00  0.00    +0.000 A 
ATOM     15  C   UNL     1       8.015  10.484  17.445  0.00  0.00    +0.000 A 
ATOM     16  C   UNL     1       8.237   9.309  18.166  0.00  0.00    +0.000 A 
ATOM     17  C   UNL     1       9.089   9.357  19.269  0.00  0.00    +0.000 A 
ATOM     18  C   UNL     1       9.742  10.556  19.617  0.00  0.00    +0.000 A 
ENDBRANCH  11  16
ENDBRANCH  10  11
ENDBRANCH   1  10
BRANCH   3  19
ATOM     19  C   UNL     1       5.595   4.129  18.985  0.00  0.00    +0.000 C 
BRANCH  19  20
ATOM     20  C   UNL     1       4.143   4.574  19.175  0.00  0.00    +0.000 A 
ATOM     21  C   UNL     1       3.935   5.897  19.624  0.00  0.00    +0.000 A 
ATOM     22  C   UNL     1       2.666   6.347  19.972  0.00  0.00    +0.000 A 
ATOM     23  C   UNL     1       1.584   5.475  19.916  0.00  0.00    +0.000 A 
ATOM     24  C   UNL     1       1.744   4.158  19.460  0.00  0.00    +0.000 A 
ATOM     25  C   UNL     1       0.636   3.293  19.455  0.00  0.00    +0.000 A 
ATOM     26  C   UNL     1       0.749   1.991  18.988  0.00  0.00    +0.000 A 
ATOM     27  C   UNL     1       1.959   1.555  18.458  0.00  0.00    +0.000 A 
ATOM     28  C   UNL     1       3.072   2.407  18.467  0.00  0.00    +0.000 A 
ATOM     29  C   UNL     1       3.019   3.707  19.022  0.00  0.00    +0.000 A 
ENDBRANCH  19  20
ENDBRANCH   3  19
TORSDOF 5
ENDMDL
