MODEL 1
REMARK VINA RESULT:      -6.6      0.000      0.000
REMARK  Name = 
REMARK  8 active torsions:
REMARK  status: ('A' for Active; 'I' for Inactive)
REMARK    1  A    between atoms: C_1  and  O_2
REMARK    2  A    between atoms: O_2  and  C_3
REMARK    3  A    between atoms: C_8  and  C_9
REMARK    4  A    between atoms: C_9  and  C_10
REMARK    5  A    between atoms: C_9  and  N_22
REMARK    6  A    between atoms: N_14  and  C_15
REMARK    7  A    between atoms: C_15  and  C_16
REMARK    8  A    between atoms: N_25  and  C_26
REMARK                            x       y       z     vdW  Elec       q    Type
REMARK                         _______ _______ _______ _____ _____    ______ ____
ROOT
ATOM      1  C   UNL     1       0.339  12.669  20.156  0.00  0.00    +0.000 C 
ENDROOT
BRANCH   1   7
ATOM      2  C   UNL     1      -0.366  10.548  18.594  0.00  0.00    +0.000 A 
ATOM      3  C   UNL     1      -1.442   9.868  17.973  0.00  0.00    +0.000 A 
ATOM      4  C   UNL     1      -2.719  10.405  17.915  0.00  0.00    +0.000 A 
ATOM      5  C   UNL     1      -2.957  11.656  18.450  0.00  0.00    +0.000 A 
ATOM      6  C   UNL     1      -1.915  12.385  19.048  0.00  0.00    +0.000 A 
ATOM      7  C   UNL     1      -0.593  11.868  19.185  0.00  0.00    +0.000 A 
BRANCH   2   9
ATOM      8  C   UNL     1       1.748   9.338  17.732  0.00  0.00    +0.000 C 
ATOM      9  O   UNL     1       0.746   9.766  18.571  0.00  0.00    +0.000 OA
ENDBRANCH   2   9
ENDBRANCH   1   7
BRANCH   1  10
ATOM     10  N   UNL     1       1.848  12.784  19.803  0.00  0.00    +0.000 NA
ATOM     11  C   UNL     1       2.379  13.004  18.403  0.00  0.00    +0.000 C 
ATOM     12  C   UNL     1       2.799  14.492  17.995  0.00  0.00    +0.000 C 
ATOM     13  N   UNL     1       3.521  15.272  19.040  0.00  0.00    +0.000 NA
ATOM     14  C   UNL     1       2.919  15.043  20.362  0.00  0.00    +0.000 C 
ATOM     15  C   UNL     1       2.750  13.554  20.705  0.00  0.00    +0.000 C 
BRANCH  13  16
ATOM     16  C   UNL     1       4.996  15.581  18.901  0.00  0.00    +0.000 C 
ATOM     17  C   UNL     1       5.871  15.258  20.144  0.00  0.00    +0.000 C 
ATOM     18  C   UNL     1       7.318  15.148  19.621  0.00  0.00    +0.000 C 
ATOM     19  C   UNL     1       7.182  14.963  18.104  0.00  0.00    +0.000 C 
ATOM     20  C   UNL     1       5.692  14.737  17.841  0.00  0.00    +0.000 C 
ENDBRANCH  13  16
ENDBRANCH   1  10
BRANCH   1  21
ATOM     21  C   UNL     1       0.026  11.935  21.511  0.00  0.00    +0.000 A 
ATOM     22  N   UNL     1       0.443  10.688  21.747  0.00  0.00    +0.000 NA
ATOM     23  N   UNL     1      -0.033  10.326  22.935  0.00  0.00    +0.000 NA
ATOM     24  N   UNL     1      -0.771  11.326  23.446  0.00  0.00    +0.000 NA
ATOM     25  N   UNL     1      -0.733  12.355  22.587  0.00  0.00    +0.000 N 
BRANCH  25  26
ATOM     26  C   UNL     1      -1.489  13.570  22.971  0.00  0.00    +0.000 C 
BRANCH  26  27
ATOM     27  C   UNL     1      -2.817  13.719  22.216  0.00  0.00    +0.000 A 
ATOM     28  C   UNL     1      -3.193  14.844  21.421  0.00  0.00    +0.000 A 
ATOM     29  C   UNL     1      -4.413  14.866  20.719  0.00  0.00    +0.000 A 
ATOM     30  C   UNL     1      -5.280  13.754  20.793  0.00  0.00    +0.000 A 
ATOM     31  C   UNL     1      -4.932  12.673  21.571  0.00  0.00    +0.000 A 
ATOM     32  C   UNL     1      -3.727  12.633  22.245  0.00  0.00    +0.000 A 
ENDBRANCH  26  27
ENDBRANCH  25  26
ENDBRANCH   1  21
TORSDOF 7
ENDMDL
MODEL 2
REMARK VINA RESULT:      -6.4      2.970      5.985
REMARK  Name = 
REMARK  8 active torsions:
REMARK  status: ('A' for Active; 'I' for Inactive)
REMARK    1  A    between atoms: C_1  and  O_2
REMARK    2  A    between atoms: O_2  and  C_3
REMARK    3  A    between atoms: C_8  and  C_9
REMARK    4  A    between atoms: C_9  and  C_10
REMARK    5  A    between atoms: C_9  and  N_22
REMARK    6  A    between atoms: N_14  and  C_15
REMARK    7  A    between atoms: C_15  and  C_16
REMARK    8  A    between atoms: N_25  and  C_26
REMARK                            x       y       z     vdW  Elec       q    Type
REMARK                         _______ _______ _______ _____ _____    ______ ____
ROOT
ATOM      1  C   UNL     1       1.415  10.559  20.231  0.00  0.00    +0.000 C 
ENDROOT
BRANCH   1   7
ATOM      2  C   UNL     1       1.291  13.280  20.347  0.00  0.00    +0.000 A 
ATOM      3  C   UNL     1       0.805  14.450  19.715  0.00  0.00    +0.000 A 
ATOM      4  C   UNL     1      -0.098  14.399  18.664  0.00  0.00    +0.000 A 
ATOM      5  C   UNL     1      -0.570  13.176  18.228  0.00  0.00    +0.000 A 
ATOM      6  C   UNL     1      -0.142  11.987  18.846  0.00  0.00    +0.000 A 
ATOM      7  C   UNL     1       0.823  11.968  19.896  0.00  0.00    +0.000 A 
BRANCH   2   9
ATOM      8  C   UNL     1       2.957  14.680  21.742  0.00  0.00    +0.000 C 
ATOM      9  O   UNL     1       2.212  13.615  21.290  0.00  0.00    +0.000 OA
ENDBRANCH   2   9
ENDBRANCH   1   7
BRANCH   1  10
ATOM     10  N   UNL     1       1.135   9.387  19.250  0.00  0.00    +0.000 NA
ATOM     11  C   UNL     1       1.834   9.208  17.920  0.00  0.00    +0.000 C 
ATOM     12  C   UNL     1       3.043   8.165  17.852  0.00  0.00    +0.000 C 
ATOM     13  N   UNL     1       2.846   6.892  18.602  0.00  0.00    +0.000 NA
ATOM     14  C   UNL     1       2.207   7.152  19.900  0.00  0.00    +0.000 C 
ATOM     15  C   UNL     1       0.938   8.014  19.793  0.00  0.00    +0.000 C 
BRANCH  13  16
ATOM     16  C   UNL     1       2.618   5.586  17.872  0.00  0.00    +0.000 C 
ATOM     17  C   UNL     1       3.890   4.731  17.609  0.00  0.00    +0.000 C 
ATOM     18  C   UNL     1       3.386   3.296  17.359  0.00  0.00    +0.000 C 
ATOM     19  C   UNL     1       1.955   3.272  17.910  0.00  0.00    +0.000 C 
ATOM     20  C   UNL     1       1.771   4.594  18.659  0.00  0.00    +0.000 C 
ENDBRANCH  13  16
ENDBRANCH   1  10
BRANCH   1  21
ATOM     21  C   UNL     1       0.851  10.358  21.686  0.00  0.00    +0.000 A 
ATOM     22  N   UNL     1       1.482   9.597  22.585  0.00  0.00    +0.000 NA
ATOM     23  N   UNL     1       0.730   9.569  23.682  0.00  0.00    +0.000 NA
ATOM     24  N   UNL     1      -0.386  10.289  23.478  0.00  0.00    +0.000 NA
ATOM     25  N   UNL     1      -0.327  10.814  22.246  0.00  0.00    +0.000 N 
BRANCH  25  26
ATOM     26  C   UNL     1      -1.474  11.652  21.825  0.00  0.00    +0.000 C 
BRANCH  26  27
ATOM     27  C   UNL     1      -1.894  12.678  22.885  0.00  0.00    +0.000 A 
ATOM     28  C   UNL     1      -1.131  13.820  23.278  0.00  0.00    +0.000 A 
ATOM     29  C   UNL     1      -1.626  14.739  24.223  0.00  0.00    +0.000 A 
ATOM     30  C   UNL     1      -2.904  14.535  24.791  0.00  0.00    +0.000 A 
ATOM     31  C   UNL     1      -3.637  13.427  24.431  0.00  0.00    +0.000 A 
ATOM     32  C   UNL     1      -3.169  12.534  23.486  0.00  0.00    +0.000 A 
ENDBRANCH  26  27
ENDBRANCH  25  26
ENDBRANCH   1  21
TORSDOF 7
ENDMDL
MODEL 3
REMARK VINA RESULT:      -6.4      1.281      1.831
REMARK  Name = 
REMARK  8 active torsions:
REMARK  status: ('A' for Active; 'I' for Inactive)
REMARK    1  A    between atoms: C_1  and  O_2
REMARK    2  A    between atoms: O_2  and  C_3
REMARK    3  A    between atoms: C_8  and  C_9
REMARK    4  A    between atoms: C_9  and  C_10
REMARK    5  A    between atoms: C_9  and  N_22
REMARK    6  A    between atoms: N_14  and  C_15
REMARK    7  A    between atoms: C_15  and  C_16
REMARK    8  A    between atoms: N_25  and  C_26
REMARK                            x       y       z     vdW  Elec       q    Type
REMARK                         _______ _______ _______ _____ _____    ______ ____
ROOT
ATOM      1  C   UNL     1       0.374  12.502  20.248  0.00  0.00    +0.000 C 
ENDROOT
BRANCH   1   7
ATOM      2  C   UNL     1      -0.240  10.525  18.474  0.00  0.00    +0.000 A 
ATOM      3  C   UNL     1      -1.286   9.865  17.784  0.00  0.00    +0.000 A 
ATOM      4  C   UNL     1      -2.586  10.347  17.781  0.00  0.00    +0.000 A 
ATOM      5  C   UNL     1      -2.879  11.523  18.443  0.00  0.00    +0.000 A 
ATOM      6  C   UNL     1      -1.869  12.233  19.115  0.00  0.00    +0.000 A 
ATOM      7  C   UNL     1      -0.524  11.765  19.199  0.00  0.00    +0.000 A 
BRANCH   2   9
ATOM      8  C   UNL     1       1.578   8.753  18.955  0.00  0.00    +0.000 C 
ATOM      9  O   UNL     1       0.906   9.802  18.371  0.00  0.00    +0.000 OA
ENDBRANCH   2   9
ENDBRANCH   1   7
BRANCH   1  10
ATOM     10  N   UNL     1       1.878  12.710  19.916  0.00  0.00    +0.000 NA
ATOM     11  C   UNL     1       2.423  12.886  18.516  0.00  0.00    +0.000 C 
ATOM     12  C   UNL     1       2.740  14.374  18.025  0.00  0.00    +0.000 C 
ATOM     13  N   UNL     1       3.378  15.268  19.033  0.00  0.00    +0.000 NA
ATOM     14  C   UNL     1       2.765  15.074  20.355  0.00  0.00    +0.000 C 
ATOM     15  C   UNL     1       2.699  13.599  20.785  0.00  0.00    +0.000 C 
BRANCH  13  16
ATOM     16  C   UNL     1       4.828  15.678  18.901  0.00  0.00    +0.000 C 
ATOM     17  C   UNL     1       5.707  15.457  20.165  0.00  0.00    +0.000 C 
ATOM     18  C   UNL     1       7.165  15.436  19.663  0.00  0.00    +0.000 C 
ATOM     19  C   UNL     1       7.065  15.197  18.151  0.00  0.00    +0.000 C 
ATOM     20  C   UNL     1       5.598  14.856  17.876  0.00  0.00    +0.000 C 
ENDBRANCH  13  16
ENDBRANCH   1  10
BRANCH   1  21
ATOM     21  C   UNL     1       0.087  11.628  21.523  0.00  0.00    +0.000 A 
ATOM     22  N   UNL     1       0.907  10.640  21.896  0.00  0.00    +0.000 NA
ATOM     23  N   UNL     1       0.363  10.050  22.957  0.00  0.00    +0.000 NA
ATOM     24  N   UNL     1      -0.808  10.641  23.247  0.00  0.00    +0.000 NA
ATOM     25  N   UNL     1      -0.996  11.647  22.381  0.00  0.00    +0.000 N 
BRANCH  25  26
ATOM     26  C   UNL     1      -2.242  12.433  22.535  0.00  0.00    +0.000 C 
BRANCH  26  27
ATOM     27  C   UNL     1      -2.091  13.624  23.491  0.00  0.00    +0.000 A 
ATOM     28  C   UNL     1      -0.997  14.542  23.501  0.00  0.00    +0.000 A 
ATOM     29  C   UNL     1      -0.973  15.640  24.381  0.00  0.00    +0.000 A 
ATOM     30  C   UNL     1      -2.054  15.846  25.268  0.00  0.00    +0.000 A 
ATOM     31  C   UNL     1      -3.103  14.956  25.276  0.00  0.00    +0.000 A 
ATOM     32  C   UNL     1      -3.146  13.889  24.399  0.00  0.00    +0.000 A 
ENDBRANCH  26  27
ENDBRANCH  25  26
ENDBRANCH   1  21
TORSDOF 7
ENDMDL
MODEL 4
REMARK VINA RESULT:      -6.2      1.498      2.566
REMARK  Name = 
REMARK  8 active torsions:
REMARK  status: ('A' for Active; 'I' for Inactive)
REMARK    1  A    between atoms: C_1  and  O_2
REMARK    2  A    between atoms: O_2  and  C_3
REMARK    3  A    between atoms: C_8  and  C_9
REMARK    4  A    between atoms: C_9  and  C_10
REMARK    5  A    between atoms: C_9  and  N_22
REMARK    6  A    between atoms: N_14  and  C_15
REMARK    7  A    between atoms: C_15  and  C_16
REMARK    8  A    between atoms: N_25  and  C_26
REMARK                            x       y       z     vdW  Elec       q    Type
REMARK                         _______ _______ _______ _____ _____    ______ ____
ROOT
ATOM      1  C   UNL     1      -0.005  12.201  20.294  0.00  0.00    +0.000 C 
ENDROOT
BRANCH   1   7
ATOM      2  C   UNL     1      -2.362  11.676  19.028  0.00  0.00    +0.000 A 
ATOM      3  C   UNL     1      -2.979  10.980  17.960  0.00  0.00    +0.000 A 
ATOM      4  C   UNL     1      -2.301  10.031  17.209  0.00  0.00    +0.000 A 
ATOM      5  C   UNL     1      -0.992   9.722  17.521  0.00  0.00    +0.000 A 
ATOM      6  C   UNL     1      -0.345  10.362  18.594  0.00  0.00    +0.000 A 
ATOM      7  C   UNL     1      -0.970  11.382  19.371  0.00  0.00    +0.000 A 
BRANCH   2   9
ATOM      8  C   UNL     1      -4.508  12.717  20.022  0.00  0.00    +0.000 C 
ATOM      9  O   UNL     1      -3.226  12.592  19.539  0.00  0.00    +0.000 OA
ENDBRANCH   2   9
ENDBRANCH   1   7
BRANCH   1  10
ATOM     10  N   UNL     1       1.442  12.470  19.795  0.00  0.00    +0.000 NA
ATOM     11  C   UNL     1       1.785  12.946  18.401  0.00  0.00    +0.000 C 
ATOM     12  C   UNL     1       2.082  14.505  18.202  0.00  0.00    +0.000 C 
ATOM     13  N   UNL     1       2.890  15.154  19.273  0.00  0.00    +0.000 NA
ATOM     14  C   UNL     1       2.468  14.677  20.598  0.00  0.00    +0.000 C 
ATOM     15  C   UNL     1       2.411  13.144  20.704  0.00  0.00    +0.000 C 
BRANCH  13  16
ATOM     16  C   UNL     1       4.320  15.578  19.020  0.00  0.00    +0.000 C 
ATOM     17  C   UNL     1       5.324  15.280  20.169  0.00  0.00    +0.000 C 
ATOM     18  C   UNL     1       6.722  15.297  19.520  0.00  0.00    +0.000 C 
ATOM     19  C   UNL     1       6.467  15.154  18.014  0.00  0.00    +0.000 C 
ATOM     20  C   UNL     1       4.979  14.825  17.870  0.00  0.00    +0.000 C 
ENDBRANCH  13  16
ENDBRANCH   1  10
BRANCH   1  21
ATOM     21  C   UNL     1      -0.108  11.359  21.619  0.00  0.00    +0.000 A 
ATOM     22  N   UNL     1       0.818  10.454  21.949  0.00  0.00    +0.000 NA
ATOM     23  N   UNL     1       0.419   9.868  23.074  0.00  0.00    +0.000 NA
ATOM     24  N   UNL     1      -0.767  10.377  23.449  0.00  0.00    +0.000 NA
ATOM     25  N   UNL     1      -1.110  11.329  22.569  0.00  0.00    +0.000 N 
BRANCH  25  26
ATOM     26  C   UNL     1      -2.398  12.022  22.809  0.00  0.00    +0.000 C 
BRANCH  26  27
ATOM     27  C   UNL     1      -2.244  13.328  23.598  0.00  0.00    +0.000 A 
ATOM     28  C   UNL     1      -1.168  14.257  23.456  0.00  0.00    +0.000 A 
ATOM     29  C   UNL     1      -1.142  15.460  24.187  0.00  0.00    +0.000 A 
ATOM     30  C   UNL     1      -2.201  15.762  25.072  0.00  0.00    +0.000 A 
ATOM     31  C   UNL     1      -3.232  14.864  25.227  0.00  0.00    +0.000 A 
ATOM     32  C   UNL     1      -3.277  13.692  24.497  0.00  0.00    +0.000 A 
ENDBRANCH  26  27
ENDBRANCH  25  26
ENDBRANCH   1  21
TORSDOF 7
ENDMDL
MODEL 5
REMARK VINA RESULT:      -6.2      3.065      5.966
REMARK  Name = 
REMARK  8 active torsions:
REMARK  status: ('A' for Active; 'I' for Inactive)
REMARK    1  A    between atoms: C_1  and  O_2
REMARK    2  A    between atoms: O_2  and  C_3
REMARK    3  A    between atoms: C_8  and  C_9
REMARK    4  A    between atoms: C_9  and  C_10
REMARK    5  A    between atoms: C_9  and  N_22
REMARK    6  A    between atoms: N_14  and  C_15
REMARK    7  A    between atoms: C_15  and  C_16
REMARK    8  A    between atoms: N_25  and  C_26
REMARK                            x       y       z     vdW  Elec       q    Type
REMARK                         _______ _______ _______ _____ _____    ______ ____
ROOT
ATOM      1  C   UNL     1       1.491  10.423  20.304  0.00  0.00    +0.000 C 
ENDROOT
BRANCH   1   7
ATOM      2  C   UNL     1      -0.106  12.256  19.069  0.00  0.00    +0.000 A 
ATOM      3  C   UNL     1      -0.549  13.601  19.070  0.00  0.00    +0.000 A 
ATOM      4  C   UNL     1       0.040  14.570  19.868  0.00  0.00    +0.000 A 
ATOM      5  C   UNL     1       1.113  14.234  20.670  0.00  0.00    +0.000 A 
ATOM      6  C   UNL     1       1.611  12.919  20.680  0.00  0.00    +0.000 A 
ATOM      7  C   UNL     1       1.018  11.866  19.922  0.00  0.00    +0.000 A 
BRANCH   2   9
ATOM      8  C   UNL     1      -2.150  11.500  17.681  0.00  0.00    +0.000 C 
ATOM      9  O   UNL     1      -0.901  11.510  18.256  0.00  0.00    +0.000 OA
ENDBRANCH   2   9
ENDBRANCH   1   7
BRANCH   1  10
ATOM     10  N   UNL     1       1.133   9.251  19.348  0.00  0.00    +0.000 NA
ATOM     11  C   UNL     1       1.729   9.066  17.970  0.00  0.00    +0.000 C 
ATOM     12  C   UNL     1       2.925   8.017  17.814  0.00  0.00    +0.000 C 
ATOM     13  N   UNL     1       2.778   6.746  18.580  0.00  0.00    +0.000 NA
ATOM     14  C   UNL     1       2.239   7.012  19.921  0.00  0.00    +0.000 C 
ATOM     15  C   UNL     1       0.970   7.880  19.907  0.00  0.00    +0.000 C 
BRANCH  13  16
ATOM     16  C   UNL     1       2.491   5.441  17.871  0.00  0.00    +0.000 C 
ATOM     17  C   UNL     1       3.739   4.621  17.438  0.00  0.00    +0.000 C 
ATOM     18  C   UNL     1       3.242   3.175  17.240  0.00  0.00    +0.000 C 
ATOM     19  C   UNL     1       1.895   3.110  17.970  0.00  0.00    +0.000 C 
ATOM     20  C   UNL     1       1.777   4.422  18.750  0.00  0.00    +0.000 C 
ENDBRANCH  13  16
ENDBRANCH   1  10
BRANCH   1  21
ATOM     21  C   UNL     1       0.892  10.308  21.753  0.00  0.00    +0.000 A 
ATOM     22  N   UNL     1       1.509   9.617  22.716  0.00  0.00    +0.000 NA
ATOM     23  N   UNL     1       0.729   9.648  23.793  0.00  0.00    +0.000 NA
ATOM     24  N   UNL     1      -0.392  10.334  23.514  0.00  0.00    +0.000 NA
ATOM     25  N   UNL     1      -0.308  10.779  22.252  0.00  0.00    +0.000 N 
BRANCH  25  26
ATOM     26  C   UNL     1      -1.456  11.569  21.748  0.00  0.00    +0.000 C 
BRANCH  26  27
ATOM     27  C   UNL     1      -2.021  12.545  22.788  0.00  0.00    +0.000 A 
ATOM     28  C   UNL     1      -1.382  13.744  23.229  0.00  0.00    +0.000 A 
ATOM     29  C   UNL     1      -2.006  14.607  24.149  0.00  0.00    +0.000 A 
ATOM     30  C   UNL     1      -3.291  14.289  24.643  0.00  0.00    +0.000 A 
ATOM     31  C   UNL     1      -3.905  13.127  24.236  0.00  0.00    +0.000 A 
ATOM     32  C   UNL     1      -3.310  12.286  23.315  0.00  0.00    +0.000 A 
ENDBRANCH  26  27
ENDBRANCH  25  26
ENDBRANCH   1  21
TORSDOF 7
ENDMDL
MODEL 6
REMARK VINA RESULT:      -6.2      1.170      1.827
REMARK  Name = 
REMARK  8 active torsions:
REMARK  status: ('A' for Active; 'I' for Inactive)
REMARK    1  A    between atoms: C_1  and  O_2
REMARK    2  A    between atoms: O_2  and  C_3
REMARK    3  A    between atoms: C_8  and  C_9
REMARK    4  A    between atoms: C_9  and  C_10
REMARK    5  A    between atoms: C_9  and  N_22
REMARK    6  A    between atoms: N_14  and  C_15
REMARK    7  A    between atoms: C_15  and  C_16
REMARK    8  A    between atoms: N_25  and  C_26
REMARK                            x       y       z     vdW  Elec       q    Type
REMARK                         _______ _______ _______ _____ _____    ______ ____
ROOT
ATOM      1  C   UNL     1       0.174  12.633  20.600  0.00  0.00    +0.000 C 
ENDROOT
BRANCH   1   7
ATOM      2  C   UNL     1      -0.166  10.682  18.726  0.00  0.00    +0.000 A 
ATOM      3  C   UNL     1      -1.108   9.982  17.933  0.00  0.00    +0.000 A 
ATOM      4  C   UNL     1      -2.432  10.383  17.836  0.00  0.00    +0.000 A 
ATOM      5  C   UNL     1      -2.853  11.516  18.504  0.00  0.00    +0.000 A 
ATOM      6  C   UNL     1      -1.948  12.264  19.278  0.00  0.00    +0.000 A 
ATOM      7  C   UNL     1      -0.587  11.877  19.459  0.00  0.00    +0.000 A 
BRANCH   2   9
ATOM      8  C   UNL     1       1.828   9.276  17.875  0.00  0.00    +0.000 C 
ATOM      9  O   UNL     1       1.029  10.034  18.698  0.00  0.00    +0.000 OA
ENDBRANCH   2   9
ENDBRANCH   1   7
BRANCH   1  10
ATOM     10  N   UNL     1       1.619  13.129  20.320  0.00  0.00    +0.000 NA
ATOM     11  C   UNL     1       2.192  13.339  18.935  0.00  0.00    +0.000 C 
ATOM     12  C   UNL     1       2.226  14.832  18.364  0.00  0.00    +0.000 C 
ATOM     13  N   UNL     1       2.611  15.891  19.339  0.00  0.00    +0.000 NA
ATOM     14  C   UNL     1       1.979  15.646  20.644  0.00  0.00    +0.000 C 
ATOM     15  C   UNL     1       2.192  14.214  21.165  0.00  0.00    +0.000 C 
BRANCH  13  16
ATOM     16  C   UNL     1       3.952  16.586  19.244  0.00  0.00    +0.000 C 
ATOM     17  C   UNL     1       4.330  17.488  20.452  0.00  0.00    +0.000 C 
ATOM     18  C   UNL     1       5.862  17.648  20.392  0.00  0.00    +0.000 C 
ATOM     19  C   UNL     1       6.348  16.520  19.474  0.00  0.00    +0.000 C 
ATOM     20  C   UNL     1       5.131  15.622  19.234  0.00  0.00    +0.000 C 
ENDBRANCH  13  16
ENDBRANCH   1  10
BRANCH   1  21
ATOM     21  C   UNL     1       0.044  11.583  21.764  0.00  0.00    +0.000 A 
ATOM     22  N   UNL     1       0.977  10.651  21.977  0.00  0.00    +0.000 NA
ATOM     23  N   UNL     1       0.552   9.881  22.975  0.00  0.00    +0.000 NA
ATOM     24  N   UNL     1      -0.657  10.303  23.383  0.00  0.00    +0.000 NA
ATOM     25  N   UNL     1      -0.991  11.381  22.658  0.00  0.00    +0.000 N 
BRANCH  25  26
ATOM     26  C   UNL     1      -2.301  12.004  22.959  0.00  0.00    +0.000 C 
BRANCH  26  27
ATOM     27  C   UNL     1      -2.237  13.535  23.045  0.00  0.00    +0.000 A 
ATOM     28  C   UNL     1      -1.345  14.280  23.876  0.00  0.00    +0.000 A 
ATOM     29  C   UNL     1      -1.322  15.687  23.844  0.00  0.00    +0.000 A 
ATOM     30  C   UNL     1      -2.191  16.379  22.971  0.00  0.00    +0.000 A 
ATOM     31  C   UNL     1      -3.065  15.669  22.180  0.00  0.00    +0.000 A 
ATOM     32  C   UNL     1      -3.077  14.287  22.187  0.00  0.00    +0.000 A 
ENDBRANCH  26  27
ENDBRANCH  25  26
ENDBRANCH   1  21
TORSDOF 7
ENDMDL
MODEL 7
REMARK VINA RESULT:      -6.2      2.838      5.916
REMARK  Name = 
REMARK  8 active torsions:
REMARK  status: ('A' for Active; 'I' for Inactive)
REMARK    1  A    between atoms: C_1  and  O_2
REMARK    2  A    between atoms: O_2  and  C_3
REMARK    3  A    between atoms: C_8  and  C_9
REMARK    4  A    between atoms: C_9  and  C_10
REMARK    5  A    between atoms: C_9  and  N_22
REMARK    6  A    between atoms: N_14  and  C_15
REMARK    7  A    between atoms: C_15  and  C_16
REMARK    8  A    between atoms: N_25  and  C_26
REMARK                            x       y       z     vdW  Elec       q    Type
REMARK                         _______ _______ _______ _____ _____    ______ ____
ROOT
ATOM      1  C   UNL     1       1.325  10.588  20.342  0.00  0.00    +0.000 C 
ENDROOT
BRANCH   1   7
ATOM      2  C   UNL     1       1.392  13.313  20.409  0.00  0.00    +0.000 A 
ATOM      3  C   UNL     1       1.004  14.502  19.746  0.00  0.00    +0.000 A 
ATOM      4  C   UNL     1       0.123  14.495  18.675  0.00  0.00    +0.000 A 
ATOM      5  C   UNL     1      -0.425  13.301  18.250  0.00  0.00    +0.000 A 
ATOM      6  C   UNL     1      -0.097  12.097  18.897  0.00  0.00    +0.000 A 
ATOM      7  C   UNL     1       0.841  12.029  19.969  0.00  0.00    +0.000 A 
BRANCH   2   9
ATOM      8  C   UNL     1       3.509  14.254  21.554  0.00  0.00    +0.000 C 
ATOM      9  O   UNL     1       2.313  13.600  21.367  0.00  0.00    +0.000 OA
ENDBRANCH   2   9
ENDBRANCH   1   7
BRANCH   1  10
ATOM     10  N   UNL     1       1.046   9.433  19.340  0.00  0.00    +0.000 NA
ATOM     11  C   UNL     1       1.703   9.309  17.983  0.00  0.00    +0.000 C 
ATOM     12  C   UNL     1       2.940   8.306  17.846  0.00  0.00    +0.000 C 
ATOM     13  N   UNL     1       2.807   7.009  18.569  0.00  0.00    +0.000 NA
ATOM     14  C   UNL     1       2.206   7.217  19.895  0.00  0.00    +0.000 C 
ATOM     15  C   UNL     1       0.909   8.041  19.853  0.00  0.00    +0.000 C 
BRANCH  13  16
ATOM     16  C   UNL     1       2.593   5.715  17.814  0.00  0.00    +0.000 C 
ATOM     17  C   UNL     1       3.884   4.932  17.442  0.00  0.00    +0.000 C 
ATOM     18  C   UNL     1       3.432   3.482  17.178  0.00  0.00    +0.000 C 
ATOM     19  C   UNL     1       2.043   3.371  17.820  0.00  0.00    +0.000 C 
ATOM     20  C   UNL     1       1.848   4.660  18.621  0.00  0.00    +0.000 C 
ENDBRANCH  13  16
ENDBRANCH   1  10
BRANCH   1  21
ATOM     21  C   UNL     1       0.649  10.423  21.753  0.00  0.00    +0.000 A 
ATOM     22  N   UNL     1       1.254   9.770  22.749  0.00  0.00    +0.000 NA
ATOM     23  N   UNL     1       0.411   9.741  23.777  0.00  0.00    +0.000 NA
ATOM     24  N   UNL     1      -0.736  10.352  23.434  0.00  0.00    +0.000 NA
ATOM     25  N   UNL     1      -0.607  10.809  22.180  0.00  0.00    +0.000 N 
BRANCH  25  26
ATOM     26  C   UNL     1      -1.774  11.523  21.610  0.00  0.00    +0.000 C 
BRANCH  26  27
ATOM     27  C   UNL     1      -1.789  13.020  21.944  0.00  0.00    +0.000 A 
ATOM     28  C   UNL     1      -2.520  14.019  21.231  0.00  0.00    +0.000 A 
ATOM     29  C   UNL     1      -2.517  15.363  21.649  0.00  0.00    +0.000 A 
ATOM     30  C   UNL     1      -1.783  15.734  22.798  0.00  0.00    +0.000 A 
ATOM     31  C   UNL     1      -1.062  14.781  23.480  0.00  0.00    +0.000 A 
ATOM     32  C   UNL     1      -1.080  13.455  23.091  0.00  0.00    +0.000 A 
ENDBRANCH  26  27
ENDBRANCH  25  26
ENDBRANCH   1  21
TORSDOF 7
ENDMDL
MODEL 8
REMARK VINA RESULT:      -6.1      1.209      1.995
REMARK  Name = 
REMARK  8 active torsions:
REMARK  status: ('A' for Active; 'I' for Inactive)
REMARK    1  A    between atoms: C_1  and  O_2
REMARK    2  A    between atoms: O_2  and  C_3
REMARK    3  A    between atoms: C_8  and  C_9
REMARK    4  A    between atoms: C_9  and  C_10
REMARK    5  A    between atoms: C_9  and  N_22
REMARK    6  A    between atoms: N_14  and  C_15
REMARK    7  A    between atoms: C_15  and  C_16
REMARK    8  A    between atoms: N_25  and  C_26
REMARK                            x       y       z     vdW  Elec       q    Type
REMARK                         _______ _______ _______ _____ _____    ______ ____
ROOT
ATOM      1  C   UNL     1       0.372  12.620  20.112  0.00  0.00    +0.000 C 
ENDROOT
BRANCH   1   7
ATOM      2  C   UNL     1      -0.221  10.479  18.531  0.00  0.00    +0.000 A 
ATOM      3  C   UNL     1      -1.250   9.788  17.848  0.00  0.00    +0.000 A 
ATOM      4  C   UNL     1      -2.523  10.318  17.700  0.00  0.00    +0.000 A 
ATOM      5  C   UNL     1      -2.801  11.574  18.204  0.00  0.00    +0.000 A 
ATOM      6  C   UNL     1      -1.803  12.314  18.862  0.00  0.00    +0.000 A 
ATOM      7  C   UNL     1      -0.491  11.804  19.091  0.00  0.00    +0.000 A 
BRANCH   2   9
ATOM      8  C   UNL     1       1.974   9.305  17.838  0.00  0.00    +0.000 C 
ATOM      9  O   UNL     1       0.893   9.702  18.590  0.00  0.00    +0.000 OA
ENDBRANCH   2   9
ENDBRANCH   1   7
BRANCH   1  10
ATOM     10  N   UNL     1       1.905  12.711  19.875  0.00  0.00    +0.000 NA
ATOM     11  C   UNL     1       2.545  12.922  18.520  0.00  0.00    +0.000 C 
ATOM     12  C   UNL     1       3.018  14.402  18.146  0.00  0.00    +0.000 C 
ATOM     13  N   UNL     1       3.669  15.173  19.243  0.00  0.00    +0.000 NA
ATOM     14  C   UNL     1       2.965  14.955  20.515  0.00  0.00    +0.000 C 
ATOM     15  C   UNL     1       2.747  13.468  20.843  0.00  0.00    +0.000 C 
BRANCH  13  16
ATOM     16  C   UNL     1       5.155  15.459  19.216  0.00  0.00    +0.000 C 
ATOM     17  C   UNL     1       5.952  14.770  18.073  0.00  0.00    +0.000 C 
ATOM     18  C   UNL     1       7.256  15.580  17.924  0.00  0.00    +0.000 C 
ATOM     19  C   UNL     1       6.981  16.914  18.630  0.00  0.00    +0.000 C 
ATOM     20  C   UNL     1       5.484  16.922  18.946  0.00  0.00    +0.000 C 
ENDBRANCH  13  16
ENDBRANCH   1  10
BRANCH   1  21
ATOM     21  C   UNL     1      -0.055  11.923  21.456  0.00  0.00    +0.000 A 
ATOM     22  N   UNL     1       0.530  10.799  21.880  0.00  0.00    +0.000 NA
ATOM     23  N   UNL     1      -0.090  10.424  22.996  0.00  0.00    +0.000 NA
ATOM     24  N   UNL     1      -1.080  11.289  23.272  0.00  0.00    +0.000 NA
ATOM     25  N   UNL     1      -1.067  12.251  22.337  0.00  0.00    +0.000 N 
BRANCH  25  26
ATOM     26  C   UNL     1      -2.091  13.315  22.465  0.00  0.00    +0.000 C 
BRANCH  26  27
ATOM     27  C   UNL     1      -1.572  14.704  22.070  0.00  0.00    +0.000 A 
ATOM     28  C   UNL     1      -0.481  15.385  22.690  0.00  0.00    +0.000 A 
ATOM     29  C   UNL     1      -0.040  16.637  22.220  0.00  0.00    +0.000 A 
ATOM     30  C   UNL     1      -0.683  17.231  21.110  0.00  0.00    +0.000 A 
ATOM     31  C   UNL     1      -1.746  16.588  20.519  0.00  0.00    +0.000 A 
ATOM     32  C   UNL     1      -2.169  15.348  20.958  0.00  0.00    +0.000 A 
ENDBRANCH  26  27
ENDBRANCH  25  26
ENDBRANCH   1  21
TORSDOF 7
ENDMDL
MODEL 9
REMARK VINA RESULT:      -6.0      1.215      1.753
REMARK  Name = 
REMARK  8 active torsions:
REMARK  status: ('A' for Active; 'I' for Inactive)
REMARK    1  A    between atoms: C_1  and  O_2
REMARK    2  A    between atoms: O_2  and  C_3
REMARK    3  A    between atoms: C_8  and  C_9
REMARK    4  A    between atoms: C_9  and  C_10
REMARK    5  A    between atoms: C_9  and  N_22
REMARK    6  A    between atoms: N_14  and  C_15
REMARK    7  A    between atoms: C_15  and  C_16
REMARK    8  A    between atoms: N_25  and  C_26
REMARK                            x       y       z     vdW  Elec       q    Type
REMARK                         _______ _______ _______ _____ _____    ______ ____
ROOT
ATOM      1  C   UNL     1       0.257  12.599  20.503  0.00  0.00    +0.000 C 
ENDROOT
BRANCH   1   7
ATOM      2  C   UNL     1      -0.064  10.666  18.607  0.00  0.00    +0.000 A 
ATOM      3  C   UNL     1      -1.001   9.956  17.819  0.00  0.00    +0.000 A 
ATOM      4  C   UNL     1      -2.336  10.326  17.746  0.00  0.00    +0.000 A 
ATOM      5  C   UNL     1      -2.773  11.440  18.436  0.00  0.00    +0.000 A 
ATOM      6  C   UNL     1      -1.874  12.198  19.207  0.00  0.00    +0.000 A 
ATOM      7  C   UNL     1      -0.502  11.841  19.364  0.00  0.00    +0.000 A 
BRANCH   2   9
ATOM      8  C   UNL     1       1.821   9.054  17.885  0.00  0.00    +0.000 C 
ATOM      9  O   UNL     1       1.145  10.048  18.553  0.00  0.00    +0.000 OA
ENDBRANCH   2   9
ENDBRANCH   1   7
BRANCH   1  10
ATOM     10  N   UNL     1       1.735  13.013  20.257  0.00  0.00    +0.000 NA
ATOM     11  C   UNL     1       2.255  13.568  18.949  0.00  0.00    +0.000 C 
ATOM     12  C   UNL     1       2.434  15.152  18.833  0.00  0.00    +0.000 C 
ATOM     13  N   UNL     1       2.992  15.832  20.037  0.00  0.00    +0.000 NA
ATOM     14  C   UNL     1       2.405  15.273  21.263  0.00  0.00    +0.000 C 
ATOM     15  C   UNL     1       2.475  13.738  21.328  0.00  0.00    +0.000 C 
BRANCH  13  16
ATOM     16  C   UNL     1       4.398  16.390  20.032  0.00  0.00    +0.000 C 
ATOM     17  C   UNL     1       5.514  15.406  20.483  0.00  0.00    +0.000 C 
ATOM     18  C   UNL     1       6.830  15.977  19.917  0.00  0.00    +0.000 C 
ATOM     19  C   UNL     1       6.402  16.968  18.828  0.00  0.00    +0.000 C 
ATOM     20  C   UNL     1       4.896  16.762  18.641  0.00  0.00    +0.000 C 
ENDBRANCH  13  16
ENDBRANCH   1  10
BRANCH   1  21
ATOM     21  C   UNL     1       0.036  11.600  21.698  0.00  0.00    +0.000 A 
ATOM     22  N   UNL     1       0.906  10.622  21.965  0.00  0.00    +0.000 NA
ATOM     23  N   UNL     1       0.411   9.913  22.976  0.00  0.00    +0.000 NA
ATOM     24  N   UNL     1      -0.780  10.420  23.339  0.00  0.00    +0.000 NA
ATOM     25  N   UNL     1      -1.030  11.491  22.571  0.00  0.00    +0.000 N 
BRANCH  25  26
ATOM     26  C   UNL     1      -2.306  12.201  22.817  0.00  0.00    +0.000 C 
BRANCH  26  27
ATOM     27  C   UNL     1      -2.152  13.728  22.849  0.00  0.00    +0.000 A 
ATOM     28  C   UNL     1      -2.770  14.640  21.940  0.00  0.00    +0.000 A 
ATOM     29  C   UNL     1      -2.614  16.031  22.084  0.00  0.00    +0.000 A 
ATOM     30  C   UNL     1      -1.837  16.539  23.150  0.00  0.00    +0.000 A 
ATOM     31  C   UNL     1      -1.225  15.666  24.019  0.00  0.00    +0.000 A 
ATOM     32  C   UNL     1      -1.392  14.300  23.899  0.00  0.00    +0.000 A 
ENDBRANCH  26  27
ENDBRANCH  25  26
ENDBRANCH   1  21
TORSDOF 7
ENDMDL
