MODEL 1
REMARK VINA RESULT:      -7.1      0.000      0.000
REMARK  Name = 
REMARK  7 active torsions:
REMARK  status: ('A' for Active; 'I' for Inactive)
REMARK    1  A    between atoms: N_3  and  C_4
REMARK    2  A    between atoms: C_9  and  C_10
REMARK    3  A    between atoms: N_15  and  C_16
REMARK    4  A    between atoms: C_21  and  C_22
REMARK    5  A    between atoms: C_22  and  C_23
REMARK    6  A    between atoms: C_23  and  C_24
REMARK    7  A    between atoms: C_24  and  O_25
REMARK                            x       y       z     vdW  Elec       q    Type
REMARK                         _______ _______ _______ _____ _____    ______ ____
ROOT
ATOM      1  O   UNL     1       0.024   8.701  20.007  0.00  0.00    +0.000 OA
ATOM      2  C   UNL     1       0.920   8.743  20.838  0.00  0.00    +0.000 C 
ATOM      3  N   UNL     1       1.948   7.813  20.898  0.00  0.00    +0.000 N 
ATOM      4  N   UNL     1       1.028   9.704  21.844  0.00  0.00    +0.000 N 
ATOM      5  H   UNL     1       2.525   7.820  21.725  0.00  0.00    +0.000 HD
ATOM      6  H   UNL     1       1.687   9.512  22.579  0.00  0.00    +0.000 HD
ENDROOT
BRANCH   3   7
ATOM      7  C   UNL     1       2.162   6.751  19.985  0.00  0.00    +0.000 A 
ATOM      8  C   UNL     1       2.793   6.900  18.749  0.00  0.00    +0.000 A 
ATOM      9  C   UNL     1       2.985   5.802  17.907  0.00  0.00    +0.000 A 
ATOM     10  C   UNL     1       2.539   4.530  18.275  0.00  0.00    +0.000 A 
ATOM     11 CL   UNL     1       2.857   3.251  17.166  0.00  0.00    +0.000 Cl
ATOM     12  C   UNL     1       1.885   4.350  19.496  0.00  0.00    +0.000 A 
ATOM     13  C   UNL     1       1.724   5.473  20.350  0.00  0.00    +0.000 A 
BRANCH  12  14
ATOM     14  C   UNL     1       1.325   3.037  19.978  0.00  0.00    +0.000 C 
ATOM     15  F   UNL     1       0.334   2.483  19.235  0.00  0.00    +0.000 F 
ATOM     16  F   UNL     1       2.291   2.083  20.078  0.00  0.00    +0.000 F 
ATOM     17  F   UNL     1       0.806   3.152  21.238  0.00  0.00    +0.000 F 
ENDBRANCH  12  14
ENDBRANCH   3   7
BRANCH   4  18
ATOM     18  C   UNL     1       0.138  10.793  22.061  0.00  0.00    +0.000 A 
ATOM     19  C   UNL     1      -0.975  10.668  22.908  0.00  0.00    +0.000 A 
ATOM     20  C   UNL     1      -1.775  11.761  23.238  0.00  0.00    +0.000 A 
ATOM     21  C   UNL     1      -1.487  13.008  22.715  0.00  0.00    +0.000 A 
ATOM     22  C   UNL     1      -0.435  13.144  21.812  0.00  0.00    +0.000 A 
ATOM     23  C   UNL     1       0.371  12.042  21.443  0.00  0.00    +0.000 A 
BRANCH  23  24
ATOM     24  C   UNL     1       1.442  12.303  20.399  0.00  0.00    +0.000 C 
BRANCH  24  25
ATOM     25  C   UNL     1       1.001  11.932  18.974  0.00  0.00    +0.000 C 
BRANCH  25  26
ATOM     26  C   UNL     1       2.071  11.137  18.234  0.00  0.00    +0.000 C 
BRANCH  26  27
ATOM     27  O   UNL     1       1.497  10.037  17.543  0.00  0.00    +0.000 OA
ATOM     28  H   UNL     1       0.576   9.948  17.838  0.00  0.00    +0.000 HD
ENDBRANCH  26  27
ENDBRANCH  25  26
ENDBRANCH  24  25
ENDBRANCH  23  24
ENDBRANCH   4  18
TORSDOF 7
ENDMDL
MODEL 2
REMARK VINA RESULT:      -7.1      4.280      8.082
REMARK  Name = 
REMARK  7 active torsions:
REMARK  status: ('A' for Active; 'I' for Inactive)
REMARK    1  A    between atoms: N_3  and  C_4
REMARK    2  A    between atoms: C_9  and  C_10
REMARK    3  A    between atoms: N_15  and  C_16
REMARK    4  A    between atoms: C_21  and  C_22
REMARK    5  A    between atoms: C_22  and  C_23
REMARK    6  A    between atoms: C_23  and  C_24
REMARK    7  A    between atoms: C_24  and  O_25
REMARK                            x       y       z     vdW  Elec       q    Type
REMARK                         _______ _______ _______ _____ _____    ______ ____
ROOT
ATOM      1  O   UNL     1       2.167   7.985  18.857  0.00  0.00    +0.000 OA
ATOM      2  C   UNL     1       2.217   7.264  19.843  0.00  0.00    +0.000 C 
ATOM      3  N   UNL     1       1.622   7.586  21.054  0.00  0.00    +0.000 N 
ATOM      4  N   UNL     1       2.886   6.040  19.900  0.00  0.00    +0.000 N 
ATOM      5  H   UNL     1       1.876   7.025  21.853  0.00  0.00    +0.000 HD
ATOM      6  H   UNL     1       3.023   5.647  20.815  0.00  0.00    +0.000 HD
ENDROOT
BRANCH   3   7
ATOM      7  C   UNL     1       0.817   8.723  21.308  0.00  0.00    +0.000 A 
ATOM      8  C   UNL     1       0.497   9.183  22.587  0.00  0.00    +0.000 A 
ATOM      9  C   UNL     1      -0.289  10.324  22.761  0.00  0.00    +0.000 A 
ATOM     10  C   UNL     1      -0.783  11.028  21.660  0.00  0.00    +0.000 A 
ATOM     11 CL   UNL     1      -1.718  12.435  22.000  0.00  0.00    +0.000 Cl
ATOM     12  C   UNL     1      -0.499  10.583  20.366  0.00  0.00    +0.000 A 
ATOM     13  C   UNL     1       0.323   9.437  20.211  0.00  0.00    +0.000 A 
BRANCH  12  14
ATOM     14  C   UNL     1      -1.012  11.235  19.109  0.00  0.00    +0.000 C 
ATOM     15  F   UNL     1      -0.646  12.523  18.892  0.00  0.00    +0.000 F 
ATOM     16  F   UNL     1      -0.634  10.550  17.994  0.00  0.00    +0.000 F 
ATOM     17  F   UNL     1      -2.380  11.242  19.077  0.00  0.00    +0.000 F 
ENDBRANCH  12  14
ENDBRANCH   3   7
BRANCH   4  18
ATOM     18  C   UNL     1       3.598   5.425  18.834  0.00  0.00    +0.000 A 
ATOM     19  C   UNL     1       4.946   5.732  18.582  0.00  0.00    +0.000 A 
ATOM     20  C   UNL     1       5.694   5.038  17.632  0.00  0.00    +0.000 A 
ATOM     21  C   UNL     1       5.105   4.025  16.897  0.00  0.00    +0.000 A 
ATOM     22  C   UNL     1       3.750   3.752  17.073  0.00  0.00    +0.000 A 
ATOM     23  C   UNL     1       2.968   4.463  18.012  0.00  0.00    +0.000 A 
BRANCH  23  24
ATOM     24  C   UNL     1       1.489   4.121  18.061  0.00  0.00    +0.000 C 
BRANCH  24  25
ATOM     25  C   UNL     1       1.217   2.683  18.528  0.00  0.00    +0.000 C 
BRANCH  25  26
ATOM     26  C   UNL     1       1.564   2.484  20.000  0.00  0.00    +0.000 C 
BRANCH  26  27
ATOM     27  O   UNL     1       0.745   3.297  20.828  0.00  0.00    +0.000 OA
ATOM     28  H   UNL     1       0.252   3.906  20.253  0.00  0.00    +0.000 HD
ENDBRANCH  26  27
ENDBRANCH  25  26
ENDBRANCH  24  25
ENDBRANCH  23  24
ENDBRANCH   4  18
TORSDOF 7
ENDMDL
MODEL 3
REMARK VINA RESULT:      -7.1      2.566      3.281
REMARK  Name = 
REMARK  7 active torsions:
REMARK  status: ('A' for Active; 'I' for Inactive)
REMARK    1  A    between atoms: N_3  and  C_4
REMARK    2  A    between atoms: C_9  and  C_10
REMARK    3  A    between atoms: N_15  and  C_16
REMARK    4  A    between atoms: C_21  and  C_22
REMARK    5  A    between atoms: C_22  and  C_23
REMARK    6  A    between atoms: C_23  and  C_24
REMARK    7  A    between atoms: C_24  and  O_25
REMARK                            x       y       z     vdW  Elec       q    Type
REMARK                         _______ _______ _______ _____ _____    ______ ____
ROOT
ATOM      1  O   UNL     1       1.710   8.584  19.914  0.00  0.00    +0.000 OA
ATOM      2  C   UNL     1       1.854   8.685  18.704  0.00  0.00    +0.000 C 
ATOM      3  N   UNL     1       2.487   7.725  17.929  0.00  0.00    +0.000 N 
ATOM      4  N   UNL     1       1.427   9.773  17.941  0.00  0.00    +0.000 N 
ATOM      5  H   UNL     1       2.723   7.983  16.982  0.00  0.00    +0.000 HD
ATOM      6  H   UNL     1       1.781   9.828  17.002  0.00  0.00    +0.000 HD
ENDROOT
BRANCH   3   7
ATOM      7  C   UNL     1       2.978   6.478  18.387  0.00  0.00    +0.000 A 
ATOM      8  C   UNL     1       4.269   6.008  18.138  0.00  0.00    +0.000 A 
ATOM      9  C   UNL     1       4.689   4.773  18.637  0.00  0.00    +0.000 A 
ATOM     10  C   UNL     1       3.825   3.972  19.388  0.00  0.00    +0.000 A 
ATOM     11 CL   UNL     1       4.466   2.483  19.973  0.00  0.00    +0.000 Cl
ATOM     12  C   UNL     1       2.519   4.404  19.638  0.00  0.00    +0.000 A 
ATOM     13  C   UNL     1       2.120   5.673  19.145  0.00  0.00    +0.000 A 
BRANCH  12  14
ATOM     14  C   UNL     1       1.490   3.608  20.397  0.00  0.00    +0.000 C 
ATOM     15  F   UNL     1       1.226   2.356  19.946  0.00  0.00    +0.000 F 
ATOM     16  F   UNL     1       1.827   3.465  21.709  0.00  0.00    +0.000 F 
ATOM     17  F   UNL     1       0.280   4.246  20.407  0.00  0.00    +0.000 F 
ENDBRANCH  12  14
ENDBRANCH   3   7
BRANCH   4  18
ATOM     18  C   UNL     1       0.747  10.923  18.429  0.00  0.00    +0.000 A 
ATOM     19  C   UNL     1       1.451  12.014  18.965  0.00  0.00    +0.000 A 
ATOM     20  C   UNL     1       0.809  13.201  19.319  0.00  0.00    +0.000 A 
ATOM     21  C   UNL     1      -0.559  13.319  19.158  0.00  0.00    +0.000 A 
ATOM     22  C   UNL     1      -1.291  12.225  18.701  0.00  0.00    +0.000 A 
ATOM     23  C   UNL     1      -0.663  11.004  18.363  0.00  0.00    +0.000 A 
BRANCH  23  24
ATOM     24  C   UNL     1      -1.575   9.865  17.943  0.00  0.00    +0.000 C 
BRANCH  24  25
ATOM     25  C   UNL     1      -2.867  10.344  17.264  0.00  0.00    +0.000 C 
BRANCH  25  26
ATOM     26  C   UNL     1      -2.715  10.439  15.750  0.00  0.00    +0.000 C 
BRANCH  26  27
ATOM     27  O   UNL     1      -3.385  11.584  15.244  0.00  0.00    +0.000 OA
ATOM     28  H   UNL     1      -3.748  11.354  14.372  0.00  0.00    +0.000 HD
ENDBRANCH  26  27
ENDBRANCH  25  26
ENDBRANCH  24  25
ENDBRANCH  23  24
ENDBRANCH   4  18
TORSDOF 7
ENDMDL
MODEL 4
REMARK VINA RESULT:      -7.0      4.613      8.349
REMARK  Name = 
REMARK  7 active torsions:
REMARK  status: ('A' for Active; 'I' for Inactive)
REMARK    1  A    between atoms: N_3  and  C_4
REMARK    2  A    between atoms: C_9  and  C_10
REMARK    3  A    between atoms: N_15  and  C_16
REMARK    4  A    between atoms: C_21  and  C_22
REMARK    5  A    between atoms: C_22  and  C_23
REMARK    6  A    between atoms: C_23  and  C_24
REMARK    7  A    between atoms: C_24  and  O_25
REMARK                            x       y       z     vdW  Elec       q    Type
REMARK                         _______ _______ _______ _____ _____    ______ ____
ROOT
ATOM      1  O   UNL     1       1.525   8.091  19.151  0.00  0.00    +0.000 OA
ATOM      2  C   UNL     1       1.946   7.534  20.154  0.00  0.00    +0.000 C 
ATOM      3  N   UNL     1       1.708   7.996  21.440  0.00  0.00    +0.000 N 
ATOM      4  N   UNL     1       2.734   6.381  20.152  0.00  0.00    +0.000 N 
ATOM      5  H   UNL     1       2.250   7.583  22.183  0.00  0.00    +0.000 HD
ATOM      6  H   UNL     1       3.181   6.142  21.021  0.00  0.00    +0.000 HD
ENDROOT
BRANCH   3   7
ATOM      7  C   UNL     1       0.895   9.102  21.788  0.00  0.00    +0.000 A 
ATOM      8  C   UNL     1      -0.085   9.068  22.781  0.00  0.00    +0.000 A 
ATOM      9  C   UNL     1      -0.839  10.206  23.082  0.00  0.00    +0.000 A 
ATOM     10  C   UNL     1      -0.638  11.402  22.387  0.00  0.00    +0.000 A 
ATOM     11 CL   UNL     1      -1.608  12.743  22.866  0.00  0.00    +0.000 Cl
ATOM     12  C   UNL     1       0.321  11.464  21.373  0.00  0.00    +0.000 A 
ATOM     13  C   UNL     1       1.094  10.306  21.101  0.00  0.00    +0.000 A 
BRANCH  12  14
ATOM     14  C   UNL     1       0.593  12.683  20.531  0.00  0.00    +0.000 C 
ATOM     15  F   UNL     1      -0.453  13.195  19.835  0.00  0.00    +0.000 F 
ATOM     16  F   UNL     1       1.081  13.713  21.277  0.00  0.00    +0.000 F 
ATOM     17  F   UNL     1       1.558  12.433  19.595  0.00  0.00    +0.000 F 
ENDBRANCH  12  14
ENDBRANCH   3   7
BRANCH   4  18
ATOM     18  C   UNL     1       3.159   5.660  19.002  0.00  0.00    +0.000 A 
ATOM     19  C   UNL     1       4.268   6.077  18.247  0.00  0.00    +0.000 A 
ATOM     20  C   UNL     1       4.779   5.307  17.204  0.00  0.00    +0.000 A 
ATOM     21  C   UNL     1       4.183   4.102  16.880  0.00  0.00    +0.000 A 
ATOM     22  C   UNL     1       3.036   3.702  17.562  0.00  0.00    +0.000 A 
ATOM     23  C   UNL     1       2.485   4.483  18.605  0.00  0.00    +0.000 A 
BRANCH  23  24
ATOM     24  C   UNL     1       1.196   3.975  19.225  0.00  0.00    +0.000 C 
BRANCH  24  25
ATOM     25  C   UNL     1       1.388   2.700  20.062  0.00  0.00    +0.000 C 
BRANCH  25  26
ATOM     26  C   UNL     1       1.593   3.012  21.540  0.00  0.00    +0.000 C 
BRANCH  26  27
ATOM     27  O   UNL     1       2.820   2.470  22.007  0.00  0.00    +0.000 OA
ATOM     28  H   UNL     1       3.528   3.094  21.775  0.00  0.00    +0.000 HD
ENDBRANCH  26  27
ENDBRANCH  25  26
ENDBRANCH  24  25
ENDBRANCH  23  24
ENDBRANCH   4  18
TORSDOF 7
ENDMDL
MODEL 5
REMARK VINA RESULT:      -7.0      0.930      1.256
REMARK  Name = 
REMARK  7 active torsions:
REMARK  status: ('A' for Active; 'I' for Inactive)
REMARK    1  A    between atoms: N_3  and  C_4
REMARK    2  A    between atoms: C_9  and  C_10
REMARK    3  A    between atoms: N_15  and  C_16
REMARK    4  A    between atoms: C_21  and  C_22
REMARK    5  A    between atoms: C_22  and  C_23
REMARK    6  A    between atoms: C_23  and  C_24
REMARK    7  A    between atoms: C_24  and  O_25
REMARK                            x       y       z     vdW  Elec       q    Type
REMARK                         _______ _______ _______ _____ _____    ______ ____
ROOT
ATOM      1  O   UNL     1      -0.176   8.775  20.171  0.00  0.00    +0.000 OA
ATOM      2  C   UNL     1       0.718   8.831  21.003  0.00  0.00    +0.000 C 
ATOM      3  N   UNL     1       1.764   7.921  21.061  0.00  0.00    +0.000 N 
ATOM      4  N   UNL     1       0.805   9.790  22.014  0.00  0.00    +0.000 N 
ATOM      5  H   UNL     1       2.340   7.937  21.889  0.00  0.00    +0.000 HD
ATOM      6  H   UNL     1       1.467   9.608  22.748  0.00  0.00    +0.000 HD
ENDROOT
BRANCH   3   7
ATOM      7  C   UNL     1       2.000   6.868  20.144  0.00  0.00    +0.000 A 
ATOM      8  C   UNL     1       2.592   7.042  18.891  0.00  0.00    +0.000 A 
ATOM      9  C   UNL     1       2.809   5.951  18.046  0.00  0.00    +0.000 A 
ATOM     10  C   UNL     1       2.431   4.662  18.428  0.00  0.00    +0.000 A 
ATOM     11 CL   UNL     1       2.776   3.395  17.312  0.00  0.00    +0.000 Cl
ATOM     12  C   UNL     1       1.818   4.456  19.666  0.00  0.00    +0.000 A 
ATOM     13  C   UNL     1       1.630   5.572  20.522  0.00  0.00    +0.000 A 
BRANCH  12  14
ATOM     14  C   UNL     1       1.330   3.120  20.164  0.00  0.00    +0.000 C 
ATOM     15  F   UNL     1       0.892   3.066  21.447  0.00  0.00    +0.000 F 
ATOM     16  F   UNL     1       0.308   2.640  19.403  0.00  0.00    +0.000 F 
ATOM     17  F   UNL     1       2.313   2.172  20.082  0.00  0.00    +0.000 F 
ENDBRANCH  12  14
ENDBRANCH   3   7
BRANCH   4  18
ATOM     18  C   UNL     1      -0.106  10.859  22.233  0.00  0.00    +0.000 A 
ATOM     19  C   UNL     1      -1.193  10.723  23.112  0.00  0.00    +0.000 A 
ATOM     20  C   UNL     1      -2.012  11.802  23.443  0.00  0.00    +0.000 A 
ATOM     21  C   UNL     1      -1.770  13.046  22.888  0.00  0.00    +0.000 A 
ATOM     22  C   UNL     1      -0.746  13.191  21.955  0.00  0.00    +0.000 A 
ATOM     23  C   UNL     1       0.078  12.102  21.585  0.00  0.00    +0.000 A 
BRANCH  23  24
ATOM     24  C   UNL     1       1.113  12.370  20.508  0.00  0.00    +0.000 C 
BRANCH  24  25
ATOM     25  C   UNL     1       0.530  13.063  19.267  0.00  0.00    +0.000 C 
BRANCH  25  26
ATOM     26  C   UNL     1      -0.386  12.139  18.473  0.00  0.00    +0.000 C 
BRANCH  26  27
ATOM     27  O   UNL     1      -1.048  12.849  17.437  0.00  0.00    +0.000 OA
ATOM     28  H   UNL     1      -0.656  12.576  16.591  0.00  0.00    +0.000 HD
ENDBRANCH  26  27
ENDBRANCH  25  26
ENDBRANCH  24  25
ENDBRANCH  23  24
ENDBRANCH   4  18
TORSDOF 7
ENDMDL
MODEL 6
REMARK VINA RESULT:      -6.9      2.485      3.426
REMARK  Name = 
REMARK  7 active torsions:
REMARK  status: ('A' for Active; 'I' for Inactive)
REMARK    1  A    between atoms: N_3  and  C_4
REMARK    2  A    between atoms: C_9  and  C_10
REMARK    3  A    between atoms: N_15  and  C_16
REMARK    4  A    between atoms: C_21  and  C_22
REMARK    5  A    between atoms: C_22  and  C_23
REMARK    6  A    between atoms: C_23  and  C_24
REMARK    7  A    between atoms: C_24  and  O_25
REMARK                            x       y       z     vdW  Elec       q    Type
REMARK                         _______ _______ _______ _____ _____    ______ ____
ROOT
ATOM      1  O   UNL     1       2.050   9.414  17.305  0.00  0.00    +0.000 OA
ATOM      2  C   UNL     1       1.815   9.038  18.444  0.00  0.00    +0.000 C 
ATOM      3  N   UNL     1       2.205   7.800  18.934  0.00  0.00    +0.000 N 
ATOM      4  N   UNL     1       1.112   9.778  19.397  0.00  0.00    +0.000 N 
ATOM      5  H   UNL     1       1.804   7.508  19.812  0.00  0.00    +0.000 HD
ATOM      6  H   UNL     1       0.812   9.281  20.218  0.00  0.00    +0.000 HD
ENDROOT
BRANCH   3   7
ATOM      7  C   UNL     1       2.986   6.842  18.242  0.00  0.00    +0.000 A 
ATOM      8  C   UNL     1       4.050   7.164  17.398  0.00  0.00    +0.000 A 
ATOM      9  C   UNL     1       4.786   6.163  16.761  0.00  0.00    +0.000 A 
ATOM     10  C   UNL     1       4.470   4.814  16.945  0.00  0.00    +0.000 A 
ATOM     11 CL   UNL     1       5.468   3.670  16.129  0.00  0.00    +0.000 Cl
ATOM     12  C   UNL     1       3.398   4.458  17.768  0.00  0.00    +0.000 A 
ATOM     13  C   UNL     1       2.679   5.489  18.426  0.00  0.00    +0.000 A 
BRANCH  12  14
ATOM     14  C   UNL     1       2.941   3.042  18.005  0.00  0.00    +0.000 C 
ATOM     15  F   UNL     1       3.879   2.155  18.421  0.00  0.00    +0.000 F 
ATOM     16  F   UNL     1       1.940   2.983  18.927  0.00  0.00    +0.000 F 
ATOM     17  F   UNL     1       2.411   2.496  16.868  0.00  0.00    +0.000 F 
ENDBRANCH  12  14
ENDBRANCH   3   7
BRANCH   4  18
ATOM     18  C   UNL     1       0.574  11.082  19.214  0.00  0.00    +0.000 A 
ATOM     19  C   UNL     1       1.263  12.224  19.655  0.00  0.00    +0.000 A 
ATOM     20  C   UNL     1       0.815  13.511  19.360  0.00  0.00    +0.000 A 
ATOM     21  C   UNL     1      -0.343  13.688  18.627  0.00  0.00    +0.000 A 
ATOM     22  C   UNL     1      -1.086  12.573  18.244  0.00  0.00    +0.000 A 
ATOM     23  C   UNL     1      -0.664  11.260  18.557  0.00  0.00    +0.000 A 
BRANCH  23  24
ATOM     24  C   UNL     1      -1.594  10.132  18.145  0.00  0.00    +0.000 C 
BRANCH  24  25
ATOM     25  C   UNL     1      -2.937  10.629  17.587  0.00  0.00    +0.000 C 
BRANCH  25  26
ATOM     26  C   UNL     1      -3.196  10.112  16.177  0.00  0.00    +0.000 C 
BRANCH  26  27
ATOM     27  O   UNL     1      -2.381  10.787  15.230  0.00  0.00    +0.000 OA
ATOM     28  H   UNL     1      -2.174  10.162  14.516  0.00  0.00    +0.000 HD
ENDBRANCH  26  27
ENDBRANCH  25  26
ENDBRANCH  24  25
ENDBRANCH  23  24
ENDBRANCH   4  18
TORSDOF 7
ENDMDL
MODEL 7
REMARK VINA RESULT:      -6.9      4.211      8.123
REMARK  Name = 
REMARK  7 active torsions:
REMARK  status: ('A' for Active; 'I' for Inactive)
REMARK    1  A    between atoms: N_3  and  C_4
REMARK    2  A    between atoms: C_9  and  C_10
REMARK    3  A    between atoms: N_15  and  C_16
REMARK    4  A    between atoms: C_21  and  C_22
REMARK    5  A    between atoms: C_22  and  C_23
REMARK    6  A    between atoms: C_23  and  C_24
REMARK    7  A    between atoms: C_24  and  O_25
REMARK                            x       y       z     vdW  Elec       q    Type
REMARK                         _______ _______ _______ _____ _____    ______ ____
ROOT
ATOM      1  O   UNL     1       1.912   8.356  17.641  0.00  0.00    +0.000 OA
ATOM      2  C   UNL     1       2.072   7.901  18.765  0.00  0.00    +0.000 C 
ATOM      3  N   UNL     1       1.548   8.489  19.907  0.00  0.00    +0.000 N 
ATOM      4  N   UNL     1       2.811   6.754  19.062  0.00  0.00    +0.000 N 
ATOM      5  H   UNL     1       1.889   8.152  20.794  0.00  0.00    +0.000 HD
ATOM      6  H   UNL     1       3.034   6.603  20.030  0.00  0.00    +0.000 HD
ENDROOT
BRANCH   3   7
ATOM      7  C   UNL     1       0.701   9.624  19.943  0.00  0.00    +0.000 A 
ATOM      8  C   UNL     1       0.385  10.397  18.825  0.00  0.00    +0.000 A 
ATOM      9  C   UNL     1      -0.472  11.495  18.934  0.00  0.00    +0.000 A 
ATOM     10  C   UNL     1      -1.024  11.853  20.166  0.00  0.00    +0.000 A 
ATOM     11 CL   UNL     1      -2.088  13.209  20.169  0.00  0.00    +0.000 Cl
ATOM     12  C   UNL     1      -0.711  11.113  21.309  0.00  0.00    +0.000 A 
ATOM     13  C   UNL     1       0.139   9.986  21.173  0.00  0.00    +0.000 A 
BRANCH  12  14
ATOM     14  C   UNL     1      -1.212  11.431  22.694  0.00  0.00    +0.000 C 
ATOM     15  F   UNL     1      -2.553  11.567  22.845  0.00  0.00    +0.000 F 
ATOM     16  F   UNL     1      -0.830  10.487  23.598  0.00  0.00    +0.000 F 
ATOM     17  F   UNL     1      -0.679  12.604  23.156  0.00  0.00    +0.000 F 
ENDBRANCH  12  14
ENDBRANCH   3   7
BRANCH   4  18
ATOM     18  C   UNL     1       3.478   5.922  18.121  0.00  0.00    +0.000 A 
ATOM     19  C   UNL     1       4.721   6.287  17.576  0.00  0.00    +0.000 A 
ATOM     20  C   UNL     1       5.450   5.421  16.762  0.00  0.00    +0.000 A 
ATOM     21  C   UNL     1       4.945   4.170  16.461  0.00  0.00    +0.000 A 
ATOM     22  C   UNL     1       3.681   3.813  16.925  0.00  0.00    +0.000 A 
ATOM     23  C   UNL     1       2.914   4.688  17.729  0.00  0.00    +0.000 A 
BRANCH  23  24
ATOM     24  C   UNL     1       1.524   4.212  18.115  0.00  0.00    +0.000 C 
BRANCH  24  25
ATOM     25  C   UNL     1       1.540   2.979  19.032  0.00  0.00    +0.000 C 
BRANCH  25  26
ATOM     26  C   UNL     1       1.324   3.353  20.495  0.00  0.00    +0.000 C 
BRANCH  26  27
ATOM     27  O   UNL     1       1.053   4.740  20.629  0.00  0.00    +0.000 OA
ATOM     28  H   UNL     1       1.788   5.228  20.221  0.00  0.00    +0.000 HD
ENDBRANCH  26  27
ENDBRANCH  25  26
ENDBRANCH  24  25
ENDBRANCH  23  24
ENDBRANCH   4  18
TORSDOF 7
ENDMDL
MODEL 8
REMARK VINA RESULT:      -6.9      4.381      8.085
REMARK  Name = 
REMARK  7 active torsions:
REMARK  status: ('A' for Active; 'I' for Inactive)
REMARK    1  A    between atoms: N_3  and  C_4
REMARK    2  A    between atoms: C_9  and  C_10
REMARK    3  A    between atoms: N_15  and  C_16
REMARK    4  A    between atoms: C_21  and  C_22
REMARK    5  A    between atoms: C_22  and  C_23
REMARK    6  A    between atoms: C_23  and  C_24
REMARK    7  A    between atoms: C_24  and  O_25
REMARK                            x       y       z     vdW  Elec       q    Type
REMARK                         _______ _______ _______ _____ _____    ______ ____
ROOT
ATOM      1  O   UNL     1       2.211   8.646  17.486  0.00  0.00    +0.000 OA
ATOM      2  C   UNL     1       2.239   8.061  18.559  0.00  0.00    +0.000 C 
ATOM      3  N   UNL     1       1.600   8.528  19.699  0.00  0.00    +0.000 N 
ATOM      4  N   UNL     1       2.923   6.868  18.798  0.00  0.00    +0.000 N 
ATOM      5  H   UNL     1       1.837   8.082  20.572  0.00  0.00    +0.000 HD
ATOM      6  H   UNL     1       3.036   6.601  19.760  0.00  0.00    +0.000 HD
ENDROOT
BRANCH   3   7
ATOM      7  C   UNL     1       0.772   9.675  19.776  0.00  0.00    +0.000 A 
ATOM      8  C   UNL     1       0.967  10.718  20.685  0.00  0.00    +0.000 A 
ATOM      9  C   UNL     1       0.118  11.827  20.691  0.00  0.00    +0.000 A 
ATOM     10  C   UNL     1      -0.953  11.915  19.798  0.00  0.00    +0.000 A 
ATOM     11 CL   UNL     1      -1.913  13.344  19.884  0.00  0.00    +0.000 Cl
ATOM     12  C   UNL     1      -1.188  10.879  18.890  0.00  0.00    +0.000 A 
ATOM     13  C   UNL     1      -0.298   9.774  18.881  0.00  0.00    +0.000 A 
BRANCH  12  14
ATOM     14  C   UNL     1      -2.333  10.847  17.912  0.00  0.00    +0.000 C 
ATOM     15  F   UNL     1      -2.483   9.714  17.180  0.00  0.00    +0.000 F 
ATOM     16  F   UNL     1      -3.530  11.050  18.529  0.00  0.00    +0.000 F 
ATOM     17  F   UNL     1      -2.229  11.855  16.994  0.00  0.00    +0.000 F 
ENDBRANCH  12  14
ENDBRANCH   3   7
BRANCH   4  18
ATOM     18  C   UNL     1       3.678   6.131  17.843  0.00  0.00    +0.000 A 
ATOM     19  C   UNL     1       4.833   6.670  17.253  0.00  0.00    +0.000 A 
ATOM     20  C   UNL     1       5.658   5.911  16.423  0.00  0.00    +0.000 A 
ATOM     21  C   UNL     1       5.338   4.594  16.152  0.00  0.00    +0.000 A 
ATOM     22  C   UNL     1       4.158   4.058  16.663  0.00  0.00    +0.000 A 
ATOM     23  C   UNL     1       3.294   4.820  17.484  0.00  0.00    +0.000 A 
BRANCH  23  24
ATOM     24  C   UNL     1       2.005   4.147  17.921  0.00  0.00    +0.000 C 
BRANCH  24  25
ATOM     25  C   UNL     1       2.091   3.531  19.326  0.00  0.00    +0.000 C 
BRANCH  25  26
ATOM     26  C   UNL     1       1.065   4.135  20.279  0.00  0.00    +0.000 C 
BRANCH  26  27
ATOM     27  O   UNL     1       1.490   5.410  20.739  0.00  0.00    +0.000 OA
ATOM     28  H   UNL     1       2.439   5.353  20.937  0.00  0.00    +0.000 HD
ENDBRANCH  26  27
ENDBRANCH  25  26
ENDBRANCH  24  25
ENDBRANCH  23  24
ENDBRANCH   4  18
TORSDOF 7
ENDMDL
MODEL 9
REMARK VINA RESULT:      -6.8      1.999      2.829
REMARK  Name = 
REMARK  7 active torsions:
REMARK  status: ('A' for Active; 'I' for Inactive)
REMARK    1  A    between atoms: N_3  and  C_4
REMARK    2  A    between atoms: C_9  and  C_10
REMARK    3  A    between atoms: N_15  and  C_16
REMARK    4  A    between atoms: C_21  and  C_22
REMARK    5  A    between atoms: C_22  and  C_23
REMARK    6  A    between atoms: C_23  and  C_24
REMARK    7  A    between atoms: C_24  and  O_25
REMARK                            x       y       z     vdW  Elec       q    Type
REMARK                         _______ _______ _______ _____ _____    ______ ____
ROOT
ATOM      1  O   UNL     1       1.746   9.050  18.266  0.00  0.00    +0.000 OA
ATOM      2  C   UNL     1       1.490   8.980  19.459  0.00  0.00    +0.000 C 
ATOM      3  N   UNL     1       1.673   7.829  20.212  0.00  0.00    +0.000 N 
ATOM      4  N   UNL     1       0.964  10.023  20.223  0.00  0.00    +0.000 N 
ATOM      5  H   UNL     1       1.259   7.811  21.132  0.00  0.00    +0.000 HD
ATOM      6  H   UNL     1       0.611   9.779  21.133  0.00  0.00    +0.000 HD
ENDROOT
BRANCH   3   7
ATOM      7  C   UNL     1       2.247   6.618  19.752  0.00  0.00    +0.000 A 
ATOM      8  C   UNL     1       3.113   6.530  18.660  0.00  0.00    +0.000 A 
ATOM      9  C   UNL     1       3.654   5.302  18.274  0.00  0.00    +0.000 A 
ATOM     10  C   UNL     1       3.333   4.129  18.963  0.00  0.00    +0.000 A 
ATOM     11 CL   UNL     1       4.085   2.680  18.410  0.00  0.00    +0.000 Cl
ATOM     12  C   UNL     1       2.453   4.179  20.047  0.00  0.00    +0.000 A 
ATOM     13  C   UNL     1       1.935   5.440  20.440  0.00  0.00    +0.000 A 
BRANCH  12  14
ATOM     14  C   UNL     1       2.003   2.976  20.835  0.00  0.00    +0.000 C 
ATOM     15  F   UNL     1       1.048   3.182  21.776  0.00  0.00    +0.000 F 
ATOM     16  F   UNL     1       1.521   1.993  20.025  0.00  0.00    +0.000 F 
ATOM     17  F   UNL     1       3.050   2.405  21.507  0.00  0.00    +0.000 F 
ENDBRANCH  12  14
ENDBRANCH   3   7
BRANCH   4  18
ATOM     18  C   UNL     1       0.658  11.331  19.755  0.00  0.00    +0.000 A 
ATOM     19  C   UNL     1       1.513  12.416  20.011  0.00  0.00    +0.000 A 
ATOM     20  C   UNL     1       1.298  13.671  19.443  0.00  0.00    +0.000 A 
ATOM     21  C   UNL     1       0.210  13.876  18.614  0.00  0.00    +0.000 A 
ATOM     22  C   UNL     1      -0.696  12.837  18.406  0.00  0.00    +0.000 A 
ATOM     23  C   UNL     1      -0.510  11.565  18.995  0.00  0.00    +0.000 A 
BRANCH  23  24
ATOM     24  C   UNL     1      -1.601  10.538  18.749  0.00  0.00    +0.000 C 
BRANCH  24  25
ATOM     25  C   UNL     1      -1.549   9.925  17.341  0.00  0.00    +0.000 C 
BRANCH  25  26
ATOM     26  C   UNL     1      -2.772  10.296  16.510  0.00  0.00    +0.000 C 
BRANCH  26  27
ATOM     27  O   UNL     1      -2.511  11.438  15.706  0.00  0.00    +0.000 OA
ATOM     28  H   UNL     1      -1.930  11.162  14.978  0.00  0.00    +0.000 HD
ENDBRANCH  26  27
ENDBRANCH  25  26
ENDBRANCH  24  25
ENDBRANCH  23  24
ENDBRANCH   4  18
TORSDOF 7
ENDMDL
