MODEL 1
REMARK VINA RESULT:      -9.2      0.000      0.000
REMARK  Name = 
REMARK  6 active torsions:
REMARK  status: ('A' for Active; 'I' for Inactive)
REMARK    1  A    between atoms: C_1  and  C_2
REMARK    2  A    between atoms: C_5  and  N_6
REMARK    3  A    between atoms: N_6  and  S_7
REMARK    4  A    between atoms: S_7  and  C_10
REMARK    5  A    between atoms: C_13  and  C_14
REMARK    6  A    between atoms: C_19  and  C_20
REMARK                            x       y       z     vdW  Elec       q    Type
REMARK                         _______ _______ _______ _____ _____    ______ ____
ROOT
ATOM      1  C   UNL     1      -0.875  11.145  22.037  0.00  0.00    +0.000 A 
ATOM      2  C   UNL     1      -0.223  11.470  20.843  0.00  0.00    +0.000 A 
ATOM      3  C   UNL     1       0.582  10.512  20.218  0.00  0.00    +0.000 A 
ATOM      4  C   UNL     1       0.737   9.234  20.778  0.00  0.00    +0.000 A 
ATOM      5  C   UNL     1       0.107   8.930  21.993  0.00  0.00    +0.000 A 
ATOM      6  C   UNL     1      -0.695   9.887  22.623  0.00  0.00    +0.000 A 
ENDROOT
BRANCH   4   7
ATOM      7  C   UNL     1       1.611   8.248  20.075  0.00  0.00    +0.000 C 
ATOM      8  O   UNL     1       2.084   8.575  18.994  0.00  0.00    +0.000 OA
ATOM      9  N   UNL     1       1.730   7.024  20.697  0.00  0.00    +0.000 N 
ATOM     10  C   UNL     1       2.488   6.017  20.161  0.00  0.00    +0.000 A 
ATOM     11  N   UNL     1       3.372   6.067  19.200  0.00  0.00    +0.000 NA
ATOM     12  C   UNL     1       3.899   4.803  18.974  0.00  0.00    +0.000 A 
ATOM     13  C   UNL     1       3.337   3.803  19.748  0.00  0.00    +0.000 A 
ATOM     14  S   UNL     1       2.223   4.486  20.866  0.00  0.00    +0.000 S 
ATOM     15  H   UNL     1       1.157   6.778  21.488  0.00  0.00    +0.000 HD
BRANCH  12  16
ATOM     16  C   UNL     1       4.955   4.598  17.988  0.00  0.00    +0.000 A 
ATOM     17  C   UNL     1       6.305   4.823  18.292  0.00  0.00    +0.000 A 
ATOM     18  C   UNL     1       7.291   4.673  17.311  0.00  0.00    +0.000 A 
ATOM     19  C   UNL     1       6.939   4.290  16.018  0.00  0.00    +0.000 A 
ATOM     20  C   UNL     1       5.602   4.058  15.705  0.00  0.00    +0.000 A 
ATOM     21  C   UNL     1       4.615   4.216  16.682  0.00  0.00    +0.000 A 
ENDBRANCH  12  16
ENDBRANCH   4   7
BRANCH   1  22
ATOM     22  S   UNL     1      -1.881  12.359  22.872  0.00  0.00    +0.000 S 
ATOM     23  O   UNL     1      -0.982  13.266  23.559  0.00  0.00    +0.000 OA
ATOM     24  O   UNL     1      -2.928  11.663  23.586  0.00  0.00    +0.000 OA
BRANCH  22  25
ATOM     25  N   UNL     1      -2.543  13.231  21.609  0.00  0.00    +0.000 N 
ATOM     26  H   UNL     1      -2.266  14.205  21.524  0.00  0.00    +0.000 HD
BRANCH  25  31
ATOM     27  C   UNL     1      -6.862  11.249  18.437  0.00  0.00    +0.000 C 
ATOM     28  C   UNL     1      -5.744  11.770  19.291  0.00  0.00    +0.000 A 
ATOM     29  C   UNL     1      -5.975  12.228  20.594  0.00  0.00    +0.000 A 
ATOM     30  C   UNL     1      -4.916  12.707  21.375  0.00  0.00    +0.000 A 
ATOM     31  C   UNL     1      -3.624  12.722  20.855  0.00  0.00    +0.000 A 
ATOM     32  C   UNL     1      -3.389  12.293  19.551  0.00  0.00    +0.000 A 
ATOM     33  C   UNL     1      -4.443  11.808  18.776  0.00  0.00    +0.000 A 
ENDBRANCH  25  31
ENDBRANCH  22  25
ENDBRANCH   1  22
TORSDOF 5
ENDMDL
MODEL 2
REMARK VINA RESULT:      -8.8      0.430      1.259
REMARK  Name = 
REMARK  6 active torsions:
REMARK  status: ('A' for Active; 'I' for Inactive)
REMARK    1  A    between atoms: C_1  and  C_2
REMARK    2  A    between atoms: C_5  and  N_6
REMARK    3  A    between atoms: N_6  and  S_7
REMARK    4  A    between atoms: S_7  and  C_10
REMARK    5  A    between atoms: C_13  and  C_14
REMARK    6  A    between atoms: C_19  and  C_20
REMARK                            x       y       z     vdW  Elec       q    Type
REMARK                         _______ _______ _______ _____ _____    ______ ____
ROOT
ATOM      1  C   UNL     1      -0.940  11.265  22.103  0.00  0.00    +0.000 A 
ATOM      2  C   UNL     1      -0.822   9.926  22.490  0.00  0.00    +0.000 A 
ATOM      3  C   UNL     1       0.014   9.072  21.763  0.00  0.00    +0.000 A 
ATOM      4  C   UNL     1       0.734   9.550  20.656  0.00  0.00    +0.000 A 
ATOM      5  C   UNL     1       0.582  10.885  20.256  0.00  0.00    +0.000 A 
ATOM      6  C   UNL     1      -0.258  11.739  20.977  0.00  0.00    +0.000 A 
ENDROOT
BRANCH   4   7
ATOM      7  C   UNL     1       1.610   8.598  19.910  0.00  0.00    +0.000 C 
ATOM      8  O   UNL     1       2.023   8.946  18.811  0.00  0.00    +0.000 OA
ATOM      9  N   UNL     1       1.801   7.378  20.521  0.00  0.00    +0.000 N 
ATOM     10  C   UNL     1       2.570   6.400  19.946  0.00  0.00    +0.000 A 
ATOM     11  N   UNL     1       3.407   6.484  18.948  0.00  0.00    +0.000 NA
ATOM     12  C   UNL     1       3.969   5.242  18.694  0.00  0.00    +0.000 A 
ATOM     13  C   UNL     1       3.477   4.219  19.487  0.00  0.00    +0.000 A 
ATOM     14  S   UNL     1       2.391   4.858  20.656  0.00  0.00    +0.000 S 
ATOM     15  H   UNL     1       1.272   7.109  21.335  0.00  0.00    +0.000 HD
BRANCH  12  16
ATOM     16  C   UNL     1       4.987   5.077  17.661  0.00  0.00    +0.000 A 
ATOM     17  C   UNL     1       4.704   5.286  16.303  0.00  0.00    +0.000 A 
ATOM     18  C   UNL     1       5.684   5.065  15.330  0.00  0.00    +0.000 A 
ATOM     19  C   UNL     1       6.958   4.640  15.702  0.00  0.00    +0.000 A 
ATOM     20  C   UNL     1       7.253   4.434  17.048  0.00  0.00    +0.000 A 
ATOM     21  C   UNL     1       6.272   4.646  18.021  0.00  0.00    +0.000 A 
ENDBRANCH  12  16
ENDBRANCH   4   7
BRANCH   1  22
ATOM     22  S   UNL     1      -2.026  12.365  22.993  0.00  0.00    +0.000 S 
ATOM     23  O   UNL     1      -1.190  13.281  23.745  0.00  0.00    +0.000 OA
ATOM     24  O   UNL     1      -3.038  11.568  23.648  0.00  0.00    +0.000 OA
BRANCH  22  25
ATOM     25  N   UNL     1      -2.724  13.272  21.774  0.00  0.00    +0.000 N 
ATOM     26  H   UNL     1      -2.510  14.265  21.755  0.00  0.00    +0.000 HD
BRANCH  25  31
ATOM     27  C   UNL     1      -6.848  11.214  18.397  0.00  0.00    +0.000 C 
ATOM     28  C   UNL     1      -5.781  11.754  19.304  0.00  0.00    +0.000 A 
ATOM     29  C   UNL     1      -6.076  12.169  20.608  0.00  0.00    +0.000 A 
ATOM     30  C   UNL     1      -5.066  12.667  21.439  0.00  0.00    +0.000 A 
ATOM     31  C   UNL     1      -3.757  12.743  20.968  0.00  0.00    +0.000 A 
ATOM     32  C   UNL     1      -3.459  12.356  19.664  0.00  0.00    +0.000 A 
ATOM     33  C   UNL     1      -4.465  11.852  18.839  0.00  0.00    +0.000 A 
ENDBRANCH  25  31
ENDBRANCH  22  25
ENDBRANCH   1  22
TORSDOF 5
ENDMDL
MODEL 3
REMARK VINA RESULT:      -8.6      3.783     10.994
REMARK  Name = 
REMARK  6 active torsions:
REMARK  status: ('A' for Active; 'I' for Inactive)
REMARK    1  A    between atoms: C_1  and  C_2
REMARK    2  A    between atoms: C_5  and  N_6
REMARK    3  A    between atoms: N_6  and  S_7
REMARK    4  A    between atoms: S_7  and  C_10
REMARK    5  A    between atoms: C_13  and  C_14
REMARK    6  A    between atoms: C_19  and  C_20
REMARK                            x       y       z     vdW  Elec       q    Type
REMARK                         _______ _______ _______ _____ _____    ______ ____
ROOT
ATOM      1  C   UNL     1       2.082   7.325  19.206  0.00  0.00    +0.000 A 
ATOM      2  C   UNL     1       1.564   8.001  20.315  0.00  0.00    +0.000 A 
ATOM      3  C   UNL     1       1.147   9.329  20.177  0.00  0.00    +0.000 A 
ATOM      4  C   UNL     1       1.244   9.982  18.937  0.00  0.00    +0.000 A 
ATOM      5  C   UNL     1       1.796   9.306  17.841  0.00  0.00    +0.000 A 
ATOM      6  C   UNL     1       2.219   7.980  17.977  0.00  0.00    +0.000 A 
ENDROOT
BRANCH   4   7
ATOM      7  C   UNL     1       0.789  11.401  18.841  0.00  0.00    +0.000 C 
ATOM      8  O   UNL     1      -0.390  11.606  18.581  0.00  0.00    +0.000 OA
ATOM      9  N   UNL     1       1.784  12.344  18.985  0.00  0.00    +0.000 N 
ATOM     10  C   UNL     1       1.517  13.686  18.906  0.00  0.00    +0.000 A 
ATOM     11  N   UNL     1       0.368  14.306  18.941  0.00  0.00    +0.000 NA
ATOM     12  C   UNL     1       0.564  15.674  18.824  0.00  0.00    +0.000 A 
ATOM     13  C   UNL     1       1.883  16.049  18.637  0.00  0.00    +0.000 A 
ATOM     14  S   UNL     1       2.903  14.669  18.741  0.00  0.00    +0.000 S 
ATOM     15  H   UNL     1       2.756  12.083  19.010  0.00  0.00    +0.000 HD
BRANCH  12  16
ATOM     16  C   UNL     1      -0.562  16.601  18.895  0.00  0.00    +0.000 A 
ATOM     17  C   UNL     1      -0.739  17.624  17.952  0.00  0.00    +0.000 A 
ATOM     18  C   UNL     1      -1.795  18.532  18.078  0.00  0.00    +0.000 A 
ATOM     19  C   UNL     1      -2.689  18.425  19.142  0.00  0.00    +0.000 A 
ATOM     20  C   UNL     1      -2.527  17.410  20.082  0.00  0.00    +0.000 A 
ATOM     21  C   UNL     1      -1.467  16.507  19.963  0.00  0.00    +0.000 A 
ENDBRANCH  12  16
ENDBRANCH   4   7
BRANCH   1  22
ATOM     22  S   UNL     1       2.652   5.642  19.364  0.00  0.00    +0.000 S 
ATOM     23  O   UNL     1       2.019   4.871  18.311  0.00  0.00    +0.000 OA
ATOM     24  O   UNL     1       2.529   5.253  20.751  0.00  0.00    +0.000 OA
BRANCH  22  25
ATOM     25  N   UNL     1       4.268   5.751  18.950  0.00  0.00    +0.000 N 
ATOM     26  H   UNL     1       4.872   6.272  19.578  0.00  0.00    +0.000 HD
BRANCH  25  31
ATOM     27  C   UNL     1       6.215   4.098  13.839  0.00  0.00    +0.000 C 
ATOM     28  C   UNL     1       5.697   4.556  15.171  0.00  0.00    +0.000 A 
ATOM     29  C   UNL     1       5.388   5.901  15.409  0.00  0.00    +0.000 A 
ATOM     30  C   UNL     1       4.904   6.306  16.659  0.00  0.00    +0.000 A 
ATOM     31  C   UNL     1       4.723   5.364  17.669  0.00  0.00    +0.000 A 
ATOM     32  C   UNL     1       5.051   4.029  17.450  0.00  0.00    +0.000 A 
ATOM     33  C   UNL     1       5.526   3.624  16.202  0.00  0.00    +0.000 A 
ENDBRANCH  25  31
ENDBRANCH  22  25
ENDBRANCH   1  22
TORSDOF 5
ENDMDL
MODEL 4
REMARK VINA RESULT:      -8.6      0.673      1.604
REMARK  Name = 
REMARK  6 active torsions:
REMARK  status: ('A' for Active; 'I' for Inactive)
REMARK    1  A    between atoms: C_1  and  C_2
REMARK    2  A    between atoms: C_5  and  N_6
REMARK    3  A    between atoms: N_6  and  S_7
REMARK    4  A    between atoms: S_7  and  C_10
REMARK    5  A    between atoms: C_13  and  C_14
REMARK    6  A    between atoms: C_19  and  C_20
REMARK                            x       y       z     vdW  Elec       q    Type
REMARK                         _______ _______ _______ _____ _____    ______ ____
ROOT
ATOM      1  C   UNL     1      -0.620  11.233  21.935  0.00  0.00    +0.000 A 
ATOM      2  C   UNL     1      -0.143  10.054  22.518  0.00  0.00    +0.000 A 
ATOM      3  C   UNL     1       0.635   9.178  21.754  0.00  0.00    +0.000 A 
ATOM      4  C   UNL     1       0.940   9.474  20.416  0.00  0.00    +0.000 A 
ATOM      5  C   UNL     1       0.428  10.641  19.832  0.00  0.00    +0.000 A 
ATOM      6  C   UNL     1      -0.356  11.517  20.591  0.00  0.00    +0.000 A 
ENDROOT
BRANCH   4   7
ATOM      7  C   UNL     1       1.771   8.504  19.641  0.00  0.00    +0.000 C 
ATOM      8  O   UNL     1       2.143   8.838  18.523  0.00  0.00    +0.000 OA
ATOM      9  N   UNL     1       1.968   7.285  20.253  0.00  0.00    +0.000 N 
ATOM     10  C   UNL     1       2.698   6.292  19.654  0.00  0.00    +0.000 A 
ATOM     11  N   UNL     1       3.495   6.357  18.622  0.00  0.00    +0.000 NA
ATOM     12  C   UNL     1       4.027   5.104  18.353  0.00  0.00    +0.000 A 
ATOM     13  C   UNL     1       3.553   4.095  19.173  0.00  0.00    +0.000 A 
ATOM     14  S   UNL     1       2.525   4.758  20.381  0.00  0.00    +0.000 S 
ATOM     15  H   UNL     1       1.469   7.030  21.090  0.00  0.00    +0.000 HD
BRANCH  12  16
ATOM     16  C   UNL     1       4.999   4.918  17.280  0.00  0.00    +0.000 A 
ATOM     17  C   UNL     1       4.814   3.960  16.272  0.00  0.00    +0.000 A 
ATOM     18  C   UNL     1       5.789   3.764  15.290  0.00  0.00    +0.000 A 
ATOM     19  C   UNL     1       6.956   4.525  15.299  0.00  0.00    +0.000 A 
ATOM     20  C   UNL     1       7.150   5.483  16.292  0.00  0.00    +0.000 A 
ATOM     21  C   UNL     1       6.180   5.674  17.280  0.00  0.00    +0.000 A 
ENDBRANCH  12  16
ENDBRANCH   4   7
BRANCH   1  22
ATOM     22  S   UNL     1      -1.643  12.351  22.877  0.00  0.00    +0.000 S 
ATOM     23  O   UNL     1      -0.756  13.228  23.616  0.00  0.00    +0.000 OA
ATOM     24  O   UNL     1      -2.657  11.573  23.553  0.00  0.00    +0.000 OA
BRANCH  22  25
ATOM     25  N   UNL     1      -2.352  13.298  21.696  0.00  0.00    +0.000 N 
ATOM     26  H   UNL     1      -1.952  14.218  21.538  0.00  0.00    +0.000 HD
BRANCH  25  31
ATOM     27  C   UNL     1      -7.418  11.802  19.518  0.00  0.00    +0.000 C 
ATOM     28  C   UNL     1      -6.077  12.194  20.066  0.00  0.00    +0.000 A 
ATOM     29  C   UNL     1      -4.920  12.123  19.280  0.00  0.00    +0.000 A 
ATOM     30  C   UNL     1      -3.679  12.496  19.810  0.00  0.00    +0.000 A 
ATOM     31  C   UNL     1      -3.596  12.947  21.125  0.00  0.00    +0.000 A 
ATOM     32  C   UNL     1      -4.737  12.997  21.922  0.00  0.00    +0.000 A 
ATOM     33  C   UNL     1      -5.975  12.633  21.391  0.00  0.00    +0.000 A 
ENDBRANCH  25  31
ENDBRANCH  22  25
ENDBRANCH   1  22
TORSDOF 5
ENDMDL
MODEL 5
REMARK VINA RESULT:      -8.5      3.089     10.685
REMARK  Name = 
REMARK  6 active torsions:
REMARK  status: ('A' for Active; 'I' for Inactive)
REMARK    1  A    between atoms: C_1  and  C_2
REMARK    2  A    between atoms: C_5  and  N_6
REMARK    3  A    between atoms: N_6  and  S_7
REMARK    4  A    between atoms: S_7  and  C_10
REMARK    5  A    between atoms: C_13  and  C_14
REMARK    6  A    between atoms: C_19  and  C_20
REMARK                            x       y       z     vdW  Elec       q    Type
REMARK                         _______ _______ _______ _____ _____    ______ ____
ROOT
ATOM      1  C   UNL     1       3.278   4.567  19.183  0.00  0.00    +0.000 A 
ATOM      2  C   UNL     1       3.172   5.693  18.359  0.00  0.00    +0.000 A 
ATOM      3  C   UNL     1       2.476   6.815  18.818  0.00  0.00    +0.000 A 
ATOM      4  C   UNL     1       1.889   6.819  20.094  0.00  0.00    +0.000 A 
ATOM      5  C   UNL     1       1.972   5.674  20.897  0.00  0.00    +0.000 A 
ATOM      6  C   UNL     1       2.662   4.547  20.439  0.00  0.00    +0.000 A 
ENDROOT
BRANCH   4   7
ATOM      7  C   UNL     1       1.152   8.041  20.536  0.00  0.00    +0.000 C 
ATOM      8  O   UNL     1       0.344   7.920  21.449  0.00  0.00    +0.000 OA
ATOM      9  N   UNL     1       1.413   9.178  19.804  0.00  0.00    +0.000 N 
ATOM     10  C   UNL     1       0.800  10.370  20.086  0.00  0.00    +0.000 A 
ATOM     11  N   UNL     1       0.118  10.721  21.143  0.00  0.00    +0.000 NA
ATOM     12  C   UNL     1      -0.330  12.027  21.007  0.00  0.00    +0.000 A 
ATOM     13  C   UNL     1      -0.019  12.614  19.793  0.00  0.00    +0.000 A 
ATOM     14  S   UNL     1       0.964  11.551  18.865  0.00  0.00    +0.000 S 
ATOM     15  H   UNL     1       1.951   9.143  18.952  0.00  0.00    +0.000 HD
BRANCH  12  16
ATOM     16  C   UNL     1      -1.068  12.682  22.083  0.00  0.00    +0.000 A 
ATOM     17  C   UNL     1      -2.267  12.155  22.585  0.00  0.00    +0.000 A 
ATOM     18  C   UNL     1      -2.982  12.833  23.577  0.00  0.00    +0.000 A 
ATOM     19  C   UNL     1      -2.506  14.042  24.081  0.00  0.00    +0.000 A 
ATOM     20  C   UNL     1      -1.315  14.574  23.594  0.00  0.00    +0.000 A 
ATOM     21  C   UNL     1      -0.602  13.901  22.597  0.00  0.00    +0.000 A 
ENDBRANCH  12  16
ENDBRANCH   4   7
BRANCH   1  22
ATOM     22  S   UNL     1       4.132   3.110  18.608  0.00  0.00    +0.000 S 
ATOM     23  O   UNL     1       3.147   2.253  17.977  0.00  0.00    +0.000 OA
ATOM     24  O   UNL     1       4.965   2.622  19.684  0.00  0.00    +0.000 OA
BRANCH  22  25
ATOM     25  N   UNL     1       5.093   3.699  17.373  0.00  0.00    +0.000 N 
ATOM     26  H   UNL     1       5.242   3.092  16.573  0.00  0.00    +0.000 HD
BRANCH  25  31
ATOM     27  C   UNL     1       8.237   8.440  17.905  0.00  0.00    +0.000 C 
ATOM     28  C   UNL     1       7.421   7.186  17.788  0.00  0.00    +0.000 A 
ATOM     29  C   UNL     1       7.622   6.103  18.653  0.00  0.00    +0.000 A 
ATOM     30  C   UNL     1       6.847   4.944  18.529  0.00  0.00    +0.000 A 
ATOM     31  C   UNL     1       5.866   4.870  17.542  0.00  0.00    +0.000 A 
ATOM     32  C   UNL     1       5.676   5.931  16.662  0.00  0.00    +0.000 A 
ATOM     33  C   UNL     1       6.442   7.090  16.791  0.00  0.00    +0.000 A 
ENDBRANCH  25  31
ENDBRANCH  22  25
ENDBRANCH   1  22
TORSDOF 5
ENDMDL
MODEL 6
REMARK VINA RESULT:      -8.5      3.065     10.179
REMARK  Name = 
REMARK  6 active torsions:
REMARK  status: ('A' for Active; 'I' for Inactive)
REMARK    1  A    between atoms: C_1  and  C_2
REMARK    2  A    between atoms: C_5  and  N_6
REMARK    3  A    between atoms: N_6  and  S_7
REMARK    4  A    between atoms: S_7  and  C_10
REMARK    5  A    between atoms: C_13  and  C_14
REMARK    6  A    between atoms: C_19  and  C_20
REMARK                            x       y       z     vdW  Elec       q    Type
REMARK                         _______ _______ _______ _____ _____    ______ ____
ROOT
ATOM      1  C   UNL     1       4.932   6.222  18.381  0.00  0.00    +0.000 A 
ATOM      2  C   UNL     1       4.016   6.204  19.437  0.00  0.00    +0.000 A 
ATOM      3  C   UNL     1       2.883   7.023  19.377  0.00  0.00    +0.000 A 
ATOM      4  C   UNL     1       2.662   7.855  18.268  0.00  0.00    +0.000 A 
ATOM      5  C   UNL     1       3.604   7.891  17.231  0.00  0.00    +0.000 A 
ATOM      6  C   UNL     1       4.740   7.078  17.290  0.00  0.00    +0.000 A 
ENDROOT
BRANCH   4   7
ATOM      7  C   UNL     1       1.440   8.713  18.254  0.00  0.00    +0.000 C 
ATOM      8  O   UNL     1       0.826   8.813  17.199  0.00  0.00    +0.000 OA
ATOM      9  N   UNL     1       1.175   9.373  19.434  0.00  0.00    +0.000 N 
ATOM     10  C   UNL     1       0.095  10.207  19.563  0.00  0.00    +0.000 A 
ATOM     11  N   UNL     1      -0.945  10.342  18.786  0.00  0.00    +0.000 NA
ATOM     12  C   UNL     1      -1.798  11.309  19.297  0.00  0.00    +0.000 A 
ATOM     13  C   UNL     1      -1.332  11.935  20.440  0.00  0.00    +0.000 A 
ATOM     14  S   UNL     1       0.138  11.202  20.949  0.00  0.00    +0.000 S 
ATOM     15  H   UNL     1       1.837   9.380  20.193  0.00  0.00    +0.000 HD
BRANCH  12  16
ATOM     16  C   UNL     1      -3.069  11.608  18.644  0.00  0.00    +0.000 A 
ATOM     17  C   UNL     1      -4.150  12.159  19.347  0.00  0.00    +0.000 A 
ATOM     18  C   UNL     1      -5.375  12.382  18.709  0.00  0.00    +0.000 A 
ATOM     19  C   UNL     1      -5.530  12.064  17.362  0.00  0.00    +0.000 A 
ATOM     20  C   UNL     1      -4.462  11.521  16.651  0.00  0.00    +0.000 A 
ATOM     21  C   UNL     1      -3.241  11.289  17.289  0.00  0.00    +0.000 A 
ENDBRANCH  12  16
ENDBRANCH   4   7
BRANCH   1  22
ATOM     22  S   UNL     1       6.402   5.213  18.448  0.00  0.00    +0.000 S 
ATOM     23  O   UNL     1       6.763   5.068  19.845  0.00  0.00    +0.000 OA
ATOM     24  O   UNL     1       7.347   5.727  17.483  0.00  0.00    +0.000 OA
BRANCH  22  25
ATOM     25  N   UNL     1       5.851   3.713  17.955  0.00  0.00    +0.000 N 
ATOM     26  H   UNL     1       6.446   3.187  17.322  0.00  0.00    +0.000 HD
BRANCH  25  31
ATOM     27  C   UNL     1       0.415   2.204  18.859  0.00  0.00    +0.000 C 
ATOM     28  C   UNL     1       1.850   2.588  18.643  0.00  0.00    +0.000 A 
ATOM     29  C   UNL     1       2.815   2.387  19.638  0.00  0.00    +0.000 A 
ATOM     30  C   UNL     1       4.148   2.749  19.415  0.00  0.00    +0.000 A 
ATOM     31  C   UNL     1       4.519   3.308  18.194  0.00  0.00    +0.000 A 
ATOM     32  C   UNL     1       3.562   3.535  17.208  0.00  0.00    +0.000 A 
ATOM     33  C   UNL     1       2.234   3.166  17.428  0.00  0.00    +0.000 A 
ENDBRANCH  25  31
ENDBRANCH  22  25
ENDBRANCH   1  22
TORSDOF 5
ENDMDL
MODEL 7
REMARK VINA RESULT:      -8.4      7.657     11.492
REMARK  Name = 
REMARK  6 active torsions:
REMARK  status: ('A' for Active; 'I' for Inactive)
REMARK    1  A    between atoms: C_1  and  C_2
REMARK    2  A    between atoms: C_5  and  N_6
REMARK    3  A    between atoms: N_6  and  S_7
REMARK    4  A    between atoms: S_7  and  C_10
REMARK    5  A    between atoms: C_13  and  C_14
REMARK    6  A    between atoms: C_19  and  C_20
REMARK                            x       y       z     vdW  Elec       q    Type
REMARK                         _______ _______ _______ _____ _____    ______ ____
ROOT
ATOM      1  C   UNL     1       7.410   6.528  17.917  0.00  0.00    +0.000 A 
ATOM      2  C   UNL     1       6.836   7.497  17.087  0.00  0.00    +0.000 A 
ATOM      3  C   UNL     1       7.255   8.827  17.194  0.00  0.00    +0.000 A 
ATOM      4  C   UNL     1       8.244   9.192  18.121  0.00  0.00    +0.000 A 
ATOM      5  C   UNL     1       8.788   8.219  18.971  0.00  0.00    +0.000 A 
ATOM      6  C   UNL     1       8.368   6.889  18.871  0.00  0.00    +0.000 A 
ENDROOT
BRANCH   4   7
ATOM      7  C   UNL     1       8.655  10.626  18.199  0.00  0.00    +0.000 C 
ATOM      8  O   UNL     1       8.038  11.433  17.515  0.00  0.00    +0.000 OA
ATOM      9  N   UNL     1       9.754  10.877  18.991  0.00  0.00    +0.000 N 
ATOM     10  C   UNL     1      10.253  12.144  19.146  0.00  0.00    +0.000 A 
ATOM     11  N   UNL     1       9.712  13.291  18.834  0.00  0.00    +0.000 NA
ATOM     12  C   UNL     1      10.574  14.327  19.163  0.00  0.00    +0.000 A 
ATOM     13  C   UNL     1      11.796  13.916  19.666  0.00  0.00    +0.000 A 
ATOM     14  S   UNL     1      11.806  12.206  19.850  0.00  0.00    +0.000 S 
ATOM     15  H   UNL     1      10.313  10.128  19.368  0.00  0.00    +0.000 HD
BRANCH  12  16
ATOM     16  C   UNL     1      10.180  15.719  18.970  0.00  0.00    +0.000 A 
ATOM     17  C   UNL     1       8.846  16.085  18.738  0.00  0.00    +0.000 A 
ATOM     18  C   UNL     1       8.506  17.421  18.501  0.00  0.00    +0.000 A 
ATOM     19  C   UNL     1       9.492  18.405  18.499  0.00  0.00    +0.000 A 
ATOM     20  C   UNL     1      10.820  18.055  18.733  0.00  0.00    +0.000 A 
ATOM     21  C   UNL     1      11.163  16.720  18.962  0.00  0.00    +0.000 A 
ENDBRANCH  12  16
ENDBRANCH   4   7
BRANCH   1  22
ATOM     22  S   UNL     1       6.870   4.830  17.824  0.00  0.00    +0.000 S 
ATOM     23  O   UNL     1       6.449   4.438  19.155  0.00  0.00    +0.000 OA
ATOM     24  O   UNL     1       7.872   4.077  17.106  0.00  0.00    +0.000 OA
BRANCH  22  25
ATOM     25  N   UNL     1       5.474   4.929  16.909  0.00  0.00    +0.000 N 
ATOM     26  H   UNL     1       5.479   5.577  16.126  0.00  0.00    +0.000 HD
BRANCH  25  31
ATOM     27  C   UNL     1       0.594   2.643  18.807  0.00  0.00    +0.000 C 
ATOM     28  C   UNL     1       1.883   3.220  18.299  0.00  0.00    +0.000 A 
ATOM     29  C   UNL     1       2.902   2.399  17.800  0.00  0.00    +0.000 A 
ATOM     30  C   UNL     1       4.095   2.958  17.328  0.00  0.00    +0.000 A 
ATOM     31  C   UNL     1       4.267   4.341  17.348  0.00  0.00    +0.000 A 
ATOM     32  C   UNL     1       3.270   5.163  17.865  0.00  0.00    +0.000 A 
ATOM     33  C   UNL     1       2.077   4.606  18.328  0.00  0.00    +0.000 A 
ENDBRANCH  25  31
ENDBRANCH  22  25
ENDBRANCH   1  22
TORSDOF 5
ENDMDL
MODEL 8
REMARK VINA RESULT:      -8.3      3.006     10.606
REMARK  Name = 
REMARK  6 active torsions:
REMARK  status: ('A' for Active; 'I' for Inactive)
REMARK    1  A    between atoms: C_1  and  C_2
REMARK    2  A    between atoms: C_5  and  N_6
REMARK    3  A    between atoms: N_6  and  S_7
REMARK    4  A    between atoms: S_7  and  C_10
REMARK    5  A    between atoms: C_13  and  C_14
REMARK    6  A    between atoms: C_19  and  C_20
REMARK                            x       y       z     vdW  Elec       q    Type
REMARK                         _______ _______ _______ _____ _____    ______ ____
ROOT
ATOM      1  C   UNL     1       3.311   4.668  19.095  0.00  0.00    +0.000 A 
ATOM      2  C   UNL     1       3.132   5.744  18.220  0.00  0.00    +0.000 A 
ATOM      3  C   UNL     1       2.502   6.905  18.679  0.00  0.00    +0.000 A 
ATOM      4  C   UNL     1       2.053   6.997  20.006  0.00  0.00    +0.000 A 
ATOM      5  C   UNL     1       2.206   5.900  20.865  0.00  0.00    +0.000 A 
ATOM      6  C   UNL     1       2.831   4.735  20.408  0.00  0.00    +0.000 A 
ENDROOT
BRANCH   4   7
ATOM      7  C   UNL     1       1.383   8.256  20.447  0.00  0.00    +0.000 C 
ATOM      8  O   UNL     1       1.356   8.497  21.648  0.00  0.00    +0.000 OA
ATOM      9  N   UNL     1       0.790   8.987  19.440  0.00  0.00    +0.000 N 
ATOM     10  C   UNL     1       0.127  10.157  19.698  0.00  0.00    +0.000 A 
ATOM     11  N   UNL     1       0.132  10.892  20.777  0.00  0.00    +0.000 NA
ATOM     12  C   UNL     1      -0.691  11.996  20.603  0.00  0.00    +0.000 A 
ATOM     13  C   UNL     1      -1.358  12.026  19.391  0.00  0.00    +0.000 A 
ATOM     14  S   UNL     1      -0.839  10.716  18.406  0.00  0.00    +0.000 S 
ATOM     15  H   UNL     1       0.701   8.619  18.507  0.00  0.00    +0.000 HD
BRANCH  12  16
ATOM     16  C   UNL     1      -0.813  13.011  21.645  0.00  0.00    +0.000 A 
ATOM     17  C   UNL     1      -0.012  14.162  21.654  0.00  0.00    +0.000 A 
ATOM     18  C   UNL     1      -0.111  15.090  22.696  0.00  0.00    +0.000 A 
ATOM     19  C   UNL     1      -1.014  14.881  23.736  0.00  0.00    +0.000 A 
ATOM     20  C   UNL     1      -1.818  13.744  23.737  0.00  0.00    +0.000 A 
ATOM     21  C   UNL     1      -1.715  12.812  22.701  0.00  0.00    +0.000 A 
ENDBRANCH  12  16
ENDBRANCH   4   7
BRANCH   1  22
ATOM     22  S   UNL     1       4.081   3.163  18.525  0.00  0.00    +0.000 S 
ATOM     23  O   UNL     1       3.070   2.401  17.818  0.00  0.00    +0.000 OA
ATOM     24  O   UNL     1       4.814   2.586  19.630  0.00  0.00    +0.000 OA
BRANCH  22  25
ATOM     25  N   UNL     1       5.150   3.706  17.361  0.00  0.00    +0.000 N 
ATOM     26  H   UNL     1       5.360   3.073  16.594  0.00  0.00    +0.000 HD
BRANCH  25  31
ATOM     27  C   UNL     1       8.291   8.433  18.019  0.00  0.00    +0.000 C 
ATOM     28  C   UNL     1       7.474   7.183  17.870  0.00  0.00    +0.000 A 
ATOM     29  C   UNL     1       7.616   6.110  18.757  0.00  0.00    +0.000 A 
ATOM     30  C   UNL     1       6.843   4.954  18.602  0.00  0.00    +0.000 A 
ATOM     31  C   UNL     1       5.920   4.873  17.561  0.00  0.00    +0.000 A 
ATOM     32  C   UNL     1       5.789   5.925  16.658  0.00  0.00    +0.000 A 
ATOM     33  C   UNL     1       6.555   7.081  16.818  0.00  0.00    +0.000 A 
ENDBRANCH  25  31
ENDBRANCH  22  25
ENDBRANCH   1  22
TORSDOF 5
ENDMDL
MODEL 9
REMARK VINA RESULT:      -8.3      3.048     10.507
REMARK  Name = 
REMARK  6 active torsions:
REMARK  status: ('A' for Active; 'I' for Inactive)
REMARK    1  A    between atoms: C_1  and  C_2
REMARK    2  A    between atoms: C_5  and  N_6
REMARK    3  A    between atoms: N_6  and  S_7
REMARK    4  A    between atoms: S_7  and  C_10
REMARK    5  A    between atoms: C_13  and  C_14
REMARK    6  A    between atoms: C_19  and  C_20
REMARK                            x       y       z     vdW  Elec       q    Type
REMARK                         _______ _______ _______ _____ _____    ______ ____
ROOT
ATOM      1  C   UNL     1       3.112   4.536  18.828  0.00  0.00    +0.000 A 
ATOM      2  C   UNL     1       2.743   5.435  17.821  0.00  0.00    +0.000 A 
ATOM      3  C   UNL     1       2.216   6.682  18.174  0.00  0.00    +0.000 A 
ATOM      4  C   UNL     1       2.061   7.036  19.523  0.00  0.00    +0.000 A 
ATOM      5  C   UNL     1       2.402   6.115  20.524  0.00  0.00    +0.000 A 
ATOM      6  C   UNL     1       2.922   4.865  20.175  0.00  0.00    +0.000 A 
ENDROOT
BRANCH   4   7
ATOM      7  C   UNL     1       1.491   8.378  19.848  0.00  0.00    +0.000 C 
ATOM      8  O   UNL     1       1.782   9.313  19.113  0.00  0.00    +0.000 OA
ATOM      9  N   UNL     1       0.746   8.432  21.006  0.00  0.00    +0.000 N 
ATOM     10  C   UNL     1       0.173   9.600  21.436  0.00  0.00    +0.000 A 
ATOM     11  N   UNL     1      -0.001  10.723  20.794  0.00  0.00    +0.000 NA
ATOM     12  C   UNL     1      -0.623  11.650  21.619  0.00  0.00    +0.000 A 
ATOM     13  C   UNL     1      -0.847  11.206  22.910  0.00  0.00    +0.000 A 
ATOM     14  S   UNL     1      -0.388   9.555  23.048  0.00  0.00    +0.000 S 
ATOM     15  H   UNL     1       0.714   7.656  21.647  0.00  0.00    +0.000 HD
BRANCH  12  16
ATOM     16  C   UNL     1      -0.987  12.972  21.119  0.00  0.00    +0.000 A 
ATOM     17  C   UNL     1      -0.316  13.565  20.039  0.00  0.00    +0.000 A 
ATOM     18  C   UNL     1      -0.648  14.857  19.618  0.00  0.00    +0.000 A 
ATOM     19  C   UNL     1      -1.656  15.567  20.267  0.00  0.00    +0.000 A 
ATOM     20  C   UNL     1      -2.333  14.988  21.337  0.00  0.00    +0.000 A 
ATOM     21  C   UNL     1      -1.997  13.700  21.764  0.00  0.00    +0.000 A 
ENDBRANCH  12  16
ENDBRANCH   4   7
BRANCH   1  22
ATOM     22  S   UNL     1       3.753   2.926  18.406  0.00  0.00    +0.000 S 
ATOM     23  O   UNL     1       2.713   2.224  17.680  0.00  0.00    +0.000 OA
ATOM     24  O   UNL     1       4.353   2.355  19.591  0.00  0.00    +0.000 OA
BRANCH  22  25
ATOM     25  N   UNL     1       4.943   3.278  17.285  0.00  0.00    +0.000 N 
ATOM     26  H   UNL     1       5.217   2.532  16.652  0.00  0.00    +0.000 HD
BRANCH  25  31
ATOM     27  C   UNL     1       7.997   8.079  17.804  0.00  0.00    +0.000 C 
ATOM     28  C   UNL     1       7.190   6.824  17.642  0.00  0.00    +0.000 A 
ATOM     29  C   UNL     1       6.400   6.607  16.507  0.00  0.00    +0.000 A 
ATOM     30  C   UNL     1       5.657   5.428  16.375  0.00  0.00    +0.000 A 
ATOM     31  C   UNL     1       5.709   4.462  17.377  0.00  0.00    +0.000 A 
ATOM     32  C   UNL     1       6.471   4.680  18.522  0.00  0.00    +0.000 A 
ATOM     33  C   UNL     1       7.218   5.851  18.649  0.00  0.00    +0.000 A 
ENDBRANCH  25  31
ENDBRANCH  22  25
ENDBRANCH   1  22
TORSDOF 5
ENDMDL
