MODEL 1
REMARK VINA RESULT:      -7.7      0.000      0.000
REMARK  Name = 
REMARK  13 active torsions:
REMARK  status: ('A' for Active; 'I' for Inactive)
REMARK    1  A    between atoms: C_1  and  O_2
REMARK    2  A    between atoms: O_2  and  C_3
REMARK    3  A    between atoms: C_3  and  O_4
REMARK    4  A    between atoms: O_4  and  C_5
REMARK    5  A    between atoms: C_10  and  C_11
REMARK    6  A    between atoms: C_11  and  C_13
REMARK    7  A    between atoms: C_13  and  C_14
REMARK    8  A    between atoms: C_14  and  C_15
REMARK    9  A    between atoms: N_17  and  C_18
REMARK   10  A    between atoms: C_18  and  C_19
REMARK   11  A    between atoms: C_18  and  C_26
REMARK   12  A    between atoms: C_19  and  C_20
REMARK   13  A    between atoms: C_26  and  C_28
REMARK                            x       y       z     vdW  Elec       q    Type
REMARK                         _______ _______ _______ _____ _____    ______ ____
ROOT
ATOM      1  C   UNL     1       2.623   8.042  18.282  0.00  0.00    +0.000 C 
ATOM      2  O   UNL     1       2.276   7.679  19.401  0.00  0.00    +0.000 OA
ATOM      3  N   UNL     1       3.571   7.382  17.539  0.00  0.00    +0.000 N 
ATOM      4  H   UNL     1       3.950   7.829  16.709  0.00  0.00    +0.000 HD
ENDROOT
BRANCH   1   5
ATOM      5  C   UNL     1       1.980   9.211  17.567  0.00  0.00    +0.000 C 
BRANCH   5   6
ATOM      6  C   UNL     1       1.672  10.336  18.567  0.00  0.00    +0.000 C 
BRANCH   6   7
ATOM      7  C   UNL     1       0.225  10.306  19.026  0.00  0.00    +0.000 C 
ATOM      8  O   UNL     1      -0.687  10.241  18.199  0.00  0.00    +0.000 OA
BRANCH   7  14
ATOM      9  C   UNL     1      -0.417  11.524  21.253  0.00  0.00    +0.000 A 
ATOM     10  C   UNL     1      -0.791  11.377  22.607  0.00  0.00    +0.000 A 
ATOM     11  C   UNL     1      -0.792  10.137  23.241  0.00  0.00    +0.000 A 
ATOM     12  C   UNL     1      -0.463   9.009  22.515  0.00  0.00    +0.000 A 
ATOM     13  C   UNL     1      -0.160   9.119  21.153  0.00  0.00    +0.000 A 
ATOM     14  C   UNL     1      -0.136  10.369  20.495  0.00  0.00    +0.000 A 
BRANCH   9  15
ATOM     15  O   UNL     1      -0.302  12.765  20.675  0.00  0.00    +0.000 OA
BRANCH  15  16
ATOM     16  C   UNL     1       0.461  13.752  21.395  0.00  0.00    +0.000 C 
BRANCH  16  18
ATOM     17  C   UNL     1       2.505  13.501  20.217  0.00  0.00    +0.000 C 
ATOM     18  O   UNL     1       1.851  13.424  21.475  0.00  0.00    +0.000 OA
ENDBRANCH  16  18
ENDBRANCH  15  16
ENDBRANCH   9  15
ENDBRANCH   7  14
ENDBRANCH   6   7
ENDBRANCH   5   6
ENDBRANCH   1   5
BRANCH   3  19
ATOM     19  C   UNL     1       4.212   6.126  17.975  0.00  0.00    +0.000 C 
BRANCH  19  20
ATOM     20  C   UNL     1       5.588   6.052  17.309  0.00  0.00    +0.000 C 
ATOM     21  O   UNL     1       6.062   6.957  16.617  0.00  0.00    +0.000 OA
BRANCH  20  22
ATOM     22  C   UNL     1       6.443   4.806  17.561  0.00  0.00    +0.000 C 
ATOM     23  N   UNL     1       6.638   4.022  16.456  0.00  0.00    +0.000 N 
ATOM     24  O   UNL     1       6.922   4.558  18.653  0.00  0.00    +0.000 OA
ATOM     25  H   UNL     1       6.269   4.309  15.555  0.00  0.00    +0.000 HD
ATOM     26  H   UNL     1       7.222   3.198  16.521  0.00  0.00    +0.000 HD
ENDBRANCH  20  22
ENDBRANCH  19  20
BRANCH  19  27
ATOM     27  C   UNL     1       3.327   4.891  17.702  0.00  0.00    +0.000 C 
BRANCH  27  28
ATOM     28  C   UNL     1       2.613   4.212  18.857  0.00  0.00    +0.000 A 
ATOM     29  C   UNL     1       2.930   4.407  20.206  0.00  0.00    +0.000 A 
ATOM     30  C   UNL     1       2.170   3.813  21.214  0.00  0.00    +0.000 A 
ATOM     31  C   UNL     1       1.099   2.985  20.891  0.00  0.00    +0.000 A 
ATOM     32  C   UNL     1       0.807   2.727  19.555  0.00  0.00    +0.000 A 
ATOM     33  C   UNL     1       1.560   3.333  18.547  0.00  0.00    +0.000 A 
ENDBRANCH  27  28
ENDBRANCH  19  27
ENDBRANCH   3  19
TORSDOF 12
ENDMDL
MODEL 2
REMARK VINA RESULT:      -7.7      4.987      7.241
REMARK  Name = 
REMARK  13 active torsions:
REMARK  status: ('A' for Active; 'I' for Inactive)
REMARK    1  A    between atoms: C_1  and  O_2
REMARK    2  A    between atoms: O_2  and  C_3
REMARK    3  A    between atoms: C_3  and  O_4
REMARK    4  A    between atoms: O_4  and  C_5
REMARK    5  A    between atoms: C_10  and  C_11
REMARK    6  A    between atoms: C_11  and  C_13
REMARK    7  A    between atoms: C_13  and  C_14
REMARK    8  A    between atoms: C_14  and  C_15
REMARK    9  A    between atoms: N_17  and  C_18
REMARK   10  A    between atoms: C_18  and  C_19
REMARK   11  A    between atoms: C_18  and  C_26
REMARK   12  A    between atoms: C_19  and  C_20
REMARK   13  A    between atoms: C_26  and  C_28
REMARK                            x       y       z     vdW  Elec       q    Type
REMARK                         _______ _______ _______ _____ _____    ______ ____
ROOT
ATOM      1  C   UNL     1       7.663   7.621  17.972  0.00  0.00    +0.000 C 
ATOM      2  O   UNL     1       8.165   6.929  18.852  0.00  0.00    +0.000 OA
ATOM      3  N   UNL     1       6.727   7.145  17.087  0.00  0.00    +0.000 N 
ATOM      4  H   UNL     1       6.488   7.703  16.271  0.00  0.00    +0.000 HD
ENDROOT
BRANCH   1   5
ATOM      5  C   UNL     1       7.963   9.097  17.823  0.00  0.00    +0.000 C 
BRANCH   5   6
ATOM      6  C   UNL     1       9.384   9.400  18.324  0.00  0.00    +0.000 C 
BRANCH   6   7
ATOM      7  C   UNL     1       9.462  10.741  19.032  0.00  0.00    +0.000 C 
ATOM      8  O   UNL     1       8.992  10.873  20.164  0.00  0.00    +0.000 OA
BRANCH   7  14
ATOM      9  C   UNL     1       9.444  13.107  17.912  0.00  0.00    +0.000 A 
ATOM     10  C   UNL     1      10.218  14.154  17.366  0.00  0.00    +0.000 A 
ATOM     11  C   UNL     1      11.593  14.032  17.173  0.00  0.00    +0.000 A 
ATOM     12  C   UNL     1      12.228  12.871  17.569  0.00  0.00    +0.000 A 
ATOM     13  C   UNL     1      11.493  11.847  18.178  0.00  0.00    +0.000 A 
ATOM     14  C   UNL     1      10.097  11.945  18.368  0.00  0.00    +0.000 A 
BRANCH   9  15
ATOM     15  O   UNL     1       8.075  13.195  17.984  0.00  0.00    +0.000 OA
BRANCH  15  16
ATOM     16  C   UNL     1       7.522  14.464  18.384  0.00  0.00    +0.000 C 
BRANCH  16  18
ATOM     17  C   UNL     1       5.205  14.851  18.055  0.00  0.00    +0.000 C 
ATOM     18  O   UNL     1       6.507  14.929  17.491  0.00  0.00    +0.000 OA
ENDBRANCH  16  18
ENDBRANCH  15  16
ENDBRANCH   9  15
ENDBRANCH   7  14
ENDBRANCH   6   7
ENDBRANCH   5   6
ENDBRANCH   1   5
BRANCH   3  19
ATOM     19  C   UNL     1       6.170   5.780  17.151  0.00  0.00    +0.000 C 
BRANCH  19  20
ATOM     20  C   UNL     1       7.154   4.844  16.447  0.00  0.00    +0.000 C 
ATOM     21  O   UNL     1       8.057   4.239  17.030  0.00  0.00    +0.000 OA
BRANCH  20  22
ATOM     22  C   UNL     1       6.971   4.607  14.945  0.00  0.00    +0.000 C 
ATOM     23  N   UNL     1       7.646   5.493  14.147  0.00  0.00    +0.000 N 
ATOM     24  O   UNL     1       6.301   3.688  14.510  0.00  0.00    +0.000 OA
ATOM     25  H   UNL     1       8.243   6.201  14.562  0.00  0.00    +0.000 HD
ATOM     26  H   UNL     1       7.612   5.388  13.141  0.00  0.00    +0.000 HD
ENDBRANCH  20  22
ENDBRANCH  19  20
BRANCH  19  27
ATOM     27  C   UNL     1       4.735   5.706  16.586  0.00  0.00    +0.000 C 
BRANCH  27  28
ATOM     28  C   UNL     1       3.687   4.879  17.309  0.00  0.00    +0.000 A 
ATOM     29  C   UNL     1       2.771   5.396  18.233  0.00  0.00    +0.000 A 
ATOM     30  C   UNL     1       1.781   4.586  18.792  0.00  0.00    +0.000 A 
ATOM     31  C   UNL     1       1.710   3.236  18.461  0.00  0.00    +0.000 A 
ATOM     32  C   UNL     1       2.650   2.689  17.594  0.00  0.00    +0.000 A 
ATOM     33  C   UNL     1       3.632   3.503  17.026  0.00  0.00    +0.000 A 
ENDBRANCH  27  28
ENDBRANCH  19  27
ENDBRANCH   3  19
TORSDOF 12
ENDMDL
MODEL 3
REMARK VINA RESULT:      -7.7      0.928      1.363
REMARK  Name = 
REMARK  13 active torsions:
REMARK  status: ('A' for Active; 'I' for Inactive)
REMARK    1  A    between atoms: C_1  and  O_2
REMARK    2  A    between atoms: O_2  and  C_3
REMARK    3  A    between atoms: C_3  and  O_4
REMARK    4  A    between atoms: O_4  and  C_5
REMARK    5  A    between atoms: C_10  and  C_11
REMARK    6  A    between atoms: C_11  and  C_13
REMARK    7  A    between atoms: C_13  and  C_14
REMARK    8  A    between atoms: C_14  and  C_15
REMARK    9  A    between atoms: N_17  and  C_18
REMARK   10  A    between atoms: C_18  and  C_19
REMARK   11  A    between atoms: C_18  and  C_26
REMARK   12  A    between atoms: C_19  and  C_20
REMARK   13  A    between atoms: C_26  and  C_28
REMARK                            x       y       z     vdW  Elec       q    Type
REMARK                         _______ _______ _______ _____ _____    ______ ____
ROOT
ATOM      1  C   UNL     1       2.750   7.577  18.363  0.00  0.00    +0.000 C 
ATOM      2  O   UNL     1       2.511   7.262  19.524  0.00  0.00    +0.000 OA
ATOM      3  N   UNL     1       3.738   6.988  17.613  0.00  0.00    +0.000 N 
ATOM      4  H   UNL     1       4.012   7.414  16.731  0.00  0.00    +0.000 HD
ENDROOT
BRANCH   1   5
ATOM      5  C   UNL     1       1.921   8.594  17.606  0.00  0.00    +0.000 C 
BRANCH   5   6
ATOM      6  C   UNL     1       1.732   9.859  18.458  0.00  0.00    +0.000 C 
BRANCH   6   7
ATOM      7  C   UNL     1       0.288  10.043  18.888  0.00  0.00    +0.000 C 
ATOM      8  O   UNL     1      -0.614  10.039  18.047  0.00  0.00    +0.000 OA
BRANCH   7  14
ATOM      9  C   UNL     1      -0.386  11.470  20.976  0.00  0.00    +0.000 A 
ATOM     10  C   UNL     1      -0.763  11.456  22.337  0.00  0.00    +0.000 A 
ATOM     11  C   UNL     1      -0.744  10.287  23.095  0.00  0.00    +0.000 A 
ATOM     12  C   UNL     1      -0.392   9.097  22.489  0.00  0.00    +0.000 A 
ATOM     13  C   UNL     1      -0.084   9.073  21.124  0.00  0.00    +0.000 A 
ATOM     14  C   UNL     1      -0.081  10.250  20.342  0.00  0.00    +0.000 A 
BRANCH   9  15
ATOM     15  O   UNL     1      -0.291  12.647  20.275  0.00  0.00    +0.000 OA
BRANCH  15  16
ATOM     16  C   UNL     1      -0.645  13.855  20.976  0.00  0.00    +0.000 C 
BRANCH  16  18
ATOM     17  C   UNL     1      -0.252  15.170  19.041  0.00  0.00    +0.000 C 
ATOM     18  O   UNL     1      -1.145  14.873  20.104  0.00  0.00    +0.000 OA
ENDBRANCH  16  18
ENDBRANCH  15  16
ENDBRANCH   9  15
ENDBRANCH   7  14
ENDBRANCH   6   7
ENDBRANCH   5   6
ENDBRANCH   1   5
BRANCH   3  19
ATOM     19  C   UNL     1       4.562   5.864  18.097  0.00  0.00    +0.000 C 
BRANCH  19  20
ATOM     20  C   UNL     1       5.962   6.025  17.502  0.00  0.00    +0.000 C 
ATOM     21  O   UNL     1       6.246   6.858  16.638  0.00  0.00    +0.000 OA
BRANCH  20  22
ATOM     22  C   UNL     1       7.082   5.134  18.049  0.00  0.00    +0.000 C 
ATOM     23  N   UNL     1       7.738   4.400  17.097  0.00  0.00    +0.000 N 
ATOM     24  O   UNL     1       7.372   5.110  19.232  0.00  0.00    +0.000 OA
ATOM     25  H   UNL     1       7.498   4.507  16.116  0.00  0.00    +0.000 HD
ATOM     26  H   UNL     1       8.516   3.813  17.364  0.00  0.00    +0.000 HD
ENDBRANCH  20  22
ENDBRANCH  19  20
BRANCH  19  27
ATOM     27  C   UNL     1       3.917   4.493  17.797  0.00  0.00    +0.000 C 
BRANCH  27  28
ATOM     28  C   UNL     1       2.882   3.928  18.753  0.00  0.00    +0.000 A 
ATOM     29  C   UNL     1       1.648   3.399  18.359  0.00  0.00    +0.000 A 
ATOM     30  C   UNL     1       0.786   2.818  19.291  0.00  0.00    +0.000 A 
ATOM     31  C   UNL     1       1.129   2.784  20.639  0.00  0.00    +0.000 A 
ATOM     32  C   UNL     1       2.324   3.361  21.060  0.00  0.00    +0.000 A 
ATOM     33  C   UNL     1       3.191   3.930  20.124  0.00  0.00    +0.000 A 
ENDBRANCH  27  28
ENDBRANCH  19  27
ENDBRANCH   3  19
TORSDOF 12
ENDMDL
MODEL 4
REMARK VINA RESULT:      -7.6      1.100      1.588
REMARK  Name = 
REMARK  13 active torsions:
REMARK  status: ('A' for Active; 'I' for Inactive)
REMARK    1  A    between atoms: C_1  and  O_2
REMARK    2  A    between atoms: O_2  and  C_3
REMARK    3  A    between atoms: C_3  and  O_4
REMARK    4  A    between atoms: O_4  and  C_5
REMARK    5  A    between atoms: C_10  and  C_11
REMARK    6  A    between atoms: C_11  and  C_13
REMARK    7  A    between atoms: C_13  and  C_14
REMARK    8  A    between atoms: C_14  and  C_15
REMARK    9  A    between atoms: N_17  and  C_18
REMARK   10  A    between atoms: C_18  and  C_19
REMARK   11  A    between atoms: C_18  and  C_26
REMARK   12  A    between atoms: C_19  and  C_20
REMARK   13  A    between atoms: C_26  and  C_28
REMARK                            x       y       z     vdW  Elec       q    Type
REMARK                         _______ _______ _______ _____ _____    ______ ____
ROOT
ATOM      1  C   UNL     1       2.857   7.154  18.395  0.00  0.00    +0.000 C 
ATOM      2  O   UNL     1       2.819   6.916  19.598  0.00  0.00    +0.000 OA
ATOM      3  N   UNL     1       3.621   6.433  17.511  0.00  0.00    +0.000 N 
ATOM      4  H   UNL     1       3.758   6.789  16.569  0.00  0.00    +0.000 HD
ENDROOT
BRANCH   1   5
ATOM      5  C   UNL     1       1.997   8.218  17.746  0.00  0.00    +0.000 C 
BRANCH   5   6
ATOM      6  C   UNL     1       1.961   9.477  18.627  0.00  0.00    +0.000 C 
BRANCH   6   7
ATOM      7  C   UNL     1       0.540   9.906  18.943  0.00  0.00    +0.000 C 
ATOM      8  O   UNL     1      -0.275  10.073  18.033  0.00  0.00    +0.000 OA
BRANCH   7  14
ATOM      9  C   UNL     1      -0.197  11.400  20.963  0.00  0.00    +0.000 A 
ATOM     10  C   UNL     1      -0.657  11.427  22.298  0.00  0.00    +0.000 A 
ATOM     11  C   UNL     1      -0.739  10.273  23.073  0.00  0.00    +0.000 A 
ATOM     12  C   UNL     1      -0.405   9.057  22.509  0.00  0.00    +0.000 A 
ATOM     13  C   UNL     1      -0.015   8.995  21.167  0.00  0.00    +0.000 A 
ATOM     14  C   UNL     1       0.091  10.156  20.368  0.00  0.00    +0.000 A 
BRANCH   9  15
ATOM     15  O   UNL     1      -0.004  12.559  20.251  0.00  0.00    +0.000 OA
BRANCH  15  16
ATOM     16  C   UNL     1       1.210  13.289  20.509  0.00  0.00    +0.000 C 
BRANCH  16  18
ATOM     17  C   UNL     1       1.971  13.248  18.262  0.00  0.00    +0.000 C 
ATOM     18  O   UNL     1       2.269  12.933  19.615  0.00  0.00    +0.000 OA
ENDBRANCH  16  18
ENDBRANCH  15  16
ENDBRANCH   9  15
ENDBRANCH   7  14
ENDBRANCH   6   7
ENDBRANCH   5   6
ENDBRANCH   1   5
BRANCH   3  19
ATOM     19  C   UNL     1       4.413   5.250  17.901  0.00  0.00    +0.000 C 
BRANCH  19  20
ATOM     20  C   UNL     1       5.635   5.186  16.983  0.00  0.00    +0.000 C 
ATOM     21  O   UNL     1       6.724   4.721  17.326  0.00  0.00    +0.000 OA
BRANCH  20  22
ATOM     22  C   UNL     1       5.477   5.681  15.541  0.00  0.00    +0.000 C 
ATOM     23  N   UNL     1       5.501   4.688  14.597  0.00  0.00    +0.000 N 
ATOM     24  O   UNL     1       5.319   6.858  15.273  0.00  0.00    +0.000 OA
ATOM     25  H   UNL     1       5.571   3.716  14.881  0.00  0.00    +0.000 HD
ATOM     26  H   UNL     1       5.366   4.920  13.622  0.00  0.00    +0.000 HD
ENDBRANCH  20  22
ENDBRANCH  19  20
BRANCH  19  27
ATOM     27  C   UNL     1       3.572   3.955  17.901  0.00  0.00    +0.000 C 
BRANCH  27  28
ATOM     28  C   UNL     1       2.749   3.597  19.125  0.00  0.00    +0.000 A 
ATOM     29  C   UNL     1       1.362   3.757  19.220  0.00  0.00    +0.000 A 
ATOM     30  C   UNL     1       0.665   3.323  20.349  0.00  0.00    +0.000 A 
ATOM     31  C   UNL     1       1.348   2.750  21.418  0.00  0.00    +0.000 A 
ATOM     32  C   UNL     1       2.734   2.639  21.370  0.00  0.00    +0.000 A 
ATOM     33  C   UNL     1       3.428   3.062  20.234  0.00  0.00    +0.000 A 
ENDBRANCH  27  28
ENDBRANCH  19  27
ENDBRANCH   3  19
TORSDOF 12
ENDMDL
MODEL 5
REMARK VINA RESULT:      -7.6      1.766      2.838
REMARK  Name = 
REMARK  13 active torsions:
REMARK  status: ('A' for Active; 'I' for Inactive)
REMARK    1  A    between atoms: C_1  and  O_2
REMARK    2  A    between atoms: O_2  and  C_3
REMARK    3  A    between atoms: C_3  and  O_4
REMARK    4  A    between atoms: O_4  and  C_5
REMARK    5  A    between atoms: C_10  and  C_11
REMARK    6  A    between atoms: C_11  and  C_13
REMARK    7  A    between atoms: C_13  and  C_14
REMARK    8  A    between atoms: C_14  and  C_15
REMARK    9  A    between atoms: N_17  and  C_18
REMARK   10  A    between atoms: C_18  and  C_19
REMARK   11  A    between atoms: C_18  and  C_26
REMARK   12  A    between atoms: C_19  and  C_20
REMARK   13  A    between atoms: C_26  and  C_28
REMARK                            x       y       z     vdW  Elec       q    Type
REMARK                         _______ _______ _______ _____ _____    ______ ____
ROOT
ATOM      1  C   UNL     1       3.240   6.379  18.257  0.00  0.00    +0.000 C 
ATOM      2  O   UNL     1       3.663   6.331  19.408  0.00  0.00    +0.000 OA
ATOM      3  N   UNL     1       3.678   5.541  17.261  0.00  0.00    +0.000 N 
ATOM      4  H   UNL     1       3.434   5.748  16.296  0.00  0.00    +0.000 HD
ENDROOT
BRANCH   1   5
ATOM      5  C   UNL     1       2.126   7.313  17.835  0.00  0.00    +0.000 C 
BRANCH   5   6
ATOM      6  C   UNL     1       1.951   8.429  18.877  0.00  0.00    +0.000 C 
BRANCH   6   7
ATOM      7  C   UNL     1       1.494   9.730  18.242  0.00  0.00    +0.000 C 
ATOM      8  O   UNL     1       2.285  10.412  17.586  0.00  0.00    +0.000 OA
BRANCH   7  14
ATOM      9  C   UNL     1      -0.433  11.017  19.461  0.00  0.00    +0.000 A 
ATOM     10  C   UNL     1      -1.781  11.435  19.412  0.00  0.00    +0.000 A 
ATOM     11  C   UNL     1      -2.649  11.010  18.408  0.00  0.00    +0.000 A 
ATOM     12  C   UNL     1      -2.168  10.194  17.403  0.00  0.00    +0.000 A 
ATOM     13  C   UNL     1      -0.818   9.825  17.390  0.00  0.00    +0.000 A 
ATOM     14  C   UNL     1       0.074  10.231  18.407  0.00  0.00    +0.000 A 
BRANCH   9  15
ATOM     15  O   UNL     1       0.377  11.344  20.521  0.00  0.00    +0.000 OA
BRANCH  15  16
ATOM     16  C   UNL     1      -0.181  12.213  21.525  0.00  0.00    +0.000 C 
BRANCH  16  18
ATOM     17  C   UNL     1      -1.153  10.696  23.068  0.00  0.00    +0.000 C 
ATOM     18  O   UNL     1      -0.124  11.648  22.837  0.00  0.00    +0.000 OA
ENDBRANCH  16  18
ENDBRANCH  15  16
ENDBRANCH   9  15
ENDBRANCH   7  14
ENDBRANCH   6   7
ENDBRANCH   5   6
ENDBRANCH   1   5
BRANCH   3  19
ATOM     19  C   UNL     1       4.643   4.448  17.488  0.00  0.00    +0.000 C 
BRANCH  19  20
ATOM     20  C   UNL     1       5.563   4.381  16.267  0.00  0.00    +0.000 C 
ATOM     21  O   UNL     1       5.851   3.332  15.685  0.00  0.00    +0.000 OA
BRANCH  20  22
ATOM     22  C   UNL     1       6.114   5.697  15.708  0.00  0.00    +0.000 C 
ATOM     23  N   UNL     1       7.481   5.769  15.676  0.00  0.00    +0.000 N 
ATOM     24  O   UNL     1       5.386   6.586  15.307  0.00  0.00    +0.000 OA
ATOM     25  H   UNL     1       8.041   4.972  15.963  0.00  0.00    +0.000 HD
ATOM     26  H   UNL     1       7.932   6.587  15.287  0.00  0.00    +0.000 HD
ENDBRANCH  20  22
ENDBRANCH  19  20
BRANCH  19  27
ATOM     27  C   UNL     1       3.946   3.109  17.810  0.00  0.00    +0.000 C 
BRANCH  27  28
ATOM     28  C   UNL     1       2.984   3.029  18.981  0.00  0.00    +0.000 A 
ATOM     29  C   UNL     1       1.593   3.145  18.871  0.00  0.00    +0.000 A 
ATOM     30  C   UNL     1       0.768   2.974  19.983  0.00  0.00    +0.000 A 
ATOM     31  C   UNL     1       1.321   2.715  21.234  0.00  0.00    +0.000 A 
ATOM     32  C   UNL     1       2.704   2.659  21.377  0.00  0.00    +0.000 A 
ATOM     33  C   UNL     1       3.528   2.817  20.260  0.00  0.00    +0.000 A 
ENDBRANCH  27  28
ENDBRANCH  19  27
ENDBRANCH   3  19
TORSDOF 12
ENDMDL
MODEL 6
REMARK VINA RESULT:      -7.6      4.983      7.110
REMARK  Name = 
REMARK  13 active torsions:
REMARK  status: ('A' for Active; 'I' for Inactive)
REMARK    1  A    between atoms: C_1  and  O_2
REMARK    2  A    between atoms: O_2  and  C_3
REMARK    3  A    between atoms: C_3  and  O_4
REMARK    4  A    between atoms: O_4  and  C_5
REMARK    5  A    between atoms: C_10  and  C_11
REMARK    6  A    between atoms: C_11  and  C_13
REMARK    7  A    between atoms: C_13  and  C_14
REMARK    8  A    between atoms: C_14  and  C_15
REMARK    9  A    between atoms: N_17  and  C_18
REMARK   10  A    between atoms: C_18  and  C_19
REMARK   11  A    between atoms: C_18  and  C_26
REMARK   12  A    between atoms: C_19  and  C_20
REMARK   13  A    between atoms: C_26  and  C_28
REMARK                            x       y       z     vdW  Elec       q    Type
REMARK                         _______ _______ _______ _____ _____    ______ ____
ROOT
ATOM      1  C   UNL     1       7.664   7.927  17.936  0.00  0.00    +0.000 C 
ATOM      2  O   UNL     1       8.146   7.018  18.603  0.00  0.00    +0.000 OA
ATOM      3  N   UNL     1       6.493   7.801  17.230  0.00  0.00    +0.000 N 
ATOM      4  H   UNL     1       6.243   8.517  16.553  0.00  0.00    +0.000 HD
ENDROOT
BRANCH   1   5
ATOM      5  C   UNL     1       8.268   9.315  17.891  0.00  0.00    +0.000 C 
BRANCH   5   6
ATOM      6  C   UNL     1       9.294   9.480  19.023  0.00  0.00    +0.000 C 
BRANCH   6   7
ATOM      7  C   UNL     1       9.364  10.914  19.519  0.00  0.00    +0.000 C 
ATOM      8  O   UNL     1       8.946  11.202  20.643  0.00  0.00    +0.000 OA
BRANCH   7  14
ATOM      9  C   UNL     1       9.369  13.295  18.433  0.00  0.00    +0.000 A 
ATOM     10  C   UNL     1      10.073  14.219  17.629  0.00  0.00    +0.000 A 
ATOM     11  C   UNL     1      11.250  13.873  16.968  0.00  0.00    +0.000 A 
ATOM     12  C   UNL     1      11.770  12.605  17.138  0.00  0.00    +0.000 A 
ATOM     13  C   UNL     1      11.129  11.695  17.986  0.00  0.00    +0.000 A 
ATOM     14  C   UNL     1       9.927  12.020  18.652  0.00  0.00    +0.000 A 
BRANCH   9  15
ATOM     15  O   UNL     1       8.149  13.611  18.979  0.00  0.00    +0.000 OA
BRANCH  15  16
ATOM     16  C   UNL     1       7.956  14.974  19.403  0.00  0.00    +0.000 C 
BRANCH  16  18
ATOM     17  C   UNL     1       7.101  17.086  18.743  0.00  0.00    +0.000 C 
ATOM     18  O   UNL     1       7.013  15.677  18.591  0.00  0.00    +0.000 OA
ENDBRANCH  16  18
ENDBRANCH  15  16
ENDBRANCH   9  15
ENDBRANCH   7  14
ENDBRANCH   6   7
ENDBRANCH   5   6
ENDBRANCH   1   5
BRANCH   3  19
ATOM     19  C   UNL     1       5.654   6.588  17.262  0.00  0.00    +0.000 C 
BRANCH  19  20
ATOM     20  C   UNL     1       5.932   5.797  15.982  0.00  0.00    +0.000 C 
ATOM     21  O   UNL     1       5.652   6.205  14.852  0.00  0.00    +0.000 OA
BRANCH  20  22
ATOM     22  C   UNL     1       6.646   4.447  16.111  0.00  0.00    +0.000 C 
ATOM     23  N   UNL     1       7.591   4.400  17.101  0.00  0.00    +0.000 N 
ATOM     24  O   UNL     1       6.368   3.496  15.403  0.00  0.00    +0.000 OA
ATOM     25  H   UNL     1       7.737   5.203  17.706  0.00  0.00    +0.000 HD
ATOM     26  H   UNL     1       8.085   3.537  17.283  0.00  0.00    +0.000 HD
ENDBRANCH  20  22
ENDBRANCH  19  20
BRANCH  19  27
ATOM     27  C   UNL     1       4.160   6.914  17.474  0.00  0.00    +0.000 C 
BRANCH  27  28
ATOM     28  C   UNL     1       3.290   5.958  18.269  0.00  0.00    +0.000 A 
ATOM     29  C   UNL     1       2.875   6.177  19.588  0.00  0.00    +0.000 A 
ATOM     30  C   UNL     1       2.004   5.290  20.223  0.00  0.00    +0.000 A 
ATOM     31  C   UNL     1       1.557   4.151  19.561  0.00  0.00    +0.000 A 
ATOM     32  C   UNL     1       2.008   3.882  18.273  0.00  0.00    +0.000 A 
ATOM     33  C   UNL     1       2.869   4.776  17.634  0.00  0.00    +0.000 A 
ENDBRANCH  27  28
ENDBRANCH  19  27
ENDBRANCH   3  19
TORSDOF 12
ENDMDL
MODEL 7
REMARK VINA RESULT:      -7.4      4.903      7.097
REMARK  Name = 
REMARK  13 active torsions:
REMARK  status: ('A' for Active; 'I' for Inactive)
REMARK    1  A    between atoms: C_1  and  O_2
REMARK    2  A    between atoms: O_2  and  C_3
REMARK    3  A    between atoms: C_3  and  O_4
REMARK    4  A    between atoms: O_4  and  C_5
REMARK    5  A    between atoms: C_10  and  C_11
REMARK    6  A    between atoms: C_11  and  C_13
REMARK    7  A    between atoms: C_13  and  C_14
REMARK    8  A    between atoms: C_14  and  C_15
REMARK    9  A    between atoms: N_17  and  C_18
REMARK   10  A    between atoms: C_18  and  C_19
REMARK   11  A    between atoms: C_18  and  C_26
REMARK   12  A    between atoms: C_19  and  C_20
REMARK   13  A    between atoms: C_26  and  C_28
REMARK                            x       y       z     vdW  Elec       q    Type
REMARK                         _______ _______ _______ _____ _____    ______ ____
ROOT
ATOM      1  C   UNL     1       7.631   8.007  17.952  0.00  0.00    +0.000 C 
ATOM      2  O   UNL     1       8.167   7.078  18.547  0.00  0.00    +0.000 OA
ATOM      3  N   UNL     1       6.413   7.894  17.327  0.00  0.00    +0.000 N 
ATOM      4  H   UNL     1       6.109   8.632  16.697  0.00  0.00    +0.000 HD
ENDROOT
BRANCH   1   5
ATOM      5  C   UNL     1       8.218   9.402  17.918  0.00  0.00    +0.000 C 
BRANCH   5   6
ATOM      6  C   UNL     1       9.303   9.544  18.997  0.00  0.00    +0.000 C 
BRANCH   6   7
ATOM      7  C   UNL     1       9.404  10.968  19.514  0.00  0.00    +0.000 C 
ATOM      8  O   UNL     1       9.015  11.244  20.651  0.00  0.00    +0.000 OA
BRANCH   7  14
ATOM      9  C   UNL     1       9.378  13.336  18.399  0.00  0.00    +0.000 A 
ATOM     10  C   UNL     1      10.083  14.270  17.608  0.00  0.00    +0.000 A 
ATOM     11  C   UNL     1      11.290  13.950  16.989  0.00  0.00    +0.000 A 
ATOM     12  C   UNL     1      11.840  12.700  17.192  0.00  0.00    +0.000 A 
ATOM     13  C   UNL     1      11.197  11.782  18.030  0.00  0.00    +0.000 A 
ATOM     14  C   UNL     1       9.964  12.080  18.652  0.00  0.00    +0.000 A 
BRANCH   9  15
ATOM     15  O   UNL     1       8.132  13.623  18.900  0.00  0.00    +0.000 OA
BRANCH  15  16
ATOM     16  C   UNL     1       7.604  14.934  18.624  0.00  0.00    +0.000 C 
BRANCH  16  18
ATOM     17  C   UNL     1       5.416  15.852  18.642  0.00  0.00    +0.000 C 
ATOM     18  O   UNL     1       6.444  15.237  19.405  0.00  0.00    +0.000 OA
ENDBRANCH  16  18
ENDBRANCH  15  16
ENDBRANCH   9  15
ENDBRANCH   7  14
ENDBRANCH   6   7
ENDBRANCH   5   6
ENDBRANCH   1   5
BRANCH   3  19
ATOM     19  C   UNL     1       5.589   6.671  17.371  0.00  0.00    +0.000 C 
BRANCH  19  20
ATOM     20  C   UNL     1       5.987   5.799  16.179  0.00  0.00    +0.000 C 
ATOM     21  O   UNL     1       5.522   5.936  15.046  0.00  0.00    +0.000 OA
BRANCH  20  22
ATOM     22  C   UNL     1       7.063   4.730  16.399  0.00  0.00    +0.000 C 
ATOM     23  N   UNL     1       7.119   4.237  17.675  0.00  0.00    +0.000 N 
ATOM     24  O   UNL     1       7.785   4.342  15.498  0.00  0.00    +0.000 OA
ATOM     25  H   UNL     1       6.450   4.550  18.372  0.00  0.00    +0.000 HD
ATOM     26  H   UNL     1       7.774   3.501  17.901  0.00  0.00    +0.000 HD
ENDBRANCH  20  22
ENDBRANCH  19  20
BRANCH  19  27
ATOM     27  C   UNL     1       4.078   6.985  17.429  0.00  0.00    +0.000 C 
BRANCH  27  28
ATOM     28  C   UNL     1       3.155   6.075  18.219  0.00  0.00    +0.000 A 
ATOM     29  C   UNL     1       2.655   4.855  17.749  0.00  0.00    +0.000 A 
ATOM     30  C   UNL     1       1.880   4.033  18.568  0.00  0.00    +0.000 A 
ATOM     31  C   UNL     1       1.564   4.431  19.864  0.00  0.00    +0.000 A 
ATOM     32  C   UNL     1       1.997   5.669  20.328  0.00  0.00    +0.000 A 
ATOM     33  C   UNL     1       2.784   6.485  19.512  0.00  0.00    +0.000 A 
ENDBRANCH  27  28
ENDBRANCH  19  27
ENDBRANCH   3  19
TORSDOF 12
ENDMDL
MODEL 8
REMARK VINA RESULT:      -7.4      1.765      2.564
REMARK  Name = 
REMARK  13 active torsions:
REMARK  status: ('A' for Active; 'I' for Inactive)
REMARK    1  A    between atoms: C_1  and  O_2
REMARK    2  A    between atoms: O_2  and  C_3
REMARK    3  A    between atoms: C_3  and  O_4
REMARK    4  A    between atoms: O_4  and  C_5
REMARK    5  A    between atoms: C_10  and  C_11
REMARK    6  A    between atoms: C_11  and  C_13
REMARK    7  A    between atoms: C_13  and  C_14
REMARK    8  A    between atoms: C_14  and  C_15
REMARK    9  A    between atoms: N_17  and  C_18
REMARK   10  A    between atoms: C_18  and  C_19
REMARK   11  A    between atoms: C_18  and  C_26
REMARK   12  A    between atoms: C_19  and  C_20
REMARK   13  A    between atoms: C_26  and  C_28
REMARK                            x       y       z     vdW  Elec       q    Type
REMARK                         _______ _______ _______ _____ _____    ______ ____
ROOT
ATOM      1  C   UNL     1       3.258   6.818  18.719  0.00  0.00    +0.000 C 
ATOM      2  O   UNL     1       2.721   6.639  19.807  0.00  0.00    +0.000 OA
ATOM      3  N   UNL     1       4.429   6.203  18.350  0.00  0.00    +0.000 N 
ATOM      4  H   UNL     1       4.920   6.529  17.522  0.00  0.00    +0.000 HD
ENDROOT
BRANCH   1   5
ATOM      5  C   UNL     1       2.638   7.672  17.634  0.00  0.00    +0.000 C 
BRANCH   5   6
ATOM      6  C   UNL     1       2.391   9.095  18.160  0.00  0.00    +0.000 C 
BRANCH   6   7
ATOM      7  C   UNL     1       0.910   9.387  18.326  0.00  0.00    +0.000 C 
ATOM      8  O   UNL     1       0.131   9.197  17.390  0.00  0.00    +0.000 OA
BRANCH   7  14
ATOM      9  C   UNL     1      -0.684  10.867  19.784  0.00  0.00    +0.000 A 
ATOM     10  C   UNL     1      -1.100  11.212  21.088  0.00  0.00    +0.000 A 
ATOM     11  C   UNL     1      -0.448  10.733  22.222  0.00  0.00    +0.000 A 
ATOM     12  C   UNL     1       0.609   9.856  22.070  0.00  0.00    +0.000 A 
ATOM     13  C   UNL     1       0.994   9.443  20.790  0.00  0.00    +0.000 A 
ATOM     14  C   UNL     1       0.357   9.930  19.627  0.00  0.00    +0.000 A 
BRANCH   9  15
ATOM     15  O   UNL     1      -1.257  11.443  18.676  0.00  0.00    +0.000 OA
BRANCH  15  16
ATOM     16  C   UNL     1      -2.691  11.367  18.570  0.00  0.00    +0.000 C 
BRANCH  16  18
ATOM     17  C   UNL     1      -2.653  10.906  16.243  0.00  0.00    +0.000 C 
ATOM     18  O   UNL     1      -3.169  11.736  17.273  0.00  0.00    +0.000 OA
ENDBRANCH  16  18
ENDBRANCH  15  16
ENDBRANCH   9  15
ENDBRANCH   7  14
ENDBRANCH   6   7
ENDBRANCH   5   6
ENDBRANCH   1   5
BRANCH   3  19
ATOM     19  C   UNL     1       5.121   5.206  19.190  0.00  0.00    +0.000 C 
BRANCH  19  20
ATOM     20  C   UNL     1       6.626   5.419  19.018  0.00  0.00    +0.000 C 
ATOM     21  O   UNL     1       7.416   5.512  19.961  0.00  0.00    +0.000 OA
BRANCH  20  22
ATOM     22  C   UNL     1       7.188   5.467  17.593  0.00  0.00    +0.000 C 
ATOM     23  N   UNL     1       7.882   4.347  17.220  0.00  0.00    +0.000 N 
ATOM     24  O   UNL     1       7.002   6.418  16.855  0.00  0.00    +0.000 OA
ATOM     25  H   UNL     1       7.952   3.557  17.853  0.00  0.00    +0.000 HD
ATOM     26  H   UNL     1       8.256   4.277  16.283  0.00  0.00    +0.000 HD
ENDBRANCH  20  22
ENDBRANCH  19  20
BRANCH  19  27
ATOM     27  C   UNL     1       4.663   3.763  18.885  0.00  0.00    +0.000 C 
BRANCH  27  28
ATOM     28  C   UNL     1       3.265   3.323  19.281  0.00  0.00    +0.000 A 
ATOM     29  C   UNL     1       2.858   3.073  20.596  0.00  0.00    +0.000 A 
ATOM     30  C   UNL     1       1.531   2.755  20.888  0.00  0.00    +0.000 A 
ATOM     31  C   UNL     1       0.593   2.649  19.866  0.00  0.00    +0.000 A 
ATOM     32  C   UNL     1       0.991   2.831  18.545  0.00  0.00    +0.000 A 
ATOM     33  C   UNL     1       2.317   3.163  18.255  0.00  0.00    +0.000 A 
ENDBRANCH  27  28
ENDBRANCH  19  27
ENDBRANCH   3  19
TORSDOF 12
ENDMDL
MODEL 9
REMARK VINA RESULT:      -7.3      5.597      7.362
REMARK  Name = 
REMARK  13 active torsions:
REMARK  status: ('A' for Active; 'I' for Inactive)
REMARK    1  A    between atoms: C_1  and  O_2
REMARK    2  A    between atoms: O_2  and  C_3
REMARK    3  A    between atoms: C_3  and  O_4
REMARK    4  A    between atoms: O_4  and  C_5
REMARK    5  A    between atoms: C_10  and  C_11
REMARK    6  A    between atoms: C_11  and  C_13
REMARK    7  A    between atoms: C_13  and  C_14
REMARK    8  A    between atoms: C_14  and  C_15
REMARK    9  A    between atoms: N_17  and  C_18
REMARK   10  A    between atoms: C_18  and  C_19
REMARK   11  A    between atoms: C_18  and  C_26
REMARK   12  A    between atoms: C_19  and  C_20
REMARK   13  A    between atoms: C_26  and  C_28
REMARK                            x       y       z     vdW  Elec       q    Type
REMARK                         _______ _______ _______ _____ _____    ______ ____
ROOT
ATOM      1  C   UNL     1       8.015   7.949  17.873  0.00  0.00    +0.000 C 
ATOM      2  O   UNL     1       8.535   7.496  18.886  0.00  0.00    +0.000 OA
ATOM      3  N   UNL     1       7.076   7.264  17.142  0.00  0.00    +0.000 N 
ATOM      4  H   UNL     1       6.821   7.606  16.218  0.00  0.00    +0.000 HD
ENDROOT
BRANCH   1   5
ATOM      5  C   UNL     1       8.293   9.349  17.368  0.00  0.00    +0.000 C 
BRANCH   5   6
ATOM      6  C   UNL     1       8.108  10.366  18.506  0.00  0.00    +0.000 C 
BRANCH   6   7
ATOM      7  C   UNL     1       9.430  10.963  18.952  0.00  0.00    +0.000 C 
ATOM      8  O   UNL     1      10.091  10.414  19.837  0.00  0.00    +0.000 OA
BRANCH   7  14
ATOM      9  C   UNL     1       9.470  13.548  18.543  0.00  0.00    +0.000 A 
ATOM     10  C   UNL     1      10.136  14.630  17.928  0.00  0.00    +0.000 A 
ATOM     11  C   UNL     1      11.201  14.437  17.050  0.00  0.00    +0.000 A 
ATOM     12  C   UNL     1      11.651  13.154  16.809  0.00  0.00    +0.000 A 
ATOM     13  C   UNL     1      11.053  12.071  17.462  0.00  0.00    +0.000 A 
ATOM     14  C   UNL     1       9.961  12.243  18.343  0.00  0.00    +0.000 A 
BRANCH   9  15
ATOM     15  O   UNL     1       8.346  13.745  19.308  0.00  0.00    +0.000 OA
BRANCH  15  16
ATOM     16  C   UNL     1       8.466  14.649  20.423  0.00  0.00    +0.000 C 
BRANCH  16  18
ATOM     17  C   UNL     1       8.293  12.868  21.981  0.00  0.00    +0.000 C 
ATOM     18  O   UNL     1       9.018  14.023  21.585  0.00  0.00    +0.000 OA
ENDBRANCH  16  18
ENDBRANCH  15  16
ENDBRANCH   9  15
ENDBRANCH   7  14
ENDBRANCH   6   7
ENDBRANCH   5   6
ENDBRANCH   1   5
BRANCH   3  19
ATOM     19  C   UNL     1       6.538   5.950  17.540  0.00  0.00    +0.000 C 
BRANCH  19  20
ATOM     20  C   UNL     1       7.327   4.877  16.787  0.00  0.00    +0.000 C 
ATOM     21  O   UNL     1       8.131   4.114  17.327  0.00  0.00    +0.000 OA
BRANCH  20  22
ATOM     22  C   UNL     1       7.062   4.711  15.287  0.00  0.00    +0.000 C 
ATOM     23  N   UNL     1       6.332   3.598  14.962  0.00  0.00    +0.000 N 
ATOM     24  O   UNL     1       7.452   5.521  14.466  0.00  0.00    +0.000 OA
ATOM     25  H   UNL     1       5.976   2.990  15.692  0.00  0.00    +0.000 HD
ATOM     26  H   UNL     1       6.078   3.429  13.998  0.00  0.00    +0.000 HD
ENDBRANCH  20  22
ENDBRANCH  19  20
BRANCH  19  27
ATOM     27  C   UNL     1       5.011   5.853  17.333  0.00  0.00    +0.000 C 
BRANCH  27  28
ATOM     28  C   UNL     1       4.263   4.631  17.833  0.00  0.00    +0.000 A 
ATOM     29  C   UNL     1       3.287   3.946  17.100  0.00  0.00    +0.000 A 
ATOM     30  C   UNL     1       2.706   2.778  17.595  0.00  0.00    +0.000 A 
ATOM     31  C   UNL     1       3.067   2.291  18.848  0.00  0.00    +0.000 A 
ATOM     32  C   UNL     1       3.988   2.992  19.620  0.00  0.00    +0.000 A 
ATOM     33  C   UNL     1       4.579   4.154  19.117  0.00  0.00    +0.000 A 
ENDBRANCH  27  28
ENDBRANCH  19  27
ENDBRANCH   3  19
TORSDOF 12
ENDMDL
