MODEL 1
REMARK VINA RESULT:      -8.2      0.000      0.000
REMARK  Name = 
REMARK  8 active torsions:
REMARK  status: ('A' for Active; 'I' for Inactive)
REMARK    1  A    between atoms: C_1  and  C_2
REMARK    2  A    between atoms: C_2  and  C_3
REMARK    3  A    between atoms: C_2  and  C_4
REMARK    4  A    between atoms: C_2  and  N_5
REMARK    5  A    between atoms: C_9  and  C_10
REMARK    6  A    between atoms: C_10  and  N_11
REMARK    7  A    between atoms: C_10  and  C_18
REMARK    8  A    between atoms: N_11  and  C_12
REMARK                            x       y       z     vdW  Elec       q    Type
REMARK                         _______ _______ _______ _____ _____    ______ ____
ROOT
ATOM      1  C   UNL     1       3.163   6.236  18.974  0.00  0.00    +0.000 C 
ENDROOT
BRANCH   1   2
ATOM      2  C   UNL     1       2.257   7.390  19.447  0.00  0.00    +0.000 A 
ATOM      3  C   UNL     1       1.756   7.477  20.691  0.00  0.00    +0.000 A 
ATOM      4  O   UNL     1       0.774   8.331  21.122  0.00  0.00    +0.000 OA
ATOM      5  C   UNL     1       0.573   9.458  20.378  0.00  0.00    +0.000 A 
ATOM      6  C   UNL     1      -0.231  10.436  20.957  0.00  0.00    +0.000 A 
ATOM      7  C   UNL     1      -0.223  11.709  20.410  0.00  0.00    +0.000 A 
ATOM      8  F   UNL     1      -0.915  12.685  21.014  0.00  0.00    +0.000 F 
ATOM      9  C   UNL     1       0.548  11.991  19.284  0.00  0.00    +0.000 A 
ATOM     10  C   UNL     1       1.247  10.966  18.633  0.00  0.00    +0.000 A 
ATOM     11  C   UNL     1       1.244   9.685  19.183  0.00  0.00    +0.000 A 
ATOM     12  C   UNL     1       1.953   8.555  18.550  0.00  0.00    +0.000 A 
ATOM     13  O   UNL     1       2.316   8.551  17.378  0.00  0.00    +0.000 OA
ENDBRANCH   1   2
BRANCH   1  18
ATOM     14  N   UNL     1       2.449   3.731  18.743  0.00  0.00    +0.000 N 
ATOM     15  N   UNL     1       1.457   3.096  18.066  0.00  0.00    +0.000 NA
ATOM     16  N   UNL     1       0.917   3.989  17.264  0.00  0.00    +0.000 NA
ATOM     17  N   UNL     1       1.478   5.205  17.462  0.00  0.00    +0.000 NA
ATOM     18  C   UNL     1       2.403   5.069  18.404  0.00  0.00    +0.000 A 
BRANCH  14  20
ATOM     19  C   UNL     1       3.325   1.454  18.884  0.00  0.00    +0.000 C 
ATOM     20  C   UNL     1       3.338   2.864  19.529  0.00  0.00    +0.000 C 
ATOM     21  C   UNL     1       2.797   2.734  20.975  0.00  0.00    +0.000 C 
ATOM     22  C   UNL     1       4.805   3.305  19.628  0.00  0.00    +0.000 C 
ENDBRANCH  14  20
ENDBRANCH   1  18
BRANCH   1  23
ATOM     23  N   UNL     1       4.278   6.831  18.171  0.00  0.00    +0.000 N 
ATOM     24  H   UNL     1       3.899   7.576  17.586  0.00  0.00    +0.000 HD
BRANCH  23  25
ATOM     25  C   UNL     1       5.229   6.099  17.448  0.00  0.00    +0.000 A 
ATOM     26  C   UNL     1       4.987   5.816  16.089  0.00  0.00    +0.000 A 
ATOM     27  C   UNL     1       5.899   5.092  15.308  0.00  0.00    +0.000 A 
ATOM     28  C   UNL     1       7.098   4.658  15.859  0.00  0.00    +0.000 A 
ATOM     29  C   UNL     1       7.380   4.962  17.185  0.00  0.00    +0.000 A 
ATOM     30  C   UNL     1       6.466   5.694  17.958  0.00  0.00    +0.000 A 
ENDBRANCH  23  25
ENDBRANCH   1  23
TORSDOF 5
ENDMDL
MODEL 2
REMARK VINA RESULT:      -8.1      0.526      1.189
REMARK  Name = 
REMARK  8 active torsions:
REMARK  status: ('A' for Active; 'I' for Inactive)
REMARK    1  A    between atoms: C_1  and  C_2
REMARK    2  A    between atoms: C_2  and  C_3
REMARK    3  A    between atoms: C_2  and  C_4
REMARK    4  A    between atoms: C_2  and  N_5
REMARK    5  A    between atoms: C_9  and  C_10
REMARK    6  A    between atoms: C_10  and  N_11
REMARK    7  A    between atoms: C_10  and  C_18
REMARK    8  A    between atoms: N_11  and  C_12
REMARK                            x       y       z     vdW  Elec       q    Type
REMARK                         _______ _______ _______ _____ _____    ______ ____
ROOT
ATOM      1  C   UNL     1       3.082   6.347  19.006  0.00  0.00    +0.000 C 
ENDROOT
BRANCH   1   2
ATOM      2  C   UNL     1       2.189   7.514  19.473  0.00  0.00    +0.000 A 
ATOM      3  C   UNL     1       1.709   7.624  20.724  0.00  0.00    +0.000 A 
ATOM      4  O   UNL     1       0.737   8.490  21.157  0.00  0.00    +0.000 OA
ATOM      5  C   UNL     1       0.530   9.605  20.397  0.00  0.00    +0.000 A 
ATOM      6  C   UNL     1      -0.259  10.597  20.972  0.00  0.00    +0.000 A 
ATOM      7  C   UNL     1      -0.254  11.860  20.404  0.00  0.00    +0.000 A 
ATOM      8  F   UNL     1      -0.931  12.850  21.002  0.00  0.00    +0.000 F 
ATOM      9  C   UNL     1       0.500  12.120  19.262  0.00  0.00    +0.000 A 
ATOM     10  C   UNL     1       1.183  11.080  18.617  0.00  0.00    +0.000 A 
ATOM     11  C   UNL     1       1.183   9.809  19.188  0.00  0.00    +0.000 A 
ATOM     12  C   UNL     1       1.876   8.665  18.562  0.00  0.00    +0.000 A 
ATOM     13  O   UNL     1       2.220   8.640  17.385  0.00  0.00    +0.000 OA
ENDBRANCH   1   2
BRANCH   1  18
ATOM     14  N   UNL     1       2.046   3.946  19.058  0.00  0.00    +0.000 N 
ATOM     15  N   UNL     1       1.163   3.287  18.263  0.00  0.00    +0.000 NA
ATOM     16  N   UNL     1       0.994   4.031  17.191  0.00  0.00    +0.000 NA
ATOM     17  N   UNL     1       1.680   5.192  17.306  0.00  0.00    +0.000 NA
ATOM     18  C   UNL     1       2.307   5.171  18.476  0.00  0.00    +0.000 A 
BRANCH  14  20
ATOM     19  C   UNL     1       4.074   2.948  19.988  0.00  0.00    +0.000 C 
ATOM     20  C   UNL     1       2.557   3.187  20.208  0.00  0.00    +0.000 C 
ATOM     21  C   UNL     1       1.859   1.805  20.274  0.00  0.00    +0.000 C 
ATOM     22  C   UNL     1       2.396   3.847  21.584  0.00  0.00    +0.000 C 
ENDBRANCH  14  20
ENDBRANCH   1  18
BRANCH   1  23
ATOM     23  N   UNL     1       4.181   6.922  18.167  0.00  0.00    +0.000 N 
ATOM     24  H   UNL     1       3.787   7.636  17.554  0.00  0.00    +0.000 HD
BRANCH  23  25
ATOM     25  C   UNL     1       5.136   6.172  17.469  0.00  0.00    +0.000 A 
ATOM     26  C   UNL     1       6.131   5.485  18.194  0.00  0.00    +0.000 A 
ATOM     27  C   UNL     1       7.113   4.713  17.557  0.00  0.00    +0.000 A 
ATOM     28  C   UNL     1       7.106   4.579  16.174  0.00  0.00    +0.000 A 
ATOM     29  C   UNL     1       6.110   5.211  15.440  0.00  0.00    +0.000 A 
ATOM     30  C   UNL     1       5.127   5.975  16.085  0.00  0.00    +0.000 A 
ENDBRANCH  23  25
ENDBRANCH   1  23
TORSDOF 5
ENDMDL
MODEL 3
REMARK VINA RESULT:      -8.0      4.315      8.483
REMARK  Name = 
REMARK  8 active torsions:
REMARK  status: ('A' for Active; 'I' for Inactive)
REMARK    1  A    between atoms: C_1  and  C_2
REMARK    2  A    between atoms: C_2  and  C_3
REMARK    3  A    between atoms: C_2  and  C_4
REMARK    4  A    between atoms: C_2  and  N_5
REMARK    5  A    between atoms: C_9  and  C_10
REMARK    6  A    between atoms: C_10  and  N_11
REMARK    7  A    between atoms: C_10  and  C_18
REMARK    8  A    between atoms: N_11  and  C_12
REMARK                            x       y       z     vdW  Elec       q    Type
REMARK                         _______ _______ _______ _____ _____    ______ ____
ROOT
ATOM      1  C   UNL     1      -0.203  10.716  19.440  0.00  0.00    +0.000 C 
ENDROOT
BRANCH   1   2
ATOM      2  C   UNL     1       0.677   9.457  19.568  0.00  0.00    +0.000 A 
ATOM      3  C   UNL     1       0.523   8.541  20.540  0.00  0.00    +0.000 A 
ATOM      4  O   UNL     1       1.392   7.529  20.858  0.00  0.00    +0.000 OA
ATOM      5  C   UNL     1       2.263   7.140  19.881  0.00  0.00    +0.000 A 
ATOM      6  C   UNL     1       2.953   5.954  20.116  0.00  0.00    +0.000 A 
ATOM      7  C   UNL     1       3.604   5.346  19.055  0.00  0.00    +0.000 A 
ATOM      8  F   UNL     1       4.190   4.155  19.242  0.00  0.00    +0.000 F 
ATOM      9  C   UNL     1       3.595   5.930  17.789  0.00  0.00    +0.000 A 
ATOM     10  C   UNL     1       3.011   7.189  17.598  0.00  0.00    +0.000 A 
ATOM     11  C   UNL     1       2.351   7.802  18.663  0.00  0.00    +0.000 A 
ATOM     12  C   UNL     1       1.718   9.130  18.537  0.00  0.00    +0.000 A 
ATOM     13  O   UNL     1       1.976   9.924  17.638  0.00  0.00    +0.000 OA
ENDBRANCH   1   2
BRANCH   1  18
ATOM     14  N   UNL     1      -0.010  12.503  21.340  0.00  0.00    +0.000 N 
ATOM     15  N   UNL     1       0.908  13.459  21.640  0.00  0.00    +0.000 NA
ATOM     16  N   UNL     1       1.727  13.530  20.613  0.00  0.00    +0.000 NA
ATOM     17  N   UNL     1       1.414  12.590  19.690  0.00  0.00    +0.000 NA
ATOM     18  C   UNL     1       0.363  11.919  20.145  0.00  0.00    +0.000 A 
BRANCH  14  20
ATOM     19  C   UNL     1      -1.025  13.551  23.301  0.00  0.00    +0.000 C 
ATOM     20  C   UNL     1      -1.160  12.416  22.251  0.00  0.00    +0.000 C 
ATOM     21  C   UNL     1      -1.130  11.063  23.004  0.00  0.00    +0.000 C 
ATOM     22  C   UNL     1      -2.547  12.553  21.610  0.00  0.00    +0.000 C 
ENDBRANCH  14  20
ENDBRANCH   1  18
BRANCH   1  23
ATOM     23  N   UNL     1      -0.607  10.846  18.004  0.00  0.00    +0.000 N 
ATOM     24  H   UNL     1      -0.043  11.578  17.570  0.00  0.00    +0.000 HD
BRANCH  23  25
ATOM     25  C   UNL     1      -1.928  10.931  17.545  0.00  0.00    +0.000 A 
ATOM     26  C   UNL     1      -2.904  11.518  18.374  0.00  0.00    +0.000 A 
ATOM     27  C   UNL     1      -4.243  11.638  17.974  0.00  0.00    +0.000 A 
ATOM     28  C   UNL     1      -4.635  11.202  16.714  0.00  0.00    +0.000 A 
ATOM     29  C   UNL     1      -3.682  10.660  15.861  0.00  0.00    +0.000 A 
ATOM     30  C   UNL     1      -2.344  10.550  16.266  0.00  0.00    +0.000 A 
ENDBRANCH  23  25
ENDBRANCH   1  23
TORSDOF 5
ENDMDL
MODEL 4
REMARK VINA RESULT:      -8.0      1.414      1.931
REMARK  Name = 
REMARK  8 active torsions:
REMARK  status: ('A' for Active; 'I' for Inactive)
REMARK    1  A    between atoms: C_1  and  C_2
REMARK    2  A    between atoms: C_2  and  C_3
REMARK    3  A    between atoms: C_2  and  C_4
REMARK    4  A    between atoms: C_2  and  N_5
REMARK    5  A    between atoms: C_9  and  C_10
REMARK    6  A    between atoms: C_10  and  N_11
REMARK    7  A    between atoms: C_10  and  C_18
REMARK    8  A    between atoms: N_11  and  C_12
REMARK                            x       y       z     vdW  Elec       q    Type
REMARK                         _______ _______ _______ _____ _____    ______ ____
ROOT
ATOM      1  C   UNL     1       3.161   5.920  19.718  0.00  0.00    +0.000 C 
ENDROOT
BRANCH   1   2
ATOM      2  C   UNL     1       2.230   7.141  19.852  0.00  0.00    +0.000 A 
ATOM      3  C   UNL     1       1.520   7.412  20.961  0.00  0.00    +0.000 A 
ATOM      4  O   UNL     1       0.508   8.330  21.084  0.00  0.00    +0.000 OA
ATOM      5  C   UNL     1       0.485   9.340  20.165  0.00  0.00    +0.000 A 
ATOM      6  C   UNL     1      -0.372  10.400  20.446  0.00  0.00    +0.000 A 
ATOM      7  C   UNL     1      -0.220  11.581  19.737  0.00  0.00    +0.000 A 
ATOM      8  F   UNL     1      -0.971  12.642  20.062  0.00  0.00    +0.000 F 
ATOM      9  C   UNL     1       0.748  11.689  18.740  0.00  0.00    +0.000 A 
ATOM     10  C   UNL     1       1.512  10.572  18.376  0.00  0.00    +0.000 A 
ATOM     11  C   UNL     1       1.365   9.384  19.091  0.00  0.00    +0.000 A 
ATOM     12  C   UNL     1       2.132   8.166  18.761  0.00  0.00    +0.000 A 
ATOM     13  O   UNL     1       2.697   7.989  17.686  0.00  0.00    +0.000 OA
ENDBRANCH   1   2
BRANCH   1  18
ATOM     14  N   UNL     1       2.142   3.513  19.792  0.00  0.00    +0.000 N 
ATOM     15  N   UNL     1       1.928   2.614  20.788  0.00  0.00    +0.000 NA
ATOM     16  N   UNL     1       2.150   3.247  21.920  0.00  0.00    +0.000 NA
ATOM     17  N   UNL     1       2.581   4.508  21.682  0.00  0.00    +0.000 NA
ATOM     18  C   UNL     1       2.619   4.675  20.366  0.00  0.00    +0.000 A 
BRANCH  14  20
ATOM     19  C   UNL     1       0.544   2.094  18.605  0.00  0.00    +0.000 C 
ATOM     20  C   UNL     1       1.729   3.083  18.448  0.00  0.00    +0.000 C 
ATOM     21  C   UNL     1       2.894   2.329  17.758  0.00  0.00    +0.000 C 
ATOM     22  C   UNL     1       1.272   4.192  17.491  0.00  0.00    +0.000 C 
ENDBRANCH  14  20
ENDBRANCH   1  18
BRANCH   1  23
ATOM     23  N   UNL     1       3.618   5.850  18.293  0.00  0.00    +0.000 N 
ATOM     24  H   UNL     1       2.895   5.390  17.739  0.00  0.00    +0.000 HD
BRANCH  23  25
ATOM     25  C   UNL     1       4.883   5.417  17.874  0.00  0.00    +0.000 A 
ATOM     26  C   UNL     1       5.073   5.065  16.523  0.00  0.00    +0.000 A 
ATOM     27  C   UNL     1       6.314   4.628  16.037  0.00  0.00    +0.000 A 
ATOM     28  C   UNL     1       7.411   4.564  16.887  0.00  0.00    +0.000 A 
ATOM     29  C   UNL     1       7.260   4.948  18.214  0.00  0.00    +0.000 A 
ATOM     30  C   UNL     1       6.017   5.391  18.690  0.00  0.00    +0.000 A 
ENDBRANCH  23  25
ENDBRANCH   1  23
TORSDOF 5
ENDMDL
MODEL 5
REMARK VINA RESULT:      -7.9      1.356      2.414
REMARK  Name = 
REMARK  8 active torsions:
REMARK  status: ('A' for Active; 'I' for Inactive)
REMARK    1  A    between atoms: C_1  and  C_2
REMARK    2  A    between atoms: C_2  and  C_3
REMARK    3  A    between atoms: C_2  and  C_4
REMARK    4  A    between atoms: C_2  and  N_5
REMARK    5  A    between atoms: C_9  and  C_10
REMARK    6  A    between atoms: C_10  and  N_11
REMARK    7  A    between atoms: C_10  and  C_18
REMARK    8  A    between atoms: N_11  and  C_12
REMARK                            x       y       z     vdW  Elec       q    Type
REMARK                         _______ _______ _______ _____ _____    ______ ____
ROOT
ATOM      1  C   UNL     1       3.153   5.769  18.639  0.00  0.00    +0.000 C 
ENDROOT
BRANCH   1   2
ATOM      2  C   UNL     1       2.517   7.173  18.637  0.00  0.00    +0.000 A 
ATOM      3  C   UNL     1       2.439   7.949  17.543  0.00  0.00    +0.000 A 
ATOM      4  O   UNL     1       2.104   9.278  17.502  0.00  0.00    +0.000 OA
ATOM      5  C   UNL     1       1.391   9.762  18.561  0.00  0.00    +0.000 A 
ATOM      6  C   UNL     1       0.835  11.027  18.394  0.00  0.00    +0.000 A 
ATOM      7  C   UNL     1      -0.143  11.442  19.284  0.00  0.00    +0.000 A 
ATOM      8  F   UNL     1      -0.758  12.616  19.080  0.00  0.00    +0.000 F 
ATOM      9  C   UNL     1      -0.534  10.623  20.341  0.00  0.00    +0.000 A 
ATOM     10  C   UNL     1       0.129   9.411  20.575  0.00  0.00    +0.000 A 
ATOM     11  C   UNL     1       1.111   8.988  19.680  0.00  0.00    +0.000 A 
ATOM     12  C   UNL     1       1.854   7.726  19.865  0.00  0.00    +0.000 A 
ATOM     13  O   UNL     1       1.914   7.122  20.932  0.00  0.00    +0.000 OA
ENDBRANCH   1   2
BRANCH   1  18
ATOM     14  N   UNL     1       1.817   3.694  19.506  0.00  0.00    +0.000 N 
ATOM     15  N   UNL     1       0.734   3.015  19.045  0.00  0.00    +0.000 NA
ATOM     16  N   UNL     1       0.499   3.463  17.830  0.00  0.00    +0.000 NA
ATOM     17  N   UNL     1       1.348   4.470  17.522  0.00  0.00    +0.000 NA
ATOM     18  C   UNL     1       2.147   4.652  18.567  0.00  0.00    +0.000 A 
BRANCH  14  20
ATOM     19  C   UNL     1       2.653   4.406  21.689  0.00  0.00    +0.000 C 
ATOM     20  C   UNL     1       2.397   3.191  20.759  0.00  0.00    +0.000 C 
ATOM     21  C   UNL     1       3.760   2.513  20.471  0.00  0.00    +0.000 C 
ATOM     22  C   UNL     1       1.545   2.187  21.548  0.00  0.00    +0.000 C 
ENDBRANCH  14  20
ENDBRANCH   1  18
BRANCH   1  23
ATOM     23  N   UNL     1       4.287   5.780  17.661  0.00  0.00    +0.000 N 
ATOM     24  H   UNL     1       4.293   4.895  17.155  0.00  0.00    +0.000 HD
BRANCH  23  25
ATOM     25  C   UNL     1       5.601   6.165  17.957  0.00  0.00    +0.000 A 
ATOM     26  C   UNL     1       6.309   5.469  18.958  0.00  0.00    +0.000 A 
ATOM     27  C   UNL     1       7.628   5.800  19.301  0.00  0.00    +0.000 A 
ATOM     28  C   UNL     1       8.289   6.818  18.625  0.00  0.00    +0.000 A 
ATOM     29  C   UNL     1       7.628   7.490  17.604  0.00  0.00    +0.000 A 
ATOM     30  C   UNL     1       6.311   7.148  17.262  0.00  0.00    +0.000 A 
ENDBRANCH  23  25
ENDBRANCH   1  23
TORSDOF 5
ENDMDL
MODEL 6
REMARK VINA RESULT:      -7.9      1.353      2.178
REMARK  Name = 
REMARK  8 active torsions:
REMARK  status: ('A' for Active; 'I' for Inactive)
REMARK    1  A    between atoms: C_1  and  C_2
REMARK    2  A    between atoms: C_2  and  C_3
REMARK    3  A    between atoms: C_2  and  C_4
REMARK    4  A    between atoms: C_2  and  N_5
REMARK    5  A    between atoms: C_9  and  C_10
REMARK    6  A    between atoms: C_10  and  N_11
REMARK    7  A    between atoms: C_10  and  C_18
REMARK    8  A    between atoms: N_11  and  C_12
REMARK                            x       y       z     vdW  Elec       q    Type
REMARK                         _______ _______ _______ _____ _____    ______ ____
ROOT
ATOM      1  C   UNL     1       3.159   5.827  18.613  0.00  0.00    +0.000 C 
ENDROOT
BRANCH   1   2
ATOM      2  C   UNL     1       2.514   7.227  18.619  0.00  0.00    +0.000 A 
ATOM      3  C   UNL     1       2.439   8.012  17.530  0.00  0.00    +0.000 A 
ATOM      4  O   UNL     1       2.095   9.339  17.498  0.00  0.00    +0.000 OA
ATOM      5  C   UNL     1       1.372   9.810  18.556  0.00  0.00    +0.000 A 
ATOM      6  C   UNL     1       0.808  11.072  18.396  0.00  0.00    +0.000 A 
ATOM      7  C   UNL     1      -0.179  11.473  19.282  0.00  0.00    +0.000 A 
ATOM      8  F   UNL     1      -0.800  12.645  19.084  0.00  0.00    +0.000 F 
ATOM      9  C   UNL     1      -0.572  10.643  20.329  0.00  0.00    +0.000 A 
ATOM     10  C   UNL     1       0.097   9.433  20.558  0.00  0.00    +0.000 A 
ATOM     11  C   UNL     1       1.088   9.024  19.666  0.00  0.00    +0.000 A 
ATOM     12  C   UNL     1       1.838   7.765  19.846  0.00  0.00    +0.000 A 
ATOM     13  O   UNL     1       1.895   7.153  20.908  0.00  0.00    +0.000 OA
ENDBRANCH   1   2
BRANCH   1  18
ATOM     14  N   UNL     1       1.810   3.760  19.478  0.00  0.00    +0.000 N 
ATOM     15  N   UNL     1       0.743   3.069  18.999  0.00  0.00    +0.000 NA
ATOM     16  N   UNL     1       0.538   3.495  17.771  0.00  0.00    +0.000 NA
ATOM     17  N   UNL     1       1.391   4.502  17.470  0.00  0.00    +0.000 NA
ATOM     18  C   UNL     1       2.161   4.704  18.532  0.00  0.00    +0.000 A 
BRANCH  14  20
ATOM     19  C   UNL     1       3.660   2.494  20.451  0.00  0.00    +0.000 C 
ATOM     20  C   UNL     1       2.358   3.281  20.755  0.00  0.00    +0.000 C 
ATOM     21  C   UNL     1       1.355   2.307  21.422  0.00  0.00    +0.000 C 
ATOM     22  C   UNL     1       2.709   4.358  21.791  0.00  0.00    +0.000 C 
ENDBRANCH  14  20
ENDBRANCH   1  18
BRANCH   1  23
ATOM     23  N   UNL     1       4.295   5.853  17.637  0.00  0.00    +0.000 N 
ATOM     24  H   UNL     1       4.257   5.006  17.069  0.00  0.00    +0.000 HD
BRANCH  23  25
ATOM     25  C   UNL     1       5.626   6.148  17.959  0.00  0.00    +0.000 A 
ATOM     26  C   UNL     1       6.259   7.234  17.321  0.00  0.00    +0.000 A 
ATOM     27  C   UNL     1       7.588   7.587  17.601  0.00  0.00    +0.000 A 
ATOM     28  C   UNL     1       8.310   6.881  18.555  0.00  0.00    +0.000 A 
ATOM     29  C   UNL     1       7.694   5.834  19.230  0.00  0.00    +0.000 A 
ATOM     30  C   UNL     1       6.362   5.492  18.950  0.00  0.00    +0.000 A 
ENDBRANCH  23  25
ENDBRANCH   1  23
TORSDOF 5
ENDMDL
MODEL 7
REMARK VINA RESULT:      -7.8      1.051      1.805
REMARK  Name = 
REMARK  8 active torsions:
REMARK  status: ('A' for Active; 'I' for Inactive)
REMARK    1  A    between atoms: C_1  and  C_2
REMARK    2  A    between atoms: C_2  and  C_3
REMARK    3  A    between atoms: C_2  and  C_4
REMARK    4  A    between atoms: C_2  and  N_5
REMARK    5  A    between atoms: C_9  and  C_10
REMARK    6  A    between atoms: C_10  and  N_11
REMARK    7  A    between atoms: C_10  and  C_18
REMARK    8  A    between atoms: N_11  and  C_12
REMARK                            x       y       z     vdW  Elec       q    Type
REMARK                         _______ _______ _______ _____ _____    ______ ____
ROOT
ATOM      1  C   UNL     1       3.203   6.157  18.944  0.00  0.00    +0.000 C 
ENDROOT
BRANCH   1   2
ATOM      2  C   UNL     1       2.535   7.544  18.872  0.00  0.00    +0.000 A 
ATOM      3  C   UNL     1       2.592   8.338  17.789  0.00  0.00    +0.000 A 
ATOM      4  O   UNL     1       2.230   9.659  17.720  0.00  0.00    +0.000 OA
ATOM      5  C   UNL     1       1.361  10.106  18.674  0.00  0.00    +0.000 A 
ATOM      6  C   UNL     1       0.798  11.359  18.449  0.00  0.00    +0.000 A 
ATOM      7  C   UNL     1      -0.307  11.733  19.196  0.00  0.00    +0.000 A 
ATOM      8  F   UNL     1      -0.918  12.895  18.924  0.00  0.00    +0.000 F 
ATOM      9  C   UNL     1      -0.820  10.885  20.175  0.00  0.00    +0.000 A 
ATOM     10  C   UNL     1      -0.165   9.685  20.483  0.00  0.00    +0.000 A 
ATOM     11  C   UNL     1       0.945   9.304  19.730  0.00  0.00    +0.000 A 
ATOM     12  C   UNL     1       1.689   8.058  20.001  0.00  0.00    +0.000 A 
ATOM     13  O   UNL     1       1.614   7.437  21.056  0.00  0.00    +0.000 OA
ENDBRANCH   1   2
BRANCH   1  18
ATOM     14  N   UNL     1       2.018   3.830  19.083  0.00  0.00    +0.000 N 
ATOM     15  N   UNL     1       1.034   3.232  18.361  0.00  0.00    +0.000 NA
ATOM     16  N   UNL     1       0.832   3.987  17.303  0.00  0.00    +0.000 NA
ATOM     17  N   UNL     1       1.600   5.100  17.360  0.00  0.00    +0.000 NA
ATOM     18  C   UNL     1       2.313   5.036  18.479  0.00  0.00    +0.000 A 
BRANCH  14  20
ATOM     19  C   UNL     1       1.847   1.660  20.196  0.00  0.00    +0.000 C 
ATOM     20  C   UNL     1       2.565   3.036  20.192  0.00  0.00    +0.000 C 
ATOM     21  C   UNL     1       2.260   3.738  21.539  0.00  0.00    +0.000 C 
ATOM     22  C   UNL     1       4.074   2.760  20.152  0.00  0.00    +0.000 C 
ENDBRANCH  14  20
ENDBRANCH   1  18
BRANCH   1  23
ATOM     23  N   UNL     1       4.574   6.280  18.354  0.00  0.00    +0.000 N 
ATOM     24  H   UNL     1       4.818   7.269  18.295  0.00  0.00    +0.000 HD
BRANCH  23  25
ATOM     25  C   UNL     1       5.017   5.613  17.204  0.00  0.00    +0.000 A 
ATOM     26  C   UNL     1       5.116   6.329  15.994  0.00  0.00    +0.000 A 
ATOM     27  C   UNL     1       5.557   5.723  14.808  0.00  0.00    +0.000 A 
ATOM     28  C   UNL     1       5.945   4.389  14.809  0.00  0.00    +0.000 A 
ATOM     29  C   UNL     1       5.899   3.674  16.000  0.00  0.00    +0.000 A 
ATOM     30  C   UNL     1       5.464   4.289  17.183  0.00  0.00    +0.000 A 
ENDBRANCH  23  25
ENDBRANCH   1  23
TORSDOF 5
ENDMDL
MODEL 8
REMARK VINA RESULT:      -7.8      4.461      8.736
REMARK  Name = 
REMARK  8 active torsions:
REMARK  status: ('A' for Active; 'I' for Inactive)
REMARK    1  A    between atoms: C_1  and  C_2
REMARK    2  A    between atoms: C_2  and  C_3
REMARK    3  A    between atoms: C_2  and  C_4
REMARK    4  A    between atoms: C_2  and  N_5
REMARK    5  A    between atoms: C_9  and  C_10
REMARK    6  A    between atoms: C_10  and  N_11
REMARK    7  A    between atoms: C_10  and  C_18
REMARK    8  A    between atoms: N_11  and  C_12
REMARK                            x       y       z     vdW  Elec       q    Type
REMARK                         _______ _______ _______ _____ _____    ______ ____
ROOT
ATOM      1  C   UNL     1      -0.306  11.389  19.851  0.00  0.00    +0.000 C 
ENDROOT
BRANCH   1   2
ATOM      2  C   UNL     1       0.454  10.049  19.909  0.00  0.00    +0.000 A 
ATOM      3  C   UNL     1       0.190   9.087  20.810  0.00  0.00    +0.000 A 
ATOM      4  O   UNL     1       0.955   7.980  21.076  0.00  0.00    +0.000 OA
ATOM      5  C   UNL     1       1.816   7.581  20.094  0.00  0.00    +0.000 A 
ATOM      6  C   UNL     1       2.391   6.324  20.260  0.00  0.00    +0.000 A 
ATOM      7  C   UNL     1       3.015   5.733  19.174  0.00  0.00    +0.000 A 
ATOM      8  F   UNL     1       3.487   4.484  19.289  0.00  0.00    +0.000 F 
ATOM      9  C   UNL     1       3.096   6.400  17.953  0.00  0.00    +0.000 A 
ATOM     10  C   UNL     1       2.632   7.718  17.838  0.00  0.00    +0.000 A 
ATOM     11  C   UNL     1       1.999   8.314  18.928  0.00  0.00    +0.000 A 
ATOM     12  C   UNL     1       1.491   9.699  18.882  0.00  0.00    +0.000 A 
ATOM     13  O   UNL     1       1.846  10.526  18.047  0.00  0.00    +0.000 OA
ENDBRANCH   1   2
BRANCH   1  18
ATOM     14  N   UNL     1      -0.052  13.161  21.757  0.00  0.00    +0.000 N 
ATOM     15  N   UNL     1       0.971  13.953  22.173  0.00  0.00    +0.000 NA
ATOM     16  N   UNL     1       1.914  13.859  21.260  0.00  0.00    +0.000 NA
ATOM     17  N   UNL     1       1.565  12.965  20.306  0.00  0.00    +0.000 NA
ATOM     18  C   UNL     1       0.364  12.494  20.621  0.00  0.00    +0.000 A 
BRANCH  14  20
ATOM     19  C   UNL     1      -1.700  11.888  23.036  0.00  0.00    +0.000 C 
ATOM     20  C   UNL     1      -1.307  13.294  22.511  0.00  0.00    +0.000 C 
ATOM     21  C   UNL     1      -2.434  13.785  21.569  0.00  0.00    +0.000 C 
ATOM     22  C   UNL     1      -1.276  14.239  23.720  0.00  0.00    +0.000 C 
ENDBRANCH  14  20
ENDBRANCH   1  18
BRANCH   1  23
ATOM     23  N   UNL     1      -0.688  11.635  18.424  0.00  0.00    +0.000 N 
ATOM     24  H   UNL     1      -0.342  12.554  18.146  0.00  0.00    +0.000 HD
BRANCH  23  25
ATOM     25  C   UNL     1      -1.964  11.426  17.885  0.00  0.00    +0.000 A 
ATOM     26  C   UNL     1      -3.094  11.818  18.632  0.00  0.00    +0.000 A 
ATOM     27  C   UNL     1      -4.399  11.641  18.149  0.00  0.00    +0.000 A 
ATOM     28  C   UNL     1      -4.608  11.097  16.888  0.00  0.00    +0.000 A 
ATOM     29  C   UNL     1      -3.509  10.744  16.115  0.00  0.00    +0.000 A 
ATOM     30  C   UNL     1      -2.207  10.931  16.601  0.00  0.00    +0.000 A 
ENDBRANCH  23  25
ENDBRANCH   1  23
TORSDOF 5
ENDMDL
MODEL 9
REMARK VINA RESULT:      -7.7      1.476      2.296
REMARK  Name = 
REMARK  8 active torsions:
REMARK  status: ('A' for Active; 'I' for Inactive)
REMARK    1  A    between atoms: C_1  and  C_2
REMARK    2  A    between atoms: C_2  and  C_3
REMARK    3  A    between atoms: C_2  and  C_4
REMARK    4  A    between atoms: C_2  and  N_5
REMARK    5  A    between atoms: C_9  and  C_10
REMARK    6  A    between atoms: C_10  and  N_11
REMARK    7  A    between atoms: C_10  and  C_18
REMARK    8  A    between atoms: N_11  and  C_12
REMARK                            x       y       z     vdW  Elec       q    Type
REMARK                         _______ _______ _______ _____ _____    ______ ____
ROOT
ATOM      1  C   UNL     1       4.138   5.835  18.525  0.00  0.00    +0.000 C 
ENDROOT
BRANCH   1   2
ATOM      2  C   UNL     1       3.053   6.763  19.104  0.00  0.00    +0.000 A 
ATOM      3  C   UNL     1       2.587   6.663  20.361  0.00  0.00    +0.000 A 
ATOM      4  O   UNL     1       1.479   7.286  20.877  0.00  0.00    +0.000 OA
ATOM      5  C   UNL     1       1.052   8.409  20.229  0.00  0.00    +0.000 A 
ATOM      6  C   UNL     1       0.102   9.175  20.899  0.00  0.00    +0.000 A 
ATOM      7  C   UNL     1      -0.140  10.465  20.455  0.00  0.00    +0.000 A 
ATOM      8  F   UNL     1      -0.979  11.249  21.148  0.00  0.00    +0.000 F 
ATOM      9  C   UNL     1       0.528  10.968  19.341  0.00  0.00    +0.000 A 
ATOM     10  C   UNL     1       1.380  10.141  18.597  0.00  0.00    +0.000 A 
ATOM     11  C   UNL     1       1.630   8.844  19.043  0.00  0.00    +0.000 A 
ATOM     12  C   UNL     1       2.511   7.915  18.309  0.00  0.00    +0.000 A 
ATOM     13  O   UNL     1       2.830   8.066  17.134  0.00  0.00    +0.000 OA
ENDBRANCH   1   2
BRANCH   1  18
ATOM     14  N   UNL     1       3.163   3.486  19.133  0.00  0.00    +0.000 N 
ATOM     15  N   UNL     1       3.698   2.356  19.664  0.00  0.00    +0.000 NA
ATOM     16  N   UNL     1       4.907   2.670  20.077  0.00  0.00    +0.000 NA
ATOM     17  N   UNL     1       5.201   3.952  19.755  0.00  0.00    +0.000 NA
ATOM     18  C   UNL     1       4.143   4.459  19.135  0.00  0.00    +0.000 A 
BRANCH  14  20
ATOM     19  C   UNL     1       0.942   3.907  20.063  0.00  0.00    +0.000 C 
ATOM     20  C   UNL     1       1.729   3.423  18.817  0.00  0.00    +0.000 C 
ATOM     21  C   UNL     1       1.320   1.956  18.532  0.00  0.00    +0.000 C 
ATOM     22  C   UNL     1       1.258   4.268  17.625  0.00  0.00    +0.000 C 
ENDBRANCH  14  20
ENDBRANCH   1  18
BRANCH   1  23
ATOM     23  N   UNL     1       4.097   5.961  17.033  0.00  0.00    +0.000 N 
ATOM     24  H   UNL     1       3.168   5.693  16.707  0.00  0.00    +0.000 HD
BRANCH  23  25
ATOM     25  C   UNL     1       5.068   5.461  16.156  0.00  0.00    +0.000 A 
ATOM     26  C   UNL     1       6.426   5.748  16.404  0.00  0.00    +0.000 A 
ATOM     27  C   UNL     1       7.449   5.275  15.568  0.00  0.00    +0.000 A 
ATOM     28  C   UNL     1       7.141   4.472  14.478  0.00  0.00    +0.000 A 
ATOM     29  C   UNL     1       5.814   4.138  14.238  0.00  0.00    +0.000 A 
ATOM     30  C   UNL     1       4.798   4.609  15.082  0.00  0.00    +0.000 A 
ENDBRANCH  23  25
ENDBRANCH   1  23
TORSDOF 5
ENDMDL
