MODEL 1
REMARK VINA RESULT:      -7.5      0.000      0.000
REMARK  Name = 
REMARK  11 active torsions:
REMARK  status: ('A' for Active; 'I' for Inactive)
REMARK    1  A    between atoms: C_1  and  C_2
REMARK    2  A    between atoms: C_2  and  N_3
REMARK    3  A    between atoms: N_6  and  C_7
REMARK    4  A    between atoms: C_7  and  C_8
REMARK    5  A    between atoms: C_7  and  C_13
REMARK    6  A    between atoms: C_13  and  C_14
REMARK    7  A    between atoms: C_13  and  N_15
REMARK    8  A    between atoms: C_16  and  C_18
REMARK    9  A    between atoms: N_20  and  C_21
REMARK   10  A    between atoms: C_21  and  C_22
REMARK   11  A    between atoms: C_22  and  C_23
REMARK                            x       y       z     vdW  Elec       q    Type
REMARK                         _______ _______ _______ _____ _____    ______ ____
ROOT
ATOM      1  N   UNL     1       0.688   9.968  18.794  0.00  0.00    +0.000 N 
ATOM      2  C   UNL     1       1.416   8.877  19.195  0.00  0.00    +0.000 C 
ATOM      3  O   UNL     1       1.303   8.260  20.238  0.00  0.00    +0.000 OA
ATOM      4  H   UNL     1       0.881  10.209  17.832  0.00  0.00    +0.000 HD
ENDROOT
BRANCH   2   5
ATOM      5  C   UNL     1       2.442   8.433  18.107  0.00  0.00    +0.000 C 
ATOM      6  O   UNL     1       2.560   9.074  17.074  0.00  0.00    +0.000 OA
ATOM      7  N   UNL     1       3.125   7.294  18.462  0.00  0.00    +0.000 N 
ATOM      8  H   UNL     1       2.898   6.891  19.370  0.00  0.00    +0.000 HD
BRANCH   7   9
ATOM      9  C   UNL     1       4.126   6.696  17.609  0.00  0.00    +0.000 C 
BRANCH   9  10
ATOM     10  C   UNL     1       3.776   5.257  17.227  0.00  0.00    +0.000 C 
BRANCH  10  11
ATOM     11  C   UNL     1       3.964   4.314  18.370  0.00  0.00    +0.000 A 
ATOM     12  C   UNL     1       5.134   3.660  18.703  0.00  0.00    +0.000 A 
ATOM     13  N   UNL     1       4.889   2.868  19.790  0.00  0.00    +0.000 N 
ATOM     14  C   UNL     1       3.577   2.991  20.183  0.00  0.00    +0.000 A 
ATOM     15  C   UNL     1       2.888   2.368  21.230  0.00  0.00    +0.000 A 
ATOM     16  C   UNL     1       1.539   2.690  21.401  0.00  0.00    +0.000 A 
ATOM     17  C   UNL     1       0.907   3.601  20.558  0.00  0.00    +0.000 A 
ATOM     18  C   UNL     1       1.610   4.212  19.512  0.00  0.00    +0.000 A 
ATOM     19  C   UNL     1       2.972   3.902  19.317  0.00  0.00    +0.000 A 
ATOM     20  H   UNL     1       5.567   2.271  20.242  0.00  0.00    +0.000 HD
ENDBRANCH  10  11
ENDBRANCH   9  10
ENDBRANCH   7   9
ENDBRANCH   2   5
BRANCH   1  21
ATOM     21  C   UNL     1      -0.518  10.452  19.472  0.00  0.00    +0.000 C 
ATOM     22  C   UNL     1      -1.713  10.457  18.512  0.00  0.00    +0.000 C 
BRANCH  21  23
ATOM     23  C   UNL     1      -0.314  11.831  20.241  0.00  0.00    +0.000 C 
BRANCH  23  27
ATOM     24  N   UNL     1       2.549  14.275  19.912  0.00  0.00    +0.000 NA
ATOM     25  C   UNL     1       1.456  14.369  20.905  0.00  0.00    +0.000 C 
ATOM     26  C   UNL     1       0.029  14.289  20.306  0.00  0.00    +0.000 C 
ATOM     27  N   UNL     1      -0.221  13.100  19.433  0.00  0.00    +0.000 NA
ATOM     28  C   UNL     1       0.853  13.127  18.422  0.00  0.00    +0.000 C 
ATOM     29  C   UNL     1       2.282  13.109  19.032  0.00  0.00    +0.000 C 
BRANCH  24  31
ATOM     30  C   UNL     1       2.957  16.762  19.892  0.00  0.00    +0.000 C 
ATOM     31  C   UNL     1       2.706  15.490  19.095  0.00  0.00    +0.000 C 
ENDBRANCH  24  31
ENDBRANCH  23  27
BRANCH  23  32
ATOM     32  C   UNL     1      -1.442  11.982  21.273  0.00  0.00    +0.000 A 
ATOM     33  C   UNL     1      -2.672  12.604  21.124  0.00  0.00    +0.000 A 
ATOM     34  C   UNL     1      -3.401  12.680  22.343  0.00  0.00    +0.000 A 
ATOM     35  C   UNL     1      -2.740  12.054  23.374  0.00  0.00    +0.000 A 
ATOM     36  S   UNL     1      -1.237  11.404  22.878  0.00  0.00    +0.000 S 
ENDBRANCH  23  32
ENDBRANCH  21  23
ENDBRANCH   1  21
TORSDOF 9
ENDMDL
MODEL 2
REMARK VINA RESULT:      -7.2      1.884      3.901
REMARK  Name = 
REMARK  11 active torsions:
REMARK  status: ('A' for Active; 'I' for Inactive)
REMARK    1  A    between atoms: C_1  and  C_2
REMARK    2  A    between atoms: C_2  and  N_3
REMARK    3  A    between atoms: N_6  and  C_7
REMARK    4  A    between atoms: C_7  and  C_8
REMARK    5  A    between atoms: C_7  and  C_13
REMARK    6  A    between atoms: C_13  and  C_14
REMARK    7  A    between atoms: C_13  and  N_15
REMARK    8  A    between atoms: C_16  and  C_18
REMARK    9  A    between atoms: N_20  and  C_21
REMARK   10  A    between atoms: C_21  and  C_22
REMARK   11  A    between atoms: C_22  and  C_23
REMARK                            x       y       z     vdW  Elec       q    Type
REMARK                         _______ _______ _______ _____ _____    ______ ____
ROOT
ATOM      1  N   UNL     1       0.562  10.626  19.181  0.00  0.00    +0.000 N 
ATOM      2  C   UNL     1       1.149   9.404  19.386  0.00  0.00    +0.000 C 
ATOM      3  O   UNL     1       0.943   8.633  20.306  0.00  0.00    +0.000 OA
ATOM      4  H   UNL     1       0.802  11.004  18.276  0.00  0.00    +0.000 HD
ENDROOT
BRANCH   2   5
ATOM      5  C   UNL     1       2.139   9.036  18.239  0.00  0.00    +0.000 C 
ATOM      6  O   UNL     1       2.333   9.816  17.320  0.00  0.00    +0.000 OA
ATOM      7  N   UNL     1       2.702   7.793  18.408  0.00  0.00    +0.000 N 
ATOM      8  H   UNL     1       2.425   7.277  19.242  0.00  0.00    +0.000 HD
BRANCH   7   9
ATOM      9  C   UNL     1       3.650   7.239  17.469  0.00  0.00    +0.000 C 
BRANCH   9  10
ATOM     10  C   UNL     1       4.413   6.049  18.050  0.00  0.00    +0.000 C 
BRANCH  10  11
ATOM     11  C   UNL     1       3.577   4.812  18.084  0.00  0.00    +0.000 A 
ATOM     12  C   UNL     1       3.332   3.963  17.022  0.00  0.00    +0.000 A 
ATOM     13  N   UNL     1       2.501   2.966  17.453  0.00  0.00    +0.000 N 
ATOM     14  C   UNL     1       2.195   3.141  18.781  0.00  0.00    +0.000 A 
ATOM     15  C   UNL     1       1.380   2.377  19.626  0.00  0.00    +0.000 A 
ATOM     16  C   UNL     1       1.252   2.794  20.953  0.00  0.00    +0.000 A 
ATOM     17  C   UNL     1       1.913   3.929  21.416  0.00  0.00    +0.000 A 
ATOM     18  C   UNL     1       2.720   4.685  20.556  0.00  0.00    +0.000 A 
ATOM     19  C   UNL     1       2.865   4.286  19.211  0.00  0.00    +0.000 A 
ATOM     20  H   UNL     1       2.152   2.209  16.880  0.00  0.00    +0.000 HD
ENDBRANCH  10  11
ENDBRANCH   9  10
ENDBRANCH   7   9
ENDBRANCH   2   5
BRANCH   1  21
ATOM     21  C   UNL     1      -0.594  11.124  19.931  0.00  0.00    +0.000 C 
ATOM     22  C   UNL     1      -1.867  11.048  19.079  0.00  0.00    +0.000 C 
BRANCH  21  23
ATOM     23  C   UNL     1      -0.361  12.550  20.600  0.00  0.00    +0.000 C 
BRANCH  23  27
ATOM     24  N   UNL     1      -3.172  13.642  22.876  0.00  0.00    +0.000 NA
ATOM     25  C   UNL     1      -2.133  14.533  22.316  0.00  0.00    +0.000 C 
ATOM     26  C   UNL     1      -0.677  14.055  22.549  0.00  0.00    +0.000 C 
ATOM     27  N   UNL     1      -0.396  12.655  22.103  0.00  0.00    +0.000 NA
ATOM     28  C   UNL     1      -1.414  11.823  22.771  0.00  0.00    +0.000 C 
ATOM     29  C   UNL     1      -2.873  12.251  22.453  0.00  0.00    +0.000 C 
BRANCH  24  31
ATOM     30  C   UNL     1      -4.253  12.717  24.957  0.00  0.00    +0.000 C 
ATOM     31  C   UNL     1      -3.271  13.706  24.344  0.00  0.00    +0.000 C 
ENDBRANCH  24  31
ENDBRANCH  23  27
BRANCH  23  32
ATOM     32  C   UNL     1       0.977  13.111  20.094  0.00  0.00    +0.000 A 
ATOM     33  C   UNL     1       2.204  13.130  20.738  0.00  0.00    +0.000 A 
ATOM     34  C   UNL     1       3.189  13.866  20.024  0.00  0.00    +0.000 A 
ATOM     35  C   UNL     1       2.707  14.331  18.822  0.00  0.00    +0.000 A 
ATOM     36  S   UNL     1       1.070  13.904  18.573  0.00  0.00    +0.000 S 
ENDBRANCH  23  32
ENDBRANCH  21  23
ENDBRANCH   1  21
TORSDOF 9
ENDMDL
MODEL 3
REMARK VINA RESULT:      -7.2      2.347      4.743
REMARK  Name = 
REMARK  11 active torsions:
REMARK  status: ('A' for Active; 'I' for Inactive)
REMARK    1  A    between atoms: C_1  and  C_2
REMARK    2  A    between atoms: C_2  and  N_3
REMARK    3  A    between atoms: N_6  and  C_7
REMARK    4  A    between atoms: C_7  and  C_8
REMARK    5  A    between atoms: C_7  and  C_13
REMARK    6  A    between atoms: C_13  and  C_14
REMARK    7  A    between atoms: C_13  and  N_15
REMARK    8  A    between atoms: C_16  and  C_18
REMARK    9  A    between atoms: N_20  and  C_21
REMARK   10  A    between atoms: C_21  and  C_22
REMARK   11  A    between atoms: C_22  and  C_23
REMARK                            x       y       z     vdW  Elec       q    Type
REMARK                         _______ _______ _______ _____ _____    ______ ____
ROOT
ATOM      1  N   UNL     1       0.196  10.574  19.616  0.00  0.00    +0.000 N 
ATOM      2  C   UNL     1       0.340   9.471  20.419  0.00  0.00    +0.000 C 
ATOM      3  O   UNL     1      -0.326   9.179  21.395  0.00  0.00    +0.000 OA
ATOM      4  H   UNL     1       0.782  10.514  18.796  0.00  0.00    +0.000 HD
ENDROOT
BRANCH   2   5
ATOM      5  C   UNL     1       1.479   8.533  19.916  0.00  0.00    +0.000 C 
ATOM      6  O   UNL     1       1.971   7.704  20.667  0.00  0.00    +0.000 OA
ATOM      7  N   UNL     1       1.821   8.775  18.607  0.00  0.00    +0.000 N 
ATOM      8  H   UNL     1       1.299   9.508  18.128  0.00  0.00    +0.000 HD
BRANCH   7   9
ATOM      9  C   UNL     1       2.853   8.027  17.926  0.00  0.00    +0.000 C 
BRANCH   9  10
ATOM     10  C   UNL     1       2.674   6.517  18.086  0.00  0.00    +0.000 C 
BRANCH  10  11
ATOM     11  C   UNL     1       3.977   5.818  18.292  0.00  0.00    +0.000 A 
ATOM     12  C   UNL     1       4.466   5.343  19.494  0.00  0.00    +0.000 A 
ATOM     13  N   UNL     1       5.699   4.795  19.269  0.00  0.00    +0.000 N 
ATOM     14  C   UNL     1       6.031   4.897  17.939  0.00  0.00    +0.000 A 
ATOM     15  C   UNL     1       7.186   4.485  17.264  0.00  0.00    +0.000 A 
ATOM     16  C   UNL     1       7.251   4.717  15.888  0.00  0.00    +0.000 A 
ATOM     17  C   UNL     1       6.200   5.335  15.215  0.00  0.00    +0.000 A 
ATOM     18  C   UNL     1       5.054   5.747  15.906  0.00  0.00    +0.000 A 
ATOM     19  C   UNL     1       4.964   5.525  17.296  0.00  0.00    +0.000 A 
ATOM     20  H   UNL     1       6.289   4.378  19.975  0.00  0.00    +0.000 HD
ENDBRANCH  10  11
ENDBRANCH   9  10
ENDBRANCH   7   9
ENDBRANCH   2   5
BRANCH   1  21
ATOM     21  C   UNL     1      -0.944  11.493  19.671  0.00  0.00    +0.000 C 
ATOM     22  C   UNL     1      -1.452  11.809  18.259  0.00  0.00    +0.000 C 
BRANCH  21  23
ATOM     23  C   UNL     1      -0.685  12.788  20.558  0.00  0.00    +0.000 C 
BRANCH  23  27
ATOM     24  N   UNL     1      -3.410  13.799  22.973  0.00  0.00    +0.000 NA
ATOM     25  C   UNL     1      -2.272  14.652  22.565  0.00  0.00    +0.000 C 
ATOM     26  C   UNL     1      -0.880  13.990  22.723  0.00  0.00    +0.000 C 
ATOM     27  N   UNL     1      -0.739  12.657  22.059  0.00  0.00    +0.000 NA
ATOM     28  C   UNL     1      -1.852  11.842  22.582  0.00  0.00    +0.000 C 
ATOM     29  C   UNL     1      -3.251  12.469  22.333  0.00  0.00    +0.000 C 
BRANCH  24  31
ATOM     30  C   UNL     1      -4.450  12.507  24.871  0.00  0.00    +0.000 C 
ATOM     31  C   UNL     1      -3.531  13.639  24.432  0.00  0.00    +0.000 C 
ENDBRANCH  24  31
ENDBRANCH  23  27
BRANCH  23  32
ATOM     32  C   UNL     1       0.674  13.386  20.161  0.00  0.00    +0.000 A 
ATOM     33  C   UNL     1       1.934  13.049  20.627  0.00  0.00    +0.000 A 
ATOM     34  C   UNL     1       2.950  13.919  20.142  0.00  0.00    +0.000 A 
ATOM     35  C   UNL     1       2.448  14.854  19.266  0.00  0.00    +0.000 A 
ATOM     36  S   UNL     1       0.758  14.697  19.054  0.00  0.00    +0.000 S 
ENDBRANCH  23  32
ENDBRANCH  21  23
ENDBRANCH   1  21
TORSDOF 9
ENDMDL
MODEL 4
REMARK VINA RESULT:      -7.2      1.315      1.367
REMARK  Name = 
REMARK  11 active torsions:
REMARK  status: ('A' for Active; 'I' for Inactive)
REMARK    1  A    between atoms: C_1  and  C_2
REMARK    2  A    between atoms: C_2  and  N_3
REMARK    3  A    between atoms: N_6  and  C_7
REMARK    4  A    between atoms: C_7  and  C_8
REMARK    5  A    between atoms: C_7  and  C_13
REMARK    6  A    between atoms: C_13  and  C_14
REMARK    7  A    between atoms: C_13  and  N_15
REMARK    8  A    between atoms: C_16  and  C_18
REMARK    9  A    between atoms: N_20  and  C_21
REMARK   10  A    between atoms: C_21  and  C_22
REMARK   11  A    between atoms: C_22  and  C_23
REMARK                            x       y       z     vdW  Elec       q    Type
REMARK                         _______ _______ _______ _____ _____    ______ ____
ROOT
ATOM      1  N   UNL     1       0.059  10.830  18.771  0.00  0.00    +0.000 N 
ATOM      2  C   UNL     1       0.839   9.784  19.194  0.00  0.00    +0.000 C 
ATOM      3  O   UNL     1       0.731   9.157  20.231  0.00  0.00    +0.000 OA
ATOM      4  H   UNL     1       0.268  11.085  17.817  0.00  0.00    +0.000 HD
ENDROOT
BRANCH   2   5
ATOM      5  C   UNL     1       1.924   9.406  18.139  0.00  0.00    +0.000 C 
ATOM      6  O   UNL     1       2.366  10.255  17.380  0.00  0.00    +0.000 OA
ATOM      7  N   UNL     1       2.265   8.076  18.187  0.00  0.00    +0.000 N 
ATOM      8  H   UNL     1       1.793   7.510  18.892  0.00  0.00    +0.000 HD
BRANCH   7   9
ATOM      9  C   UNL     1       3.249   7.497  17.302  0.00  0.00    +0.000 C 
BRANCH   9  10
ATOM     10  C   UNL     1       4.180   6.525  18.028  0.00  0.00    +0.000 C 
BRANCH  10  11
ATOM     11  C   UNL     1       3.685   5.118  17.957  0.00  0.00    +0.000 A 
ATOM     12  C   UNL     1       4.086   4.157  17.049  0.00  0.00    +0.000 A 
ATOM     13  N   UNL     1       3.381   3.012  17.296  0.00  0.00    +0.000 N 
ATOM     14  C   UNL     1       2.522   3.200  18.353  0.00  0.00    +0.000 A 
ATOM     15  C   UNL     1       1.611   2.315  18.941  0.00  0.00    +0.000 A 
ATOM     16  C   UNL     1       0.859   2.781  20.022  0.00  0.00    +0.000 A 
ATOM     17  C   UNL     1       1.015   4.082  20.496  0.00  0.00    +0.000 A 
ATOM     18  C   UNL     1       1.927   4.956  19.892  0.00  0.00    +0.000 A 
ATOM     19  C   UNL     1       2.698   4.510  18.798  0.00  0.00    +0.000 A 
ATOM     20  H   UNL     1       3.468   2.150  16.776  0.00  0.00    +0.000 HD
ENDBRANCH  10  11
ENDBRANCH   9  10
ENDBRANCH   7   9
ENDBRANCH   2   5
BRANCH   1  21
ATOM     21  C   UNL     1      -1.195  11.237  19.411  0.00  0.00    +0.000 C 
ATOM     22  C   UNL     1      -2.323  11.336  18.377  0.00  0.00    +0.000 C 
BRANCH  21  23
ATOM     23  C   UNL     1      -1.059  12.530  20.328  0.00  0.00    +0.000 C 
BRANCH  23  27
ATOM     24  N   UNL     1       1.542  15.269  20.193  0.00  0.00    +0.000 NA
ATOM     25  C   UNL     1       0.493  15.138  21.228  0.00  0.00    +0.000 C 
ATOM     26  C   UNL     1      -0.946  14.987  20.675  0.00  0.00    +0.000 C 
ATOM     27  N   UNL     1      -1.124  13.888  19.676  0.00  0.00    +0.000 NA
ATOM     28  C   UNL     1      -0.107  14.139  18.637  0.00  0.00    +0.000 C 
ATOM     29  C   UNL     1       1.345  14.193  19.189  0.00  0.00    +0.000 C 
BRANCH  24  31
ATOM     30  C   UNL     1       2.322  17.665  20.254  0.00  0.00    +0.000 C 
ATOM     31  C   UNL     1       1.544  16.580  19.522  0.00  0.00    +0.000 C 
ENDBRANCH  24  31
ENDBRANCH  23  27
BRANCH  23  32
ATOM     32  C   UNL     1      -2.126  12.458  21.431  0.00  0.00    +0.000 A 
ATOM     33  C   UNL     1      -3.457  12.841  21.371  0.00  0.00    +0.000 A 
ATOM     34  C   UNL     1      -4.108  12.768  22.634  0.00  0.00    +0.000 A 
ATOM     35  C   UNL     1      -3.277  12.266  23.609  0.00  0.00    +0.000 A 
ATOM     36  S   UNL     1      -1.715  11.913  23.007  0.00  0.00    +0.000 S 
ENDBRANCH  23  32
ENDBRANCH  21  23
ENDBRANCH   1  21
TORSDOF 9
ENDMDL
MODEL 5
REMARK VINA RESULT:      -7.1      1.852      3.716
REMARK  Name = 
REMARK  11 active torsions:
REMARK  status: ('A' for Active; 'I' for Inactive)
REMARK    1  A    between atoms: C_1  and  C_2
REMARK    2  A    between atoms: C_2  and  N_3
REMARK    3  A    between atoms: N_6  and  C_7
REMARK    4  A    between atoms: C_7  and  C_8
REMARK    5  A    between atoms: C_7  and  C_13
REMARK    6  A    between atoms: C_13  and  C_14
REMARK    7  A    between atoms: C_13  and  N_15
REMARK    8  A    between atoms: C_16  and  C_18
REMARK    9  A    between atoms: N_20  and  C_21
REMARK   10  A    between atoms: C_21  and  C_22
REMARK   11  A    between atoms: C_22  and  C_23
REMARK                            x       y       z     vdW  Elec       q    Type
REMARK                         _______ _______ _______ _____ _____    ______ ____
ROOT
ATOM      1  N   UNL     1       0.112  11.060  19.140  0.00  0.00    +0.000 N 
ATOM      2  C   UNL     1       0.568   9.826  19.526  0.00  0.00    +0.000 C 
ATOM      3  O   UNL     1       0.211   9.179  20.493  0.00  0.00    +0.000 OA
ATOM      4  H   UNL     1       0.467  11.318  18.230  0.00  0.00    +0.000 HD
ENDROOT
BRANCH   2   5
ATOM      5  C   UNL     1       1.622   9.258  18.526  0.00  0.00    +0.000 C 
ATOM      6  O   UNL     1       1.838   9.830  17.469  0.00  0.00    +0.000 OA
ATOM      7  N   UNL     1       2.210   8.102  18.982  0.00  0.00    +0.000 N 
ATOM      8  H   UNL     1       1.907   7.766  19.895  0.00  0.00    +0.000 HD
BRANCH   7   9
ATOM      9  C   UNL     1       3.216   7.396  18.223  0.00  0.00    +0.000 C 
BRANCH   9  10
ATOM     10  C   UNL     1       2.675   6.108  17.602  0.00  0.00    +0.000 C 
BRANCH  10  11
ATOM     11  C   UNL     1       3.300   4.892  18.202  0.00  0.00    +0.000 A 
ATOM     12  C   UNL     1       4.360   4.177  17.679  0.00  0.00    +0.000 A 
ATOM     13  N   UNL     1       4.616   3.119  18.507  0.00  0.00    +0.000 N 
ATOM     14  C   UNL     1       3.744   3.126  19.571  0.00  0.00    +0.000 A 
ATOM     15  C   UNL     1       3.632   2.240  20.649  0.00  0.00    +0.000 A 
ATOM     16  C   UNL     1       2.642   2.498  21.600  0.00  0.00    +0.000 A 
ATOM     17  C   UNL     1       1.799   3.600  21.477  0.00  0.00    +0.000 A 
ATOM     18  C   UNL     1       1.921   4.473  20.389  0.00  0.00    +0.000 A 
ATOM     19  C   UNL     1       2.912   4.234  19.414  0.00  0.00    +0.000 A 
ATOM     20  H   UNL     1       5.336   2.425  18.362  0.00  0.00    +0.000 HD
ENDBRANCH  10  11
ENDBRANCH   9  10
ENDBRANCH   7   9
ENDBRANCH   2   5
BRANCH   1  21
ATOM     21  C   UNL     1      -1.058  11.727  19.717  0.00  0.00    +0.000 C 
ATOM     22  C   UNL     1      -2.166  11.879  18.668  0.00  0.00    +0.000 C 
BRANCH  21  23
ATOM     23  C   UNL     1      -0.716  13.081  20.481  0.00  0.00    +0.000 C 
BRANCH  23  27
ATOM     24  N   UNL     1      -3.307  14.021  23.066  0.00  0.00    +0.000 NA
ATOM     25  C   UNL     1      -2.294  14.938  22.500  0.00  0.00    +0.000 C 
ATOM     26  C   UNL     1      -0.837  14.417  22.571  0.00  0.00    +0.000 C 
ATOM     27  N   UNL     1      -0.627  13.057  21.985  0.00  0.00    +0.000 NA
ATOM     28  C   UNL     1      -1.607  12.187  22.662  0.00  0.00    +0.000 C 
ATOM     29  C   UNL     1      -3.077  12.666  22.504  0.00  0.00    +0.000 C 
BRANCH  24  31
ATOM     30  C   UNL     1      -3.113  15.305  25.227  0.00  0.00    +0.000 C 
ATOM     31  C   UNL     1      -3.285  13.958  24.538  0.00  0.00    +0.000 C 
ENDBRANCH  24  31
ENDBRANCH  23  27
BRANCH  23  32
ATOM     32  C   UNL     1       0.599  13.639  19.915  0.00  0.00    +0.000 A 
ATOM     33  C   UNL     1       0.791  14.411  18.780  0.00  0.00    +0.000 A 
ATOM     34  C   UNL     1       2.166  14.619  18.483  0.00  0.00    +0.000 A 
ATOM     35  C   UNL     1       2.985  14.059  19.436  0.00  0.00    +0.000 A 
ATOM     36  S   UNL     1       2.098  13.265  20.665  0.00  0.00    +0.000 S 
ENDBRANCH  23  32
ENDBRANCH  21  23
ENDBRANCH   1  21
TORSDOF 9
ENDMDL
MODEL 6
REMARK VINA RESULT:      -7.1      2.102      4.613
REMARK  Name = 
REMARK  11 active torsions:
REMARK  status: ('A' for Active; 'I' for Inactive)
REMARK    1  A    between atoms: C_1  and  C_2
REMARK    2  A    between atoms: C_2  and  N_3
REMARK    3  A    between atoms: N_6  and  C_7
REMARK    4  A    between atoms: C_7  and  C_8
REMARK    5  A    between atoms: C_7  and  C_13
REMARK    6  A    between atoms: C_13  and  C_14
REMARK    7  A    between atoms: C_13  and  N_15
REMARK    8  A    between atoms: C_16  and  C_18
REMARK    9  A    between atoms: N_20  and  C_21
REMARK   10  A    between atoms: C_21  and  C_22
REMARK   11  A    between atoms: C_22  and  C_23
REMARK                            x       y       z     vdW  Elec       q    Type
REMARK                         _______ _______ _______ _____ _____    ______ ____
ROOT
ATOM      1  N   UNL     1       0.298  10.859  19.316  0.00  0.00    +0.000 N 
ATOM      2  C   UNL     1       0.447   9.640  19.927  0.00  0.00    +0.000 C 
ATOM      3  O   UNL     1      -0.211   9.194  20.849  0.00  0.00    +0.000 OA
ATOM      4  H   UNL     1       0.875  10.932  18.491  0.00  0.00    +0.000 HD
ENDROOT
BRANCH   2   5
ATOM      5  C   UNL     1       1.577   8.794  19.266  0.00  0.00    +0.000 C 
ATOM      6  O   UNL     1       2.109   9.176  18.235  0.00  0.00    +0.000 OA
ATOM      7  N   UNL     1       1.848   7.641  19.963  0.00  0.00    +0.000 N 
ATOM      8  H   UNL     1       1.305   7.483  20.811  0.00  0.00    +0.000 HD
BRANCH   7   9
ATOM      9  C   UNL     1       2.858   6.699  19.538  0.00  0.00    +0.000 C 
BRANCH   9  10
ATOM     10  C   UNL     1       2.274   5.318  19.241  0.00  0.00    +0.000 C 
BRANCH  10  11
ATOM     11  C   UNL     1       3.191   4.491  18.402  0.00  0.00    +0.000 A 
ATOM     12  C   UNL     1       3.367   3.124  18.491  0.00  0.00    +0.000 A 
ATOM     13  N   UNL     1       4.310   2.752  17.573  0.00  0.00    +0.000 N 
ATOM     14  C   UNL     1       4.758   3.850  16.878  0.00  0.00    +0.000 A 
ATOM     15  C   UNL     1       5.717   3.943  15.862  0.00  0.00    +0.000 A 
ATOM     16  C   UNL     1       5.972   5.208  15.326  0.00  0.00    +0.000 A 
ATOM     17  C   UNL     1       5.292   6.333  15.787  0.00  0.00    +0.000 A 
ATOM     18  C   UNL     1       4.340   6.223  16.808  0.00  0.00    +0.000 A 
ATOM     19  C   UNL     1       4.065   4.957  17.367  0.00  0.00    +0.000 A 
ATOM     20  H   UNL     1       4.640   1.808  17.426  0.00  0.00    +0.000 HD
ENDBRANCH  10  11
ENDBRANCH   9  10
ENDBRANCH   7   9
ENDBRANCH   2   5
BRANCH   1  21
ATOM     21  C   UNL     1      -0.838  11.759  19.531  0.00  0.00    +0.000 C 
ATOM     22  C   UNL     1      -1.474  12.157  18.194  0.00  0.00    +0.000 C 
BRANCH  21  23
ATOM     23  C   UNL     1      -0.509  12.998  20.473  0.00  0.00    +0.000 C 
BRANCH  23  27
ATOM     24  N   UNL     1      -3.292  13.790  22.903  0.00  0.00    +0.000 NA
ATOM     25  C   UNL     1      -2.190  14.707  22.540  0.00  0.00    +0.000 C 
ATOM     26  C   UNL     1      -0.771  14.102  22.682  0.00  0.00    +0.000 C 
ATOM     27  N   UNL     1      -0.566  12.804  21.966  0.00  0.00    +0.000 NA
ATOM     28  C   UNL     1      -1.645  11.921  22.448  0.00  0.00    +0.000 C 
ATOM     29  C   UNL     1      -3.069  12.494  22.213  0.00  0.00    +0.000 C 
BRANCH  24  31
ATOM     30  C   UNL     1      -4.403  12.476  24.746  0.00  0.00    +0.000 C 
ATOM     31  C   UNL     1      -3.414  13.565  24.354  0.00  0.00    +0.000 C 
ENDBRANCH  24  31
ENDBRANCH  23  27
BRANCH  23  32
ATOM     32  C   UNL     1       0.879  13.540  20.095  0.00  0.00    +0.000 A 
ATOM     33  C   UNL     1       2.111  13.207  20.635  0.00  0.00    +0.000 A 
ATOM     34  C   UNL     1       3.167  14.022  20.139  0.00  0.00    +0.000 A 
ATOM     35  C   UNL     1       2.723  14.908  19.185  0.00  0.00    +0.000 A 
ATOM     36  S   UNL     1       1.040  14.774  18.911  0.00  0.00    +0.000 S 
ENDBRANCH  23  32
ENDBRANCH  21  23
ENDBRANCH   1  21
TORSDOF 9
ENDMDL
MODEL 7
REMARK VINA RESULT:      -7.1      1.309      1.517
REMARK  Name = 
REMARK  11 active torsions:
REMARK  status: ('A' for Active; 'I' for Inactive)
REMARK    1  A    between atoms: C_1  and  C_2
REMARK    2  A    between atoms: C_2  and  N_3
REMARK    3  A    between atoms: N_6  and  C_7
REMARK    4  A    between atoms: C_7  and  C_8
REMARK    5  A    between atoms: C_7  and  C_13
REMARK    6  A    between atoms: C_13  and  C_14
REMARK    7  A    between atoms: C_13  and  N_15
REMARK    8  A    between atoms: C_16  and  C_18
REMARK    9  A    between atoms: N_20  and  C_21
REMARK   10  A    between atoms: C_21  and  C_22
REMARK   11  A    between atoms: C_22  and  C_23
REMARK                            x       y       z     vdW  Elec       q    Type
REMARK                         _______ _______ _______ _____ _____    ______ ____
ROOT
ATOM      1  N   UNL     1      -0.225  10.185  19.467  0.00  0.00    +0.000 N 
ATOM      2  C   UNL     1       0.309   9.505  20.531  0.00  0.00    +0.000 C 
ATOM      3  O   UNL     1      -0.010   9.603  21.702  0.00  0.00    +0.000 OA
ATOM      4  H   UNL     1       0.117   9.824  18.588  0.00  0.00    +0.000 HD
ENDROOT
BRANCH   2   5
ATOM      5  C   UNL     1       1.404   8.490  20.081  0.00  0.00    +0.000 C 
ATOM      6  O   UNL     1       1.836   7.661  20.867  0.00  0.00    +0.000 OA
ATOM      7  N   UNL     1       1.782   8.670  18.771  0.00  0.00    +0.000 N 
ATOM      8  H   UNL     1       1.310   9.414  18.259  0.00  0.00    +0.000 HD
BRANCH   7   9
ATOM      9  C   UNL     1       2.783   7.845  18.135  0.00  0.00    +0.000 C 
BRANCH   9  10
ATOM     10  C   UNL     1       2.249   6.458  17.777  0.00  0.00    +0.000 C 
BRANCH  10  11
ATOM     11  C   UNL     1       3.030   5.371  18.438  0.00  0.00    +0.000 A 
ATOM     12  C   UNL     1       4.341   5.029  18.168  0.00  0.00    +0.000 A 
ATOM     13  N   UNL     1       4.679   3.967  18.961  0.00  0.00    +0.000 N 
ATOM     14  C   UNL     1       3.614   3.604  19.751  0.00  0.00    +0.000 A 
ATOM     15  C   UNL     1       3.503   2.578  20.697  0.00  0.00    +0.000 A 
ATOM     16  C   UNL     1       2.284   2.441  21.365  0.00  0.00    +0.000 A 
ATOM     17  C   UNL     1       1.219   3.298  21.097  0.00  0.00    +0.000 A 
ATOM     18  C   UNL     1       1.345   4.316  20.144  0.00  0.00    +0.000 A 
ATOM     19  C   UNL     1       2.566   4.475  19.455  0.00  0.00    +0.000 A 
ATOM     20  H   UNL     1       5.578   3.506  18.966  0.00  0.00    +0.000 HD
ENDBRANCH  10  11
ENDBRANCH   9  10
ENDBRANCH   7   9
ENDBRANCH   2   5
BRANCH   1  21
ATOM     21  C   UNL     1      -1.440  11.002  19.532  0.00  0.00    +0.000 C 
ATOM     22  C   UNL     1      -2.078  11.135  18.144  0.00  0.00    +0.000 C 
BRANCH  21  23
ATOM     23  C   UNL     1      -1.240  12.394  20.277  0.00  0.00    +0.000 C 
BRANCH  23  27
ATOM     24  N   UNL     1       1.607  14.823  19.757  0.00  0.00    +0.000 NA
ATOM     25  C   UNL     1       0.573  14.933  20.809  0.00  0.00    +0.000 C 
ATOM     26  C   UNL     1      -0.886  14.852  20.293  0.00  0.00    +0.000 C 
ATOM     27  N   UNL     1      -1.189  13.653  19.450  0.00  0.00    +0.000 NA
ATOM     28  C   UNL     1      -0.174  13.664  18.379  0.00  0.00    +0.000 C 
ATOM     29  C   UNL     1       1.287  13.648  18.907  0.00  0.00    +0.000 C 
BRANCH  24  31
ATOM     30  C   UNL     1       2.928  16.042  17.989  0.00  0.00    +0.000 C 
ATOM     31  C   UNL     1       1.721  16.028  18.917  0.00  0.00    +0.000 C 
ENDBRANCH  24  31
ENDBRANCH  23  27
BRANCH  23  32
ATOM     32  C   UNL     1      -2.344  12.540  21.336  0.00  0.00    +0.000 A 
ATOM     33  C   UNL     1      -3.698  12.764  21.147  0.00  0.00    +0.000 A 
ATOM     34  C   UNL     1      -4.394  12.994  22.366  0.00  0.00    +0.000 A 
ATOM     35  C   UNL     1      -3.565  12.873  23.458  0.00  0.00    +0.000 A 
ATOM     36  S   UNL     1      -1.955  12.511  23.009  0.00  0.00    +0.000 S 
ENDBRANCH  23  32
ENDBRANCH  21  23
ENDBRANCH   1  21
TORSDOF 9
ENDMDL
MODEL 8
REMARK VINA RESULT:      -7.1      2.084      3.931
REMARK  Name = 
REMARK  11 active torsions:
REMARK  status: ('A' for Active; 'I' for Inactive)
REMARK    1  A    between atoms: C_1  and  C_2
REMARK    2  A    between atoms: C_2  and  N_3
REMARK    3  A    between atoms: N_6  and  C_7
REMARK    4  A    between atoms: C_7  and  C_8
REMARK    5  A    between atoms: C_7  and  C_13
REMARK    6  A    between atoms: C_13  and  C_14
REMARK    7  A    between atoms: C_13  and  N_15
REMARK    8  A    between atoms: C_16  and  C_18
REMARK    9  A    between atoms: N_20  and  C_21
REMARK   10  A    between atoms: C_21  and  C_22
REMARK   11  A    between atoms: C_22  and  C_23
REMARK                            x       y       z     vdW  Elec       q    Type
REMARK                         _______ _______ _______ _____ _____    ______ ____
ROOT
ATOM      1  N   UNL     1      -0.006  10.543  20.047  0.00  0.00    +0.000 N 
ATOM      2  C   UNL     1       0.201   9.470  20.876  0.00  0.00    +0.000 C 
ATOM      3  O   UNL     1      -0.398   9.207  21.903  0.00  0.00    +0.000 OA
ATOM      4  H   UNL     1       0.525  10.458  19.192  0.00  0.00    +0.000 HD
ENDROOT
BRANCH   2   5
ATOM      5  C   UNL     1       1.312   8.522  20.331  0.00  0.00    +0.000 C 
ATOM      6  O   UNL     1       1.831   7.696  21.065  0.00  0.00    +0.000 OA
ATOM      7  N   UNL     1       1.598   8.753  19.006  0.00  0.00    +0.000 N 
ATOM      8  H   UNL     1       1.061   9.486  18.545  0.00  0.00    +0.000 HD
BRANCH   7   9
ATOM      9  C   UNL     1       2.597   7.995  18.287  0.00  0.00    +0.000 C 
BRANCH   9  10
ATOM     10  C   UNL     1       2.070   6.636  17.826  0.00  0.00    +0.000 C 
BRANCH  10  11
ATOM     11  C   UNL     1       2.889   5.508  18.361  0.00  0.00    +0.000 A 
ATOM     12  C   UNL     1       4.152   5.144  17.936  0.00  0.00    +0.000 A 
ATOM     13  N   UNL     1       4.547   4.048  18.653  0.00  0.00    +0.000 N 
ATOM     14  C   UNL     1       3.568   3.685  19.547  0.00  0.00    +0.000 A 
ATOM     15  C   UNL     1       3.535   2.631  20.468  0.00  0.00    +0.000 A 
ATOM     16  C   UNL     1       2.394   2.502  21.265  0.00  0.00    +0.000 A 
ATOM     17  C   UNL     1       1.331   3.394  21.145  0.00  0.00    +0.000 A 
ATOM     18  C   UNL     1       1.378   4.439  20.214  0.00  0.00    +0.000 A 
ATOM     19  C   UNL     1       2.517   4.591  19.397  0.00  0.00    +0.000 A 
ATOM     20  H   UNL     1       5.428   3.565  18.542  0.00  0.00    +0.000 HD
ENDBRANCH  10  11
ENDBRANCH   9  10
ENDBRANCH   7   9
ENDBRANCH   2   5
BRANCH   1  21
ATOM     21  C   UNL     1      -1.148  11.456  20.145  0.00  0.00    +0.000 C 
ATOM     22  C   UNL     1      -1.876  11.559  18.799  0.00  0.00    +0.000 C 
BRANCH  21  23
ATOM     23  C   UNL     1      -0.790  12.869  20.784  0.00  0.00    +0.000 C 
BRANCH  23  27
ATOM     24  N   UNL     1      -3.277  14.469  23.135  0.00  0.00    +0.000 NA
ATOM     25  C   UNL     1      -2.116  15.153  22.527  0.00  0.00    +0.000 C 
ATOM     26  C   UNL     1      -0.762  14.425  22.719  0.00  0.00    +0.000 C 
ATOM     27  N   UNL     1      -0.752  12.993  22.285  0.00  0.00    +0.000 NA
ATOM     28  C   UNL     1      -1.878  12.362  23.000  0.00  0.00    +0.000 C 
ATOM     29  C   UNL     1      -3.248  13.042  22.724  0.00  0.00    +0.000 C 
BRANCH  24  31
ATOM     30  C   UNL     1      -3.485  15.974  25.147  0.00  0.00    +0.000 C 
ATOM     31  C   UNL     1      -3.311  14.562  24.605  0.00  0.00    +0.000 C 
ENDBRANCH  24  31
ENDBRANCH  23  27
BRANCH  23  32
ATOM     32  C   UNL     1       0.560  13.332  20.213  0.00  0.00    +0.000 A 
ATOM     33  C   UNL     1       1.836  13.047  20.676  0.00  0.00    +0.000 A 
ATOM     34  C   UNL     1       2.845  13.772  19.984  0.00  0.00    +0.000 A 
ATOM     35  C   UNL     1       2.320  14.537  18.968  0.00  0.00    +0.000 A 
ATOM     36  S   UNL     1       0.618  14.401  18.871  0.00  0.00    +0.000 S 
ENDBRANCH  23  32
ENDBRANCH  21  23
ENDBRANCH   1  21
TORSDOF 9
ENDMDL
MODEL 9
REMARK VINA RESULT:      -7.0      1.730      2.911
REMARK  Name = 
REMARK  11 active torsions:
REMARK  status: ('A' for Active; 'I' for Inactive)
REMARK    1  A    between atoms: C_1  and  C_2
REMARK    2  A    between atoms: C_2  and  N_3
REMARK    3  A    between atoms: N_6  and  C_7
REMARK    4  A    between atoms: C_7  and  C_8
REMARK    5  A    between atoms: C_7  and  C_13
REMARK    6  A    between atoms: C_13  and  C_14
REMARK    7  A    between atoms: C_13  and  N_15
REMARK    8  A    between atoms: C_16  and  C_18
REMARK    9  A    between atoms: N_20  and  C_21
REMARK   10  A    between atoms: C_21  and  C_22
REMARK   11  A    between atoms: C_22  and  C_23
REMARK                            x       y       z     vdW  Elec       q    Type
REMARK                         _______ _______ _______ _____ _____    ______ ____
ROOT
ATOM      1  N   UNL     1       0.490  10.286  19.995  0.00  0.00    +0.000 N 
ATOM      2  C   UNL     1       0.602   9.081  20.642  0.00  0.00    +0.000 C 
ATOM      3  O   UNL     1      -0.017   8.713  21.623  0.00  0.00    +0.000 OA
ATOM      4  H   UNL     1       1.011  10.291  19.130  0.00  0.00    +0.000 HD
ENDROOT
BRANCH   2   5
ATOM      5  C   UNL     1       1.625   8.138  19.939  0.00  0.00    +0.000 C 
ATOM      6  O   UNL     1       2.129   8.461  18.875  0.00  0.00    +0.000 OA
ATOM      7  N   UNL     1       1.842   6.978  20.643  0.00  0.00    +0.000 N 
ATOM      8  H   UNL     1       1.333   6.876  21.521  0.00  0.00    +0.000 HD
BRANCH   7   9
ATOM      9  C   UNL     1       2.750   5.953  20.185  0.00  0.00    +0.000 C 
BRANCH   9  10
ATOM     10  C   UNL     1       2.095   5.006  19.179  0.00  0.00    +0.000 C 
BRANCH  10  11
ATOM     11  C   UNL     1       3.105   4.279  18.354  0.00  0.00    +0.000 A 
ATOM     12  C   UNL     1       3.353   2.921  18.379  0.00  0.00    +0.000 A 
ATOM     13  N   UNL     1       4.368   2.653  17.502  0.00  0.00    +0.000 N 
ATOM     14  C   UNL     1       4.792   3.812  16.896  0.00  0.00    +0.000 A 
ATOM     15  C   UNL     1       5.801   4.015  15.948  0.00  0.00    +0.000 A 
ATOM     16  C   UNL     1       6.015   5.321  15.497  0.00  0.00    +0.000 A 
ATOM     17  C   UNL     1       5.247   6.379  15.977  0.00  0.00    +0.000 A 
ATOM     18  C   UNL     1       4.244   6.159  16.930  0.00  0.00    +0.000 A 
ATOM     19  C   UNL     1       4.010   4.851  17.401  0.00  0.00    +0.000 A 
ATOM     20  H   UNL     1       4.759   1.738  17.324  0.00  0.00    +0.000 HD
ENDBRANCH  10  11
ENDBRANCH   9  10
ENDBRANCH   7   9
ENDBRANCH   2   5
BRANCH   1  21
ATOM     21  C   UNL     1      -0.567  11.267  20.251  0.00  0.00    +0.000 C 
ATOM     22  C   UNL     1      -1.634  11.213  19.151  0.00  0.00    +0.000 C 
BRANCH  21  23
ATOM     23  C   UNL     1      -0.026  12.736  20.541  0.00  0.00    +0.000 C 
BRANCH  23  27
ATOM     24  N   UNL     1       3.123  14.310  19.168  0.00  0.00    +0.000 NA
ATOM     25  C   UNL     1       2.249  14.909  20.200  0.00  0.00    +0.000 C 
ATOM     26  C   UNL     1       0.750  14.981  19.816  0.00  0.00    +0.000 C 
ATOM     27  N   UNL     1       0.150  13.681  19.380  0.00  0.00    +0.000 NA
ATOM     28  C   UNL     1       1.023  13.194  18.295  0.00  0.00    +0.000 C 
ATOM     29  C   UNL     1       2.509  13.034  18.719  0.00  0.00    +0.000 C 
BRANCH  24  31
ATOM     30  C   UNL     1       4.070  16.490  18.329  0.00  0.00    +0.000 C 
ATOM     31  C   UNL     1       3.349  15.188  18.007  0.00  0.00    +0.000 C 
ENDBRANCH  24  31
ENDBRANCH  23  27
BRANCH  23  32
ATOM     32  C   UNL     1      -0.943  13.394  21.583  0.00  0.00    +0.000 A 
ATOM     33  C   UNL     1      -0.777  13.464  22.957  0.00  0.00    +0.000 A 
ATOM     34  C   UNL     1      -1.905  14.023  23.620  0.00  0.00    +0.000 A 
ATOM     35  C   UNL     1      -2.873  14.427  22.728  0.00  0.00    +0.000 A 
ATOM     36  S   UNL     1      -2.431  14.108  21.107  0.00  0.00    +0.000 S 
ENDBRANCH  23  32
ENDBRANCH  21  23
ENDBRANCH   1  21
TORSDOF 9
ENDMDL
