MODEL 1
REMARK VINA RESULT:      -7.7      0.000      0.000
REMARK  Name = 
REMARK  7 active torsions:
REMARK  status: ('A' for Active; 'I' for Inactive)
REMARK    1  A    between atoms: C_1  and  O_2
REMARK    2  A    between atoms: O_2  and  C_3
REMARK    3  A    between atoms: C_5  and  N_6
REMARK    4  A    between atoms: C_18  and  O_19
REMARK    5  A    between atoms: O_19  and  C_20
REMARK    6  A    between atoms: C_21  and  O_22
REMARK    7  A    between atoms: O_22  and  C_23
REMARK                            x       y       z     vdW  Elec       q    Type
REMARK                         _______ _______ _______ _____ _____    ______ ____
ROOT
ATOM      1  C   UNL     1       6.294   3.892  14.451  0.00  0.00    +0.000 A 
ATOM      2  C   UNL     1       5.483   3.325  15.464  0.00  0.00    +0.000 A 
ATOM      3  C   UNL     1       5.312   3.959  16.694  0.00  0.00    +0.000 A 
ATOM      4  C   UNL     1       6.128   5.062  16.949  0.00  0.00    +0.000 A 
ATOM      5  C   UNL     1       7.016   5.589  16.002  0.00  0.00    +0.000 A 
ATOM      6  C   UNL     1       7.106   5.014  14.724  0.00  0.00    +0.000 A 
ENDROOT
BRANCH   3   7
ATOM      7  N   UNL     1       4.295   3.581  17.622  0.00  0.00    +0.000 N 
ATOM      8  C   UNL     1       2.941   3.465  17.362  0.00  0.00    +0.000 C 
ATOM      9  O   UNL     1       2.329   3.567  16.309  0.00  0.00    +0.000 OA
ATOM     10  C   UNL     1       2.294   3.185  18.646  0.00  0.00    +0.000 A 
ATOM     11  N   UNL     1       0.985   3.006  18.908  0.00  0.00    +0.000 NA
ATOM     12  C   UNL     1       0.726   2.837  20.236  0.00  0.00    +0.000 A 
ATOM     13  C   UNL     1       1.718   2.860  21.224  0.00  0.00    +0.000 A 
ATOM     14  N   UNL     1       3.030   3.037  20.934  0.00  0.00    +0.000 NA
ATOM     15  C   UNL     1       3.259   3.187  19.616  0.00  0.00    +0.000 A 
ATOM     16  C   UNL     1       4.534   3.456  18.983  0.00  0.00    +0.000 C 
ATOM     17  O   UNL     1       5.553   3.600  19.636  0.00  0.00    +0.000 OA
ENDBRANCH   3   7
BRANCH   1  19
ATOM     18  C   UNL     1       5.020   3.472  12.503  0.00  0.00    +0.000 C 
ATOM     19  O   UNL     1       6.276   3.357  13.183  0.00  0.00    +0.000 OA
ENDBRANCH   1  19
BRANCH   5  20
ATOM     20  O   UNL     1       7.668   6.685  16.511  0.00  0.00    +0.000 OA
ATOM     21  C   UNL     1       7.551   7.008  17.885  0.00  0.00    +0.000 C 
ENDBRANCH   5  20
BRANCH   6  22
ATOM     22  O   UNL     1       7.985   5.621  13.877  0.00  0.00    +0.000 OA
ATOM     23  C   UNL     1       7.879   5.516  12.472  0.00  0.00    +0.000 C 
ENDBRANCH   6  22
TORSDOF 4
ENDMDL
MODEL 2
REMARK VINA RESULT:      -7.6      0.322      2.716
REMARK  Name = 
REMARK  7 active torsions:
REMARK  status: ('A' for Active; 'I' for Inactive)
REMARK    1  A    between atoms: C_1  and  O_2
REMARK    2  A    between atoms: O_2  and  C_3
REMARK    3  A    between atoms: C_5  and  N_6
REMARK    4  A    between atoms: C_18  and  O_19
REMARK    5  A    between atoms: O_19  and  C_20
REMARK    6  A    between atoms: C_21  and  O_22
REMARK    7  A    between atoms: O_22  and  C_23
REMARK                            x       y       z     vdW  Elec       q    Type
REMARK                         _______ _______ _______ _____ _____    ______ ____
ROOT
ATOM      1  C   UNL     1       6.934   5.815  16.070  0.00  0.00    +0.000 A 
ATOM      2  C   UNL     1       5.848   5.486  16.918  0.00  0.00    +0.000 A 
ATOM      3  C   UNL     1       5.086   4.338  16.705  0.00  0.00    +0.000 A 
ATOM      4  C   UNL     1       5.313   3.647  15.514  0.00  0.00    +0.000 A 
ATOM      5  C   UNL     1       6.313   4.007  14.602  0.00  0.00    +0.000 A 
ATOM      6  C   UNL     1       7.154   5.099  14.873  0.00  0.00    +0.000 A 
ENDROOT
BRANCH   3   7
ATOM      7  N   UNL     1       4.183   3.819  17.682  0.00  0.00    +0.000 N 
ATOM      8  C   UNL     1       2.816   3.659  17.541  0.00  0.00    +0.000 C 
ATOM      9  O   UNL     1       2.098   3.831  16.567  0.00  0.00    +0.000 OA
ATOM     10  C   UNL     1       2.313   3.221  18.846  0.00  0.00    +0.000 A 
ATOM     11  N   UNL     1       1.045   2.950  19.211  0.00  0.00    +0.000 NA
ATOM     12  C   UNL     1       0.928   2.638  20.533  0.00  0.00    +0.000 A 
ATOM     13  C   UNL     1       2.011   2.616  21.420  0.00  0.00    +0.000 A 
ATOM     14  N   UNL     1       3.279   2.889  21.026  0.00  0.00    +0.000 NA
ATOM     15  C   UNL     1       3.368   3.178  19.714  0.00  0.00    +0.000 A 
ATOM     16  C   UNL     1       4.562   3.574  18.994  0.00  0.00    +0.000 C 
ATOM     17  O   UNL     1       5.633   3.706  19.558  0.00  0.00    +0.000 OA
ENDBRANCH   3   7
BRANCH   1  19
ATOM     18  C   UNL     1       7.605   7.337  17.751  0.00  0.00    +0.000 C 
ATOM     19  O   UNL     1       7.792   6.830  16.424  0.00  0.00    +0.000 OA
ENDBRANCH   1  19
BRANCH   5  20
ATOM     20  O   UNL     1       6.329   3.141  13.538  0.00  0.00    +0.000 OA
ATOM     21  C   UNL     1       5.371   3.269  12.502  0.00  0.00    +0.000 C 
ENDBRANCH   5  20
BRANCH   6  22
ATOM     22  O   UNL     1       8.106   5.345  13.929  0.00  0.00    +0.000 OA
ATOM     23  C   UNL     1       7.780   5.721  12.606  0.00  0.00    +0.000 C 
ENDBRANCH   6  22
TORSDOF 4
ENDMDL
MODEL 3
REMARK VINA RESULT:      -7.6      4.312      5.423
REMARK  Name = 
REMARK  7 active torsions:
REMARK  status: ('A' for Active; 'I' for Inactive)
REMARK    1  A    between atoms: C_1  and  O_2
REMARK    2  A    between atoms: O_2  and  C_3
REMARK    3  A    between atoms: C_5  and  N_6
REMARK    4  A    between atoms: C_18  and  O_19
REMARK    5  A    between atoms: O_19  and  C_20
REMARK    6  A    between atoms: C_21  and  O_22
REMARK    7  A    between atoms: O_22  and  C_23
REMARK                            x       y       z     vdW  Elec       q    Type
REMARK                         _______ _______ _______ _____ _____    ______ ____
ROOT
ATOM      1  C   UNL     1       5.380   6.067  16.809  0.00  0.00    +0.000 A 
ATOM      2  C   UNL     1       4.500   7.014  17.388  0.00  0.00    +0.000 A 
ATOM      3  C   UNL     1       3.297   6.621  17.975  0.00  0.00    +0.000 A 
ATOM      4  C   UNL     1       2.914   5.292  17.788  0.00  0.00    +0.000 A 
ATOM      5  C   UNL     1       3.717   4.351  17.129  0.00  0.00    +0.000 A 
ATOM      6  C   UNL     1       4.978   4.725  16.636  0.00  0.00    +0.000 A 
ENDROOT
BRANCH   3   7
ATOM      7  N   UNL     1       2.528   7.484  18.813  0.00  0.00    +0.000 N 
ATOM      8  C   UNL     1       2.027   7.186  20.068  0.00  0.00    +0.000 C 
ATOM      9  O   UNL     1       2.185   6.195  20.766  0.00  0.00    +0.000 OA
ATOM     10  C   UNL     1       1.202   8.330  20.467  0.00  0.00    +0.000 A 
ATOM     11  N   UNL     1       0.493   8.502  21.599  0.00  0.00    +0.000 NA
ATOM     12  C   UNL     1      -0.223   9.662  21.607  0.00  0.00    +0.000 A 
ATOM     13  C   UNL     1      -0.230  10.571  20.543  0.00  0.00    +0.000 A 
ATOM     14  N   UNL     1       0.495  10.377  19.415  0.00  0.00    +0.000 NA
ATOM     15  C   UNL     1       1.204   9.232  19.440  0.00  0.00    +0.000 A 
ATOM     16  C   UNL     1       2.028   8.701  18.373  0.00  0.00    +0.000 C 
ATOM     17  O   UNL     1       2.129   9.270  17.300  0.00  0.00    +0.000 OA
ENDBRANCH   3   7
BRANCH   1  19
ATOM     18  C   UNL     1       7.391   7.137  17.444  0.00  0.00    +0.000 C 
ATOM     19  O   UNL     1       6.644   6.455  16.429  0.00  0.00    +0.000 OA
ENDBRANCH   1  19
BRANCH   5  20
ATOM     20  O   UNL     1       3.106   3.123  17.113  0.00  0.00    +0.000 OA
ATOM     21  C   UNL     1       3.122   2.304  18.269  0.00  0.00    +0.000 C 
ENDBRANCH   5  20
BRANCH   6  22
ATOM     22  O   UNL     1       5.683   3.725  16.034  0.00  0.00    +0.000 OA
ATOM     23  C   UNL     1       6.108   3.803  14.689  0.00  0.00    +0.000 C 
ENDBRANCH   6  22
TORSDOF 4
ENDMDL
MODEL 4
REMARK VINA RESULT:      -7.6      4.428      5.382
REMARK  Name = 
REMARK  7 active torsions:
REMARK  status: ('A' for Active; 'I' for Inactive)
REMARK    1  A    between atoms: C_1  and  O_2
REMARK    2  A    between atoms: O_2  and  C_3
REMARK    3  A    between atoms: C_5  and  N_6
REMARK    4  A    between atoms: C_18  and  O_19
REMARK    5  A    between atoms: O_19  and  C_20
REMARK    6  A    between atoms: C_21  and  O_22
REMARK    7  A    between atoms: O_22  and  C_23
REMARK                            x       y       z     vdW  Elec       q    Type
REMARK                         _______ _______ _______ _____ _____    ______ ____
ROOT
ATOM      1  C   UNL     1       5.277   6.240  16.885  0.00  0.00    +0.000 A 
ATOM      2  C   UNL     1       4.324   7.157  17.392  0.00  0.00    +0.000 A 
ATOM      3  C   UNL     1       3.139   6.718  17.981  0.00  0.00    +0.000 A 
ATOM      4  C   UNL     1       2.849   5.357  17.868  0.00  0.00    +0.000 A 
ATOM      5  C   UNL     1       3.727   4.437  17.281  0.00  0.00    +0.000 A 
ATOM      6  C   UNL     1       4.970   4.865  16.786  0.00  0.00    +0.000 A 
ENDROOT
BRANCH   3   7
ATOM      7  N   UNL     1       2.297   7.575  18.753  0.00  0.00    +0.000 N 
ATOM      8  C   UNL     1       1.876   8.847  18.407  0.00  0.00    +0.000 C 
ATOM      9  O   UNL     1       2.040   9.480  17.375  0.00  0.00    +0.000 OA
ATOM     10  C   UNL     1       1.146   9.371  19.566  0.00  0.00    +0.000 A 
ATOM     11  N   UNL     1       0.560  10.574  19.717  0.00  0.00    +0.000 NA
ATOM     12  C   UNL     1       0.031  10.755  20.961  0.00  0.00    +0.000 A 
ATOM     13  C   UNL     1       0.102   9.793  21.976  0.00  0.00    +0.000 A 
ATOM     14  N   UNL     1       0.693   8.587  21.797  0.00  0.00    +0.000 NA
ATOM     15  C   UNL     1       1.194   8.430  20.557  0.00  0.00    +0.000 A 
ATOM     16  C   UNL     1       1.938   7.290  20.062  0.00  0.00    +0.000 C 
ATOM     17  O   UNL     1       2.205   6.342  20.779  0.00  0.00    +0.000 OA
ENDBRANCH   3   7
BRANCH   1  19
ATOM     18  C   UNL     1       7.462   6.825  17.575  0.00  0.00    +0.000 C 
ATOM     19  O   UNL     1       6.520   6.689  16.503  0.00  0.00    +0.000 OA
ENDBRANCH   1  19
BRANCH   5  20
ATOM     20  O   UNL     1       3.200   3.171  17.328  0.00  0.00    +0.000 OA
ATOM     21  C   UNL     1       2.014   2.921  18.061  0.00  0.00    +0.000 C 
ENDBRANCH   5  20
BRANCH   6  22
ATOM     22  O   UNL     1       5.752   3.882  16.257  0.00  0.00    +0.000 OA
ATOM     23  C   UNL     1       6.034   3.800  14.875  0.00  0.00    +0.000 C 
ENDBRANCH   6  22
TORSDOF 4
ENDMDL
MODEL 5
REMARK VINA RESULT:      -7.4      4.580      5.126
REMARK  Name = 
REMARK  7 active torsions:
REMARK  status: ('A' for Active; 'I' for Inactive)
REMARK    1  A    between atoms: C_1  and  O_2
REMARK    2  A    between atoms: O_2  and  C_3
REMARK    3  A    between atoms: C_5  and  N_6
REMARK    4  A    between atoms: C_18  and  O_19
REMARK    5  A    between atoms: O_19  and  C_20
REMARK    6  A    between atoms: C_21  and  O_22
REMARK    7  A    between atoms: O_22  and  C_23
REMARK                            x       y       z     vdW  Elec       q    Type
REMARK                         _______ _______ _______ _____ _____    ______ ____
ROOT
ATOM      1  C   UNL     1       3.523   4.508  17.209  0.00  0.00    +0.000 A 
ATOM      2  C   UNL     1       2.772   5.358  18.057  0.00  0.00    +0.000 A 
ATOM      3  C   UNL     1       3.127   6.694  18.240  0.00  0.00    +0.000 A 
ATOM      4  C   UNL     1       4.357   7.094  17.716  0.00  0.00    +0.000 A 
ATOM      5  C   UNL     1       5.175   6.245  16.958  0.00  0.00    +0.000 A 
ATOM      6  C   UNL     1       4.762   4.932  16.681  0.00  0.00    +0.000 A 
ENDROOT
BRANCH   3   7
ATOM      7  N   UNL     1       2.252   7.649  18.842  0.00  0.00    +0.000 N 
ATOM      8  C   UNL     1       1.890   8.880  18.323  0.00  0.00    +0.000 C 
ATOM      9  O   UNL     1       2.147   9.386  17.240  0.00  0.00    +0.000 OA
ATOM     10  C   UNL     1       1.091   9.547  19.355  0.00  0.00    +0.000 A 
ATOM     11  N   UNL     1       0.527  10.769  19.323  0.00  0.00    +0.000 NA
ATOM     12  C   UNL     1      -0.088  11.101  20.494  0.00  0.00    +0.000 A 
ATOM     13  C   UNL     1      -0.117  10.263  21.615  0.00  0.00    +0.000 A 
ATOM     14  N   UNL     1       0.455   9.034  21.620  0.00  0.00    +0.000 NA
ATOM     15  C   UNL     1       1.041   8.726  20.448  0.00  0.00    +0.000 A 
ATOM     16  C   UNL     1       1.791   7.523  20.144  0.00  0.00    +0.000 C 
ATOM     17  O   UNL     1       1.979   6.660  20.983  0.00  0.00    +0.000 OA
ENDBRANCH   3   7
BRANCH   1  19
ATOM     18  C   UNL     1       2.310   2.612  17.935  0.00  0.00    +0.000 C 
ATOM     19  O   UNL     1       3.034   3.264  16.884  0.00  0.00    +0.000 OA
ENDBRANCH   1  19
BRANCH   5  20
ATOM     20  O   UNL     1       6.307   6.906  16.550  0.00  0.00    +0.000 OA
ATOM     21  C   UNL     1       7.359   7.147  17.467  0.00  0.00    +0.000 C 
ENDBRANCH   5  20
BRANCH   6  22
ATOM     22  O   UNL     1       5.624   4.204  15.916  0.00  0.00    +0.000 OA
ATOM     23  C   UNL     1       5.625   4.269  14.505  0.00  0.00    +0.000 C 
ENDBRANCH   6  22
TORSDOF 4
ENDMDL
MODEL 6
REMARK VINA RESULT:      -7.4      0.223      1.847
REMARK  Name = 
REMARK  7 active torsions:
REMARK  status: ('A' for Active; 'I' for Inactive)
REMARK    1  A    between atoms: C_1  and  O_2
REMARK    2  A    between atoms: O_2  and  C_3
REMARK    3  A    between atoms: C_5  and  N_6
REMARK    4  A    between atoms: C_18  and  O_19
REMARK    5  A    between atoms: O_19  and  C_20
REMARK    6  A    between atoms: C_21  and  O_22
REMARK    7  A    between atoms: O_22  and  C_23
REMARK                            x       y       z     vdW  Elec       q    Type
REMARK                         _______ _______ _______ _____ _____    ______ ____
ROOT
ATOM      1  C   UNL     1       6.310   3.911  14.609  0.00  0.00    +0.000 A 
ATOM      2  C   UNL     1       5.498   3.446  15.672  0.00  0.00    +0.000 A 
ATOM      3  C   UNL     1       5.347   4.185  16.845  0.00  0.00    +0.000 A 
ATOM      4  C   UNL     1       6.184   5.291  17.001  0.00  0.00    +0.000 A 
ATOM      5  C   UNL     1       7.074   5.720  16.007  0.00  0.00    +0.000 A 
ATOM      6  C   UNL     1       7.144   5.037  14.782  0.00  0.00    +0.000 A 
ENDROOT
BRANCH   3   7
ATOM      7  N   UNL     1       4.330   3.906  17.808  0.00  0.00    +0.000 N 
ATOM      8  C   UNL     1       4.516   3.657  19.156  0.00  0.00    +0.000 C 
ATOM      9  O   UNL     1       5.532   3.699  19.834  0.00  0.00    +0.000 OA
ATOM     10  C   UNL     1       3.202   3.297  19.696  0.00  0.00    +0.000 A 
ATOM     11  N   UNL     1       2.875   2.955  20.957  0.00  0.00    +0.000 NA
ATOM     12  C   UNL     1       1.563   2.608  21.091  0.00  0.00    +0.000 A 
ATOM     13  C   UNL     1       0.656   2.596  20.025  0.00  0.00    +0.000 A 
ATOM     14  N   UNL     1       1.008   2.949  18.765  0.00  0.00    +0.000 NA
ATOM     15  C   UNL     1       2.304   3.302  18.665  0.00  0.00    +0.000 A 
ATOM     16  C   UNL     1       3.010   3.669  17.453  0.00  0.00    +0.000 C 
ATOM     17  O   UNL     1       2.459   3.662  16.367  0.00  0.00    +0.000 OA
ENDBRANCH   3   7
BRANCH   1  19
ATOM     18  C   UNL     1       5.054   3.444  12.661  0.00  0.00    +0.000 C 
ATOM     19  O   UNL     1       6.274   3.271  13.392  0.00  0.00    +0.000 OA
ENDBRANCH   1  19
BRANCH   5  20
ATOM     20  O   UNL     1       7.749   6.842  16.418  0.00  0.00    +0.000 OA
ATOM     21  C   UNL     1       7.598   7.319  17.743  0.00  0.00    +0.000 C 
ENDBRANCH   5  20
BRANCH   6  22
ATOM     22  O   UNL     1       8.028   5.554  13.881  0.00  0.00    +0.000 OA
ATOM     23  C   UNL     1       7.795   5.523  12.488  0.00  0.00    +0.000 C 
ENDBRANCH   6  22
TORSDOF 4
ENDMDL
MODEL 7
REMARK VINA RESULT:      -7.4      4.660      5.401
REMARK  Name = 
REMARK  7 active torsions:
REMARK  status: ('A' for Active; 'I' for Inactive)
REMARK    1  A    between atoms: C_1  and  O_2
REMARK    2  A    between atoms: O_2  and  C_3
REMARK    3  A    between atoms: C_5  and  N_6
REMARK    4  A    between atoms: C_18  and  O_19
REMARK    5  A    between atoms: O_19  and  C_20
REMARK    6  A    between atoms: C_21  and  O_22
REMARK    7  A    between atoms: O_22  and  C_23
REMARK                            x       y       z     vdW  Elec       q    Type
REMARK                         _______ _______ _______ _____ _____    ______ ____
ROOT
ATOM      1  C   UNL     1       3.362   4.544  17.306  0.00  0.00    +0.000 A 
ATOM      2  C   UNL     1       2.694   5.442  18.173  0.00  0.00    +0.000 A 
ATOM      3  C   UNL     1       3.136   6.755  18.337  0.00  0.00    +0.000 A 
ATOM      4  C   UNL     1       4.370   7.076  17.769  0.00  0.00    +0.000 A 
ATOM      5  C   UNL     1       5.107   6.176  16.988  0.00  0.00    +0.000 A 
ATOM      6  C   UNL     1       4.605   4.890  16.732  0.00  0.00    +0.000 A 
ENDROOT
BRANCH   3   7
ATOM      7  N   UNL     1       2.343   7.764  18.963  0.00  0.00    +0.000 N 
ATOM      8  C   UNL     1       1.734   7.685  20.204  0.00  0.00    +0.000 C 
ATOM      9  O   UNL     1       1.796   6.813  21.058  0.00  0.00    +0.000 OA
ATOM     10  C   UNL     1       0.932   8.902  20.350  0.00  0.00    +0.000 A 
ATOM     11  N   UNL     1       0.147   9.273  21.379  0.00  0.00    +0.000 NA
ATOM     12  C   UNL     1      -0.517  10.442  21.147  0.00  0.00    +0.000 A 
ATOM     13  C   UNL     1      -0.403  11.170  19.957  0.00  0.00    +0.000 A 
ATOM     14  N   UNL     1       0.398  10.777  18.937  0.00  0.00    +0.000 NA
ATOM     15  C   UNL     1       1.052   9.630  19.198  0.00  0.00    +0.000 A 
ATOM     16  C   UNL     1       1.932   8.910  18.299  0.00  0.00    +0.000 C 
ATOM     17  O   UNL     1       2.139   9.298  17.163  0.00  0.00    +0.000 OA
ENDBRANCH   3   7
BRANCH   1  19
ATOM     18  C   UNL     1       3.054   2.290  17.952  0.00  0.00    +0.000 C 
ATOM     19  O   UNL     1       2.786   3.331  17.004  0.00  0.00    +0.000 OA
ENDBRANCH   1  19
BRANCH   5  20
ATOM     20  O   UNL     1       6.262   6.764  16.538  0.00  0.00    +0.000 OA
ATOM     21  C   UNL     1       7.366   6.926  17.412  0.00  0.00    +0.000 C 
ENDBRANCH   5  20
BRANCH   6  22
ATOM     22  O   UNL     1       5.394   4.107  15.943  0.00  0.00    +0.000 OA
ATOM     23  C   UNL     1       5.517   4.316  14.551  0.00  0.00    +0.000 C 
ENDBRANCH   6  22
TORSDOF 4
ENDMDL
MODEL 8
REMARK VINA RESULT:      -7.4      4.826      6.490
REMARK  Name = 
REMARK  7 active torsions:
REMARK  status: ('A' for Active; 'I' for Inactive)
REMARK    1  A    between atoms: C_1  and  O_2
REMARK    2  A    between atoms: O_2  and  C_3
REMARK    3  A    between atoms: C_5  and  N_6
REMARK    4  A    between atoms: C_18  and  O_19
REMARK    5  A    between atoms: O_19  and  C_20
REMARK    6  A    between atoms: C_21  and  O_22
REMARK    7  A    between atoms: O_22  and  C_23
REMARK                            x       y       z     vdW  Elec       q    Type
REMARK                         _______ _______ _______ _____ _____    ______ ____
ROOT
ATOM      1  C   UNL     1       4.528   4.822  18.145  0.00  0.00    +0.000 A 
ATOM      2  C   UNL     1       4.042   6.132  18.378  0.00  0.00    +0.000 A 
ATOM      3  C   UNL     1       2.679   6.382  18.533  0.00  0.00    +0.000 A 
ATOM      4  C   UNL     1       1.812   5.326  18.249  0.00  0.00    +0.000 A 
ATOM      5  C   UNL     1       2.259   4.040  17.916  0.00  0.00    +0.000 A 
ATOM      6  C   UNL     1       3.635   3.764  17.869  0.00  0.00    +0.000 A 
ENDROOT
BRANCH   3   7
ATOM      7  N   UNL     1       2.174   7.614  19.048  0.00  0.00    +0.000 N 
ATOM      8  C   UNL     1       1.596   7.816  20.289  0.00  0.00    +0.000 C 
ATOM      9  O   UNL     1       1.464   7.049  21.231  0.00  0.00    +0.000 OA
ATOM     10  C   UNL     1       1.120   9.202  20.305  0.00  0.00    +0.000 A 
ATOM     11  N   UNL     1       0.476   9.859  21.288  0.00  0.00    +0.000 NA
ATOM     12  C   UNL     1       0.113  11.124  20.933  0.00  0.00    +0.000 A 
ATOM     13  C   UNL     1       0.371  11.675  19.672  0.00  0.00    +0.000 A 
ATOM     14  N   UNL     1       1.025  10.994  18.700  0.00  0.00    +0.000 NA
ATOM     15  C   UNL     1       1.385   9.754  19.082  0.00  0.00    +0.000 A 
ATOM     16  C   UNL     1       2.039   8.752  18.265  0.00  0.00    +0.000 C 
ATOM     17  O   UNL     1       2.305   8.957  17.095  0.00  0.00    +0.000 OA
ENDBRANCH   3   7
BRANCH   1  19
ATOM     18  C   UNL     1       6.597   5.398  19.134  0.00  0.00    +0.000 C 
ATOM     19  O   UNL     1       5.880   4.575  18.206  0.00  0.00    +0.000 OA
ENDBRANCH   1  19
BRANCH   5  20
ATOM     20  O   UNL     1       1.195   3.197  17.716  0.00  0.00    +0.000 OA
ATOM     21  C   UNL     1       0.558   2.579  18.820  0.00  0.00    +0.000 C 
ENDBRANCH   5  20
BRANCH   6  22
ATOM     22  O   UNL     1       3.956   2.476  17.556  0.00  0.00    +0.000 OA
ATOM     23  C   UNL     1       3.924   1.434  18.510  0.00  0.00    +0.000 C 
ENDBRANCH   6  22
TORSDOF 4
ENDMDL
MODEL 9
REMARK VINA RESULT:      -7.3      1.257      1.334
REMARK  Name = 
REMARK  7 active torsions:
REMARK  status: ('A' for Active; 'I' for Inactive)
REMARK    1  A    between atoms: C_1  and  O_2
REMARK    2  A    between atoms: O_2  and  C_3
REMARK    3  A    between atoms: C_5  and  N_6
REMARK    4  A    between atoms: C_18  and  O_19
REMARK    5  A    between atoms: O_19  and  C_20
REMARK    6  A    between atoms: C_21  and  O_22
REMARK    7  A    between atoms: O_22  and  C_23
REMARK                            x       y       z     vdW  Elec       q    Type
REMARK                         _______ _______ _______ _____ _____    ______ ____
ROOT
ATOM      1  C   UNL     1       6.200   3.996  14.355  0.00  0.00    +0.000 A 
ATOM      2  C   UNL     1       5.272   3.596  15.348  0.00  0.00    +0.000 A 
ATOM      3  C   UNL     1       5.131   4.310  16.537  0.00  0.00    +0.000 A 
ATOM      4  C   UNL     1       6.077   5.306  16.786  0.00  0.00    +0.000 A 
ATOM      5  C   UNL     1       7.073   5.659  15.866  0.00  0.00    +0.000 A 
ATOM      6  C   UNL     1       7.144   5.012  14.622  0.00  0.00    +0.000 A 
ENDROOT
BRANCH   3   7
ATOM      7  N   UNL     1       4.029   4.121  17.425  0.00  0.00    +0.000 N 
ATOM      8  C   UNL     1       3.294   5.113  18.052  0.00  0.00    +0.000 C 
ATOM      9  O   UNL     1       3.350   6.328  17.937  0.00  0.00    +0.000 OA
ATOM     10  C   UNL     1       2.365   4.430  18.956  0.00  0.00    +0.000 A 
ATOM     11  N   UNL     1       1.456   4.968  19.792  0.00  0.00    +0.000 NA
ATOM     12  C   UNL     1       0.808   4.035  20.546  0.00  0.00    +0.000 A 
ATOM     13  C   UNL     1       1.071   2.662  20.467  0.00  0.00    +0.000 A 
ATOM     14  N   UNL     1       1.988   2.145  19.615  0.00  0.00    +0.000 NA
ATOM     15  C   UNL     1       2.602   3.086  18.872  0.00  0.00    +0.000 A 
ATOM     16  C   UNL     1       3.670   2.875  17.916  0.00  0.00    +0.000 C 
ATOM     17  O   UNL     1       4.139   1.768  17.717  0.00  0.00    +0.000 OA
ENDBRANCH   3   7
BRANCH   1  19
ATOM     18  C   UNL     1       4.910   3.495  12.438  0.00  0.00    +0.000 C 
ATOM     19  O   UNL     1       6.170   3.403  13.114  0.00  0.00    +0.000 OA
ENDBRANCH   1  19
BRANCH   5  20
ATOM     20  O   UNL     1       7.844   6.681  16.360  0.00  0.00    +0.000 OA
ATOM     21  C   UNL     1       7.421   7.403  17.503  0.00  0.00    +0.000 C 
ENDBRANCH   5  20
BRANCH   6  22
ATOM     22  O   UNL     1       8.138   5.450  13.798  0.00  0.00    +0.000 OA
ATOM     23  C   UNL     1       7.940   5.649  12.413  0.00  0.00    +0.000 C 
ENDBRANCH   6  22
TORSDOF 4
ENDMDL
