MODEL 1
REMARK VINA RESULT:      -6.3      0.000      0.000
REMARK  Name = 
REMARK  1 active torsions:
REMARK  status: ('A' for Active; 'I' for Inactive)
REMARK    1  A    between atoms: C_1  and  N_2
REMARK                            x       y       z     vdW  Elec       q    Type
REMARK                         _______ _______ _______ _____ _____    ______ ____
ROOT
ATOM      1  C   UNL     1       7.982   5.861  19.042  0.00  0.00    +0.000 C 
ATOM      2  N   UNL     1       6.795   5.194  18.555  0.00  0.00    +0.000 N 
ATOM      3  C   UNL     1       5.502   5.587  19.088  0.00  0.00    +0.000 C 
ATOM      4  C   UNL     1       4.486   4.502  18.896  0.00  0.00    +0.000 A 
ATOM      5  C   UNL     1       3.369   4.361  19.726  0.00  0.00    +0.000 A 
ATOM      6  C   UNL     1       2.464   3.328  19.487  0.00  0.00    +0.000 A 
ATOM      7 BR   UNL     1       0.974   3.112  20.632  0.00  0.00    +0.000 Br
ATOM      8  C   UNL     1       2.649   2.450  18.419  0.00  0.00    +0.000 A 
ATOM      9  C   UNL     1       3.739   2.614  17.564  0.00  0.00    +0.000 A 
ATOM     10  C   UNL     1       4.651   3.638  17.811  0.00  0.00    +0.000 A 
ATOM     11  N   UNL     1       5.768   3.800  16.993  0.00  0.00    +0.000 N 
ATOM     12  C   UNL     1       6.867   4.541  17.339  0.00  0.00    +0.000 C 
ATOM     13  O   UNL     1       7.863   4.537  16.621  0.00  0.00    +0.000 OA
ATOM     14  H   UNL     1       5.886   3.230  16.168  0.00  0.00    +0.000 HD
ENDROOT
TORSDOF 0
ENDMDL
MODEL 2
REMARK VINA RESULT:      -6.2      1.054      1.054
REMARK  Name = 
REMARK  1 active torsions:
REMARK  status: ('A' for Active; 'I' for Inactive)
REMARK    1  A    between atoms: C_1  and  N_2
REMARK                            x       y       z     vdW  Elec       q    Type
REMARK                         _______ _______ _______ _____ _____    ______ ____
ROOT
ATOM      1  C   UNL     1       7.362   6.920  17.419  0.00  0.00    +0.000 C 
ATOM      2  N   UNL     1       6.349   5.893  17.314  0.00  0.00    +0.000 N 
ATOM      3  C   UNL     1       4.981   6.219  17.676  0.00  0.00    +0.000 C 
ATOM      4  C   UNL     1       4.201   4.984  18.009  0.00  0.00    +0.000 A 
ATOM      5  C   UNL     1       3.092   5.000  18.862  0.00  0.00    +0.000 A 
ATOM      6  C   UNL     1       2.414   3.811  19.126  0.00  0.00    +0.000 A 
ATOM      7 BR   UNL     1       0.938   3.825  20.309  0.00  0.00    +0.000 Br
ATOM      8  C   UNL     1       2.815   2.614  18.534  0.00  0.00    +0.000 A 
ATOM      9  C   UNL     1       3.894   2.601  17.650  0.00  0.00    +0.000 A 
ATOM     10  C   UNL     1       4.580   3.787  17.396  0.00  0.00    +0.000 A 
ATOM     11  N   UNL     1       5.684   3.795  16.545  0.00  0.00    +0.000 N 
ATOM     12  C   UNL     1       6.604   4.809  16.496  0.00  0.00    +0.000 C 
ATOM     13  O   UNL     1       7.616   4.690  15.811  0.00  0.00    +0.000 OA
ATOM     14  H   UNL     1       5.950   2.960  16.042  0.00  0.00    +0.000 HD
ENDROOT
TORSDOF 0
ENDMDL
MODEL 3
REMARK VINA RESULT:      -6.1      1.612      2.634
REMARK  Name = 
REMARK  1 active torsions:
REMARK  status: ('A' for Active; 'I' for Inactive)
REMARK    1  A    between atoms: C_1  and  N_2
REMARK                            x       y       z     vdW  Elec       q    Type
REMARK                         _______ _______ _______ _____ _____    ______ ____
ROOT
ATOM      1  C   UNL     1       6.886   4.908  14.377  0.00  0.00    +0.000 C 
ATOM      2  N   UNL     1       6.264   4.924  15.683  0.00  0.00    +0.000 N 
ATOM      3  C   UNL     1       5.570   3.735  16.144  0.00  0.00    +0.000 C 
ATOM      4  C   UNL     1       4.579   4.068  17.218  0.00  0.00    +0.000 A 
ATOM      5  C   UNL     1       3.447   3.286  17.467  0.00  0.00    +0.000 A 
ATOM      6  C   UNL     1       2.569   3.657  18.484  0.00  0.00    +0.000 A 
ATOM      7 BR   UNL     1       1.016   2.623  18.796  0.00  0.00    +0.000 Br
ATOM      8  C   UNL     1       2.819   4.784  19.267  0.00  0.00    +0.000 A 
ATOM      9  C   UNL     1       3.970   5.542  19.050  0.00  0.00    +0.000 A 
ATOM     10  C   UNL     1       4.841   5.179  18.025  0.00  0.00    +0.000 A 
ATOM     11  N   UNL     1       5.978   5.940  17.763  0.00  0.00    +0.000 N 
ATOM     12  C   UNL     1       6.697   5.865  16.599  0.00  0.00    +0.000 C 
ATOM     13  O   UNL     1       7.614   6.654  16.389  0.00  0.00    +0.000 OA
ATOM     14  H   UNL     1       6.226   6.714  18.362  0.00  0.00    +0.000 HD
ENDROOT
TORSDOF 0
ENDMDL
MODEL 4
REMARK VINA RESULT:      -6.1      3.721      4.921
REMARK  Name = 
REMARK  1 active torsions:
REMARK  status: ('A' for Active; 'I' for Inactive)
REMARK    1  A    between atoms: C_1  and  N_2
REMARK                            x       y       z     vdW  Elec       q    Type
REMARK                         _______ _______ _______ _____ _____    ______ ____
ROOT
ATOM      1  C   UNL     1       1.138   2.851  21.205  0.00  0.00    +0.000 C 
ATOM      2  N   UNL     1       1.997   2.966  20.047  0.00  0.00    +0.000 N 
ATOM      3  C   UNL     1       3.432   3.067  20.246  0.00  0.00    +0.000 C 
ATOM      4  C   UNL     1       4.101   3.684  19.056  0.00  0.00    +0.000 A 
ATOM      5  C   UNL     1       5.316   4.371  19.147  0.00  0.00    +0.000 A 
ATOM      6  C   UNL     1       5.881   4.920  17.996  0.00  0.00    +0.000 A 
ATOM      7 BR   UNL     1       7.504   5.883  18.124  0.00  0.00    +0.000 Br
ATOM      8  C   UNL     1       5.260   4.773  16.756  0.00  0.00    +0.000 A 
ATOM      9  C   UNL     1       4.070   4.051  16.655  0.00  0.00    +0.000 A 
ATOM     10  C   UNL     1       3.498   3.514  17.806  0.00  0.00    +0.000 A 
ATOM     11  N   UNL     1       2.292   2.820  17.738  0.00  0.00    +0.000 N 
ATOM     12  C   UNL     1       1.501   2.554  18.824  0.00  0.00    +0.000 C 
ATOM     13  O   UNL     1       0.392   2.047  18.670  0.00  0.00    +0.000 OA
ATOM     14  H   UNL     1       1.859   2.631  16.845  0.00  0.00    +0.000 HD
ENDROOT
TORSDOF 0
ENDMDL
MODEL 5
REMARK VINA RESULT:      -6.1      2.707      3.892
REMARK  Name = 
REMARK  1 active torsions:
REMARK  status: ('A' for Active; 'I' for Inactive)
REMARK    1  A    between atoms: C_1  and  N_2
REMARK                            x       y       z     vdW  Elec       q    Type
REMARK                         _______ _______ _______ _____ _____    ______ ____
ROOT
ATOM      1  C   UNL     1       6.559   3.627  12.606  0.00  0.00    +0.000 C 
ATOM      2  N   UNL     1       6.419   4.219  13.917  0.00  0.00    +0.000 N 
ATOM      3  C   UNL     1       5.692   3.490  14.942  0.00  0.00    +0.000 C 
ATOM      4  C   UNL     1       5.200   4.413  16.015  0.00  0.00    +0.000 A 
ATOM      5  C   UNL     1       4.080   4.123  16.802  0.00  0.00    +0.000 A 
ATOM      6  C   UNL     1       3.680   5.028  17.784  0.00  0.00    +0.000 A 
ATOM      7 BR   UNL     1       2.143   4.656  18.822  0.00  0.00    +0.000 Br
ATOM      8  C   UNL     1       4.394   6.206  18.003  0.00  0.00    +0.000 A 
ATOM      9  C   UNL     1       5.536   6.478  17.249  0.00  0.00    +0.000 A 
ATOM     10  C   UNL     1       5.929   5.579  16.259  0.00  0.00    +0.000 A 
ATOM     11  N   UNL     1       7.045   5.845  15.468  0.00  0.00    +0.000 N 
ATOM     12  C   UNL     1       7.309   5.213  14.282  0.00  0.00    +0.000 C 
ATOM     13  O   UNL     1       8.244   5.586  13.579  0.00  0.00    +0.000 OA
ATOM     14  H   UNL     1       7.627   6.650  15.655  0.00  0.00    +0.000 HD
ENDROOT
TORSDOF 0
ENDMDL
MODEL 6
REMARK VINA RESULT:      -6.0      2.082      2.890
REMARK  Name = 
REMARK  1 active torsions:
REMARK  status: ('A' for Active; 'I' for Inactive)
REMARK    1  A    between atoms: C_1  and  N_2
REMARK                            x       y       z     vdW  Elec       q    Type
REMARK                         _______ _______ _______ _____ _____    ______ ____
ROOT
ATOM      1  C   UNL     1       5.795   4.204  15.000  0.00  0.00    +0.000 C 
ATOM      2  N   UNL     1       5.197   4.790  16.179  0.00  0.00    +0.000 N 
ATOM      3  C   UNL     1       5.245   4.054  17.429  0.00  0.00    +0.000 C 
ATOM      4  C   UNL     1       4.178   4.519  18.373  0.00  0.00    +0.000 A 
ATOM      5  C   UNL     1       3.648   3.699  19.375  0.00  0.00    +0.000 A 
ATOM      6  C   UNL     1       2.657   4.200  20.217  0.00  0.00    +0.000 A 
ATOM      7 BR   UNL     1       1.912   3.080  21.546  0.00  0.00    +0.000 Br
ATOM      8  C   UNL     1       2.205   5.513  20.086  0.00  0.00    +0.000 A 
ATOM      9  C   UNL     1       2.761   6.347  19.116  0.00  0.00    +0.000 A 
ATOM     10  C   UNL     1       3.743   5.843  18.265  0.00  0.00    +0.000 A 
ATOM     11  N   UNL     1       4.289   6.644  17.264  0.00  0.00    +0.000 N 
ATOM     12  C   UNL     1       4.992   6.157  16.194  0.00  0.00    +0.000 C 
ATOM     13  O   UNL     1       5.336   6.912  15.288  0.00  0.00    +0.000 OA
ATOM     14  H   UNL     1       4.038   7.620  17.195  0.00  0.00    +0.000 HD
ENDROOT
TORSDOF 0
ENDMDL
MODEL 7
REMARK VINA RESULT:      -6.0      1.173      1.290
REMARK  Name = 
REMARK  1 active torsions:
REMARK  status: ('A' for Active; 'I' for Inactive)
REMARK    1  A    between atoms: C_1  and  N_2
REMARK                            x       y       z     vdW  Elec       q    Type
REMARK                         _______ _______ _______ _____ _____    ______ ____
ROOT
ATOM      1  C   UNL     1       7.753   4.584  17.584  0.00  0.00    +0.000 C 
ATOM      2  N   UNL     1       6.318   4.403  17.563  0.00  0.00    +0.000 N 
ATOM      3  C   UNL     1       5.549   4.765  18.741  0.00  0.00    +0.000 C 
ATOM      4  C   UNL     1       4.227   4.060  18.761  0.00  0.00    +0.000 A 
ATOM      5  C   UNL     1       3.535   3.791  19.946  0.00  0.00    +0.000 A 
ATOM      6  C   UNL     1       2.308   3.132  19.889  0.00  0.00    +0.000 A 
ATOM      7 BR   UNL     1       1.390   2.732  21.493  0.00  0.00    +0.000 Br
ATOM      8  C   UNL     1       1.756   2.758  18.664  0.00  0.00    +0.000 A 
ATOM      9  C   UNL     1       2.422   3.063  17.477  0.00  0.00    +0.000 A 
ATOM     10  C   UNL     1       3.655   3.710  17.535  0.00  0.00    +0.000 A 
ATOM     11  N   UNL     1       4.359   3.994  16.366  0.00  0.00    +0.000 N 
ATOM     12  C   UNL     1       5.691   4.313  16.335  0.00  0.00    +0.000 C 
ATOM     13  O   UNL     1       6.272   4.428  15.258  0.00  0.00    +0.000 OA
ATOM     14  H   UNL     1       3.949   3.806  15.462  0.00  0.00    +0.000 HD
ENDROOT
TORSDOF 0
ENDMDL
MODEL 8
REMARK VINA RESULT:      -6.0      3.593      4.823
REMARK  Name = 
REMARK  1 active torsions:
REMARK  status: ('A' for Active; 'I' for Inactive)
REMARK    1  A    between atoms: C_1  and  N_2
REMARK                            x       y       z     vdW  Elec       q    Type
REMARK                         _______ _______ _______ _____ _____    ______ ____
ROOT
ATOM      1  C   UNL     1       0.993   3.972  20.458  0.00  0.00    +0.000 C 
ATOM      2  N   UNL     1       2.049   3.887  19.473  0.00  0.00    +0.000 N 
ATOM      3  C   UNL     1       3.392   4.294  19.848  0.00  0.00    +0.000 C 
ATOM      4  C   UNL     1       4.210   4.639  18.641  0.00  0.00    +0.000 A 
ATOM      5  C   UNL     1       5.291   5.525  18.691  0.00  0.00    +0.000 A 
ATOM      6  C   UNL     1       6.008   5.798  17.527  0.00  0.00    +0.000 A 
ATOM      7 BR   UNL     1       7.445   7.026  17.585  0.00  0.00    +0.000 Br
ATOM      8  C   UNL     1       5.672   5.182  16.321  0.00  0.00    +0.000 A 
ATOM      9  C   UNL     1       4.622   4.265  16.277  0.00  0.00    +0.000 A 
ATOM     10  C   UNL     1       3.897   4.002  17.437  0.00  0.00    +0.000 A 
ATOM     11  N   UNL     1       2.820   3.118  17.411  0.00  0.00    +0.000 N 
ATOM     12  C   UNL     1       1.863   3.050  18.389  0.00  0.00    +0.000 C 
ATOM     13  O   UNL     1       0.877   2.334  18.238  0.00  0.00    +0.000 OA
ATOM     14  H   UNL     1       2.603   2.598  16.572  0.00  0.00    +0.000 HD
ENDROOT
TORSDOF 0
ENDMDL
MODEL 9
REMARK VINA RESULT:      -6.0      3.935      5.102
REMARK  Name = 
REMARK  1 active torsions:
REMARK  status: ('A' for Active; 'I' for Inactive)
REMARK    1  A    between atoms: C_1  and  N_2
REMARK                            x       y       z     vdW  Elec       q    Type
REMARK                         _______ _______ _______ _____ _____    ______ ____
ROOT
ATOM      1  C   UNL     1       2.038   3.494  20.964  0.00  0.00    +0.000 C 
ATOM      2  N   UNL     1       2.457   4.326  19.858  0.00  0.00    +0.000 N 
ATOM      3  C   UNL     1       2.694   3.707  18.566  0.00  0.00    +0.000 C 
ATOM      4  C   UNL     1       3.587   4.557  17.714  0.00  0.00    +0.000 A 
ATOM      5  C   UNL     1       4.389   4.025  16.698  0.00  0.00    +0.000 A 
ATOM      6  C   UNL     1       5.195   4.877  15.945  0.00  0.00    +0.000 A 
ATOM      7 BR   UNL     1       6.309   4.154  14.598  0.00  0.00    +0.000 Br
ATOM      8  C   UNL     1       5.194   6.252  16.178  0.00  0.00    +0.000 A 
ATOM      9  C   UNL     1       4.364   6.791  17.161  0.00  0.00    +0.000 A 
ATOM     10  C   UNL     1       3.568   5.938  17.924  0.00  0.00    +0.000 A 
ATOM     11  N   UNL     1       2.757   6.448  18.936  0.00  0.00    +0.000 N 
ATOM     12  C   UNL     1       2.210   5.684  19.934  0.00  0.00    +0.000 C 
ATOM     13  O   UNL     1       1.609   6.221  20.861  0.00  0.00    +0.000 OA
ATOM     14  H   UNL     1       2.677   7.445  19.076  0.00  0.00    +0.000 HD
ENDROOT
TORSDOF 0
ENDMDL
