MODEL 1
REMARK VINA RESULT:      -7.3      0.000      0.000
REMARK  Name = 
REMARK  9 active torsions:
REMARK  status: ('A' for Active; 'I' for Inactive)
REMARK    1  A    between atoms: C_1  and  N_2
REMARK    2  A    between atoms: N_2  and  C_3
REMARK    3  A    between atoms: N_2  and  C_4
REMARK    4  A    between atoms: C_4  and  C_5
REMARK    5  A    between atoms: C_5  and  C_6
REMARK    6  A    between atoms: C_6  and  N_7
REMARK    7  A    between atoms: N_7  and  C_8
REMARK    8  A    between atoms: C_8  and  C_9
REMARK    9  A    between atoms: C_13  and  C_14
REMARK                            x       y       z     vdW  Elec       q    Type
REMARK                         _______ _______ _______ _____ _____    ______ ____
ROOT
ATOM      1  C   UNL     1       3.829   5.757  18.362  0.00  0.00    +0.000 A 
ATOM      2  C   UNL     1       3.245   5.927  19.602  0.00  0.00    +0.000 A 
ATOM      3  C   UNL     1       2.473   7.113  19.524  0.00  0.00    +0.000 A 
ATOM      4  C   UNL     1       1.654   7.836  20.411  0.00  0.00    +0.000 A 
ATOM      5  C   UNL     1       1.043   9.043  19.999  0.00  0.00    +0.000 A 
ATOM      6  C   UNL     1       1.258   9.471  18.671  0.00  0.00    +0.000 A 
ATOM      7  C   UNL     1       2.045   8.753  17.758  0.00  0.00    +0.000 A 
ATOM      8  C   UNL     1       2.638   7.591  18.234  0.00  0.00    +0.000 A 
ATOM      9  O   UNL     1       3.460   6.771  17.525  0.00  0.00    +0.000 OA
ENDROOT
BRANCH   5  10
ATOM     10  C   UNL     1       0.210   9.828  20.944  0.00  0.00    +0.000 A 
ATOM     11  C   UNL     1       0.038   9.429  22.285  0.00  0.00    +0.000 A 
ATOM     12  C   UNL     1      -0.744  10.175  23.174  0.00  0.00    +0.000 A 
ATOM     13  C   UNL     1      -1.359  11.343  22.744  0.00  0.00    +0.000 A 
ATOM     14  F   UNL     1      -2.092  12.047  23.616  0.00  0.00    +0.000 F 
ATOM     15  C   UNL     1      -1.208  11.766  21.429  0.00  0.00    +0.000 A 
ATOM     16 CL   UNL     1      -1.949  13.222  20.883  0.00  0.00    +0.000 Cl
ATOM     17  C   UNL     1      -0.442  11.010  20.536  0.00  0.00    +0.000 A 
ENDBRANCH   5  10
BRANCH   1  18
ATOM     18  C   UNL     1       4.757   4.736  17.809  0.00  0.00    +0.000 C 
BRANCH  18  19
ATOM     19  N   UNL     1       4.550   3.444  18.468  0.00  0.00    +0.000 NA
ATOM     20  H   UNL     1       5.456   3.069  18.744  0.00  0.00    +0.000 HD
BRANCH  19  21
ATOM     21  C   UNL     1       3.904   2.505  17.550  0.00  0.00    +0.000 C 
BRANCH  21  22
ATOM     22  C   UNL     1       2.422   2.383  17.905  0.00  0.00    +0.000 C 
BRANCH  22  23
ATOM     23  C   UNL     1       2.210   1.925  19.355  0.00  0.00    +0.000 C 
BRANCH  23  25
ATOM     24  C   UNL     1       0.646   3.671  20.032  0.00  0.00    +0.000 C 
ATOM     25  N   UNL     1       1.930   3.020  20.301  0.00  0.00    +0.000 NA
ATOM     26  C   UNL     1       1.949   2.513  21.676  0.00  0.00    +0.000 C 
ENDBRANCH  23  25
ENDBRANCH  22  23
ENDBRANCH  21  22
ENDBRANCH  19  21
ENDBRANCH  18  19
ENDBRANCH   1  18
TORSDOF 7
ENDMDL
MODEL 2
REMARK VINA RESULT:      -7.2      1.584      3.204
REMARK  Name = 
REMARK  9 active torsions:
REMARK  status: ('A' for Active; 'I' for Inactive)
REMARK    1  A    between atoms: C_1  and  N_2
REMARK    2  A    between atoms: N_2  and  C_3
REMARK    3  A    between atoms: N_2  and  C_4
REMARK    4  A    between atoms: C_4  and  C_5
REMARK    5  A    between atoms: C_5  and  C_6
REMARK    6  A    between atoms: C_6  and  N_7
REMARK    7  A    between atoms: N_7  and  C_8
REMARK    8  A    between atoms: C_8  and  C_9
REMARK    9  A    between atoms: C_13  and  C_14
REMARK                            x       y       z     vdW  Elec       q    Type
REMARK                         _______ _______ _______ _____ _____    ______ ____
ROOT
ATOM      1  C   UNL     1       3.403   4.722  19.032  0.00  0.00    +0.000 A 
ATOM      2  C   UNL     1       2.792   5.093  20.213  0.00  0.00    +0.000 A 
ATOM      3  C   UNL     1       2.273   6.395  20.006  0.00  0.00    +0.000 A 
ATOM      4  C   UNL     1       1.561   7.326  20.784  0.00  0.00    +0.000 A 
ATOM      5  C   UNL     1       1.224   8.594  20.255  0.00  0.00    +0.000 A 
ATOM      6  C   UNL     1       1.596   8.872  18.922  0.00  0.00    +0.000 A 
ATOM      7  C   UNL     1       2.279   7.950  18.115  0.00  0.00    +0.000 A 
ATOM      8  C   UNL     1       2.604   6.735  18.703  0.00  0.00    +0.000 A 
ATOM      9  O   UNL     1       3.290   5.723  18.109  0.00  0.00    +0.000 OA
ENDROOT
BRANCH   5  10
ATOM     10  C   UNL     1       0.506   9.592  21.087  0.00  0.00    +0.000 A 
ATOM     11  C   UNL     1      -0.108   9.236  22.304  0.00  0.00    +0.000 A 
ATOM     12  C   UNL     1      -0.779  10.181  23.088  0.00  0.00    +0.000 A 
ATOM     13  C   UNL     1      -0.837  11.506  22.677  0.00  0.00    +0.000 A 
ATOM     14  F   UNL     1      -1.474  12.396  23.449  0.00  0.00    +0.000 F 
ATOM     15  C   UNL     1      -0.240  11.892  21.483  0.00  0.00    +0.000 A 
ATOM     16 CL   UNL     1      -0.287  13.535  20.966  0.00  0.00    +0.000 Cl
ATOM     17  C   UNL     1       0.414  10.943  20.691  0.00  0.00    +0.000 A 
ENDBRANCH   5  10
BRANCH   1  18
ATOM     18  C   UNL     1       4.144   3.504  18.612  0.00  0.00    +0.000 C 
BRANCH  18  19
ATOM     19  N   UNL     1       5.580   3.667  18.856  0.00  0.00    +0.000 NA
ATOM     20  H   UNL     1       5.843   3.092  19.655  0.00  0.00    +0.000 HD
BRANCH  19  21
ATOM     21  C   UNL     1       5.886   5.067  19.155  0.00  0.00    +0.000 C 
BRANCH  21  22
ATOM     22  C   UNL     1       6.852   5.613  18.102  0.00  0.00    +0.000 C 
BRANCH  22  23
ATOM     23  C   UNL     1       7.070   4.622  16.949  0.00  0.00    +0.000 C 
BRANCH  23  25
ATOM     24  C   UNL     1       5.503   6.002  15.688  0.00  0.00    +0.000 C 
ATOM     25  N   UNL     1       6.017   4.651  15.919  0.00  0.00    +0.000 NA
ATOM     26  C   UNL     1       6.529   4.095  14.663  0.00  0.00    +0.000 C 
ENDBRANCH  23  25
ENDBRANCH  22  23
ENDBRANCH  21  22
ENDBRANCH  19  21
ENDBRANCH  18  19
ENDBRANCH   1  18
TORSDOF 7
ENDMDL
MODEL 3
REMARK VINA RESULT:      -7.1      2.504      3.935
REMARK  Name = 
REMARK  9 active torsions:
REMARK  status: ('A' for Active; 'I' for Inactive)
REMARK    1  A    between atoms: C_1  and  N_2
REMARK    2  A    between atoms: N_2  and  C_3
REMARK    3  A    between atoms: N_2  and  C_4
REMARK    4  A    between atoms: C_4  and  C_5
REMARK    5  A    between atoms: C_5  and  C_6
REMARK    6  A    between atoms: C_6  and  N_7
REMARK    7  A    between atoms: N_7  and  C_8
REMARK    8  A    between atoms: C_8  and  C_9
REMARK    9  A    between atoms: C_13  and  C_14
REMARK                            x       y       z     vdW  Elec       q    Type
REMARK                         _______ _______ _______ _____ _____    ______ ____
ROOT
ATOM      1  C   UNL     1       4.030   5.056  18.450  0.00  0.00    +0.000 A 
ATOM      2  C   UNL     1       3.415   5.266  19.668  0.00  0.00    +0.000 A 
ATOM      3  C   UNL     1       2.717   6.495  19.561  0.00  0.00    +0.000 A 
ATOM      4  C   UNL     1       1.912   7.269  20.416  0.00  0.00    +0.000 A 
ATOM      5  C   UNL     1       1.388   8.508  19.981  0.00  0.00    +0.000 A 
ATOM      6  C   UNL     1       1.674   8.917  18.660  0.00  0.00    +0.000 A 
ATOM      7  C   UNL     1       2.448   8.149  17.777  0.00  0.00    +0.000 A 
ATOM      8  C   UNL     1       2.954   6.957  18.275  0.00  0.00    +0.000 A 
ATOM      9  O   UNL     1       3.750   6.087  17.598  0.00  0.00    +0.000 OA
ENDROOT
BRANCH   5  10
ATOM     10  C   UNL     1       0.571   9.345  20.895  0.00  0.00    +0.000 A 
ATOM     11  C   UNL     1       0.496   9.076  22.276  0.00  0.00    +0.000 A 
ATOM     12  C   UNL     1      -0.271   9.870  23.135  0.00  0.00    +0.000 A 
ATOM     13  C   UNL     1      -0.969  10.959  22.631  0.00  0.00    +0.000 A 
ATOM     14  F   UNL     1      -1.687  11.714  23.474  0.00  0.00    +0.000 F 
ATOM     15  C   UNL     1      -0.916  11.255  21.275  0.00  0.00    +0.000 A 
ATOM     16 CL   UNL     1      -1.761  12.613  20.636  0.00  0.00    +0.000 Cl
ATOM     17  C   UNL     1      -0.164  10.449  20.414  0.00  0.00    +0.000 A 
ENDBRANCH   5  10
BRANCH   1  18
ATOM     18  C   UNL     1       4.914   3.980  17.931  0.00  0.00    +0.000 C 
BRANCH  18  19
ATOM     19  N   UNL     1       5.172   4.173  16.502  0.00  0.00    +0.000 NA
ATOM     20  H   UNL     1       5.006   3.293  16.017  0.00  0.00    +0.000 HD
BRANCH  19  21
ATOM     21  C   UNL     1       6.562   4.579  16.289  0.00  0.00    +0.000 C 
BRANCH  21  22
ATOM     22  C   UNL     1       6.876   4.553  14.792  0.00  0.00    +0.000 C 
BRANCH  22  23
ATOM     23  C   UNL     1       5.662   4.128  13.954  0.00  0.00    +0.000 C 
BRANCH  23  25
ATOM     24  C   UNL     1       4.871   3.289  11.805  0.00  0.00    +0.000 C 
ATOM     25  N   UNL     1       6.002   3.382  12.729  0.00  0.00    +0.000 NA
ATOM     26  C   UNL     1       7.140   4.014  12.057  0.00  0.00    +0.000 C 
ENDBRANCH  23  25
ENDBRANCH  22  23
ENDBRANCH  21  22
ENDBRANCH  19  21
ENDBRANCH  18  19
ENDBRANCH   1  18
TORSDOF 7
ENDMDL
MODEL 4
REMARK VINA RESULT:      -7.0      5.315      9.111
REMARK  Name = 
REMARK  9 active torsions:
REMARK  status: ('A' for Active; 'I' for Inactive)
REMARK    1  A    between atoms: C_1  and  N_2
REMARK    2  A    between atoms: N_2  and  C_3
REMARK    3  A    between atoms: N_2  and  C_4
REMARK    4  A    between atoms: C_4  and  C_5
REMARK    5  A    between atoms: C_5  and  C_6
REMARK    6  A    between atoms: C_6  and  N_7
REMARK    7  A    between atoms: N_7  and  C_8
REMARK    8  A    between atoms: C_8  and  C_9
REMARK    9  A    between atoms: C_13  and  C_14
REMARK                            x       y       z     vdW  Elec       q    Type
REMARK                         _______ _______ _______ _____ _____    ______ ____
ROOT
ATOM      1  C   UNL     1       0.025   9.780  21.894  0.00  0.00    +0.000 A 
ATOM      2  C   UNL     1       0.718   8.586  21.911  0.00  0.00    +0.000 A 
ATOM      3  C   UNL     1       1.270   8.423  20.616  0.00  0.00    +0.000 A 
ATOM      4  C   UNL     1       2.060   7.449  19.979  0.00  0.00    +0.000 A 
ATOM      5  C   UNL     1       2.410   7.590  18.616  0.00  0.00    +0.000 A 
ATOM      6  C   UNL     1       1.969   8.747  17.938  0.00  0.00    +0.000 A 
ATOM      7  C   UNL     1       1.206   9.748  18.559  0.00  0.00    +0.000 A 
ATOM      8  C   UNL     1       0.874   9.535  19.890  0.00  0.00    +0.000 A 
ATOM      9  O   UNL     1       0.119  10.361  20.662  0.00  0.00    +0.000 OA
ENDROOT
BRANCH   5  10
ATOM     10  C   UNL     1       3.211   6.545  17.930  0.00  0.00    +0.000 A 
ATOM     11  C   UNL     1       4.338   6.871  17.150  0.00  0.00    +0.000 A 
ATOM     12  C   UNL     1       5.095   5.883  16.510  0.00  0.00    +0.000 A 
ATOM     13  C   UNL     1       4.747   4.546  16.650  0.00  0.00    +0.000 A 
ATOM     14  F   UNL     1       5.493   3.616  16.039  0.00  0.00    +0.000 F 
ATOM     15  C   UNL     1       3.643   4.189  17.414  0.00  0.00    +0.000 A 
ATOM     16 CL   UNL     1       3.208   2.534  17.614  0.00  0.00    +0.000 Cl
ATOM     17  C   UNL     1       2.877   5.179  18.038  0.00  0.00    +0.000 A 
ENDBRANCH   5  10
BRANCH   1  18
ATOM     18  C   UNL     1      -0.783  10.499  22.914  0.00  0.00    +0.000 C 
BRANCH  18  19
ATOM     19  N   UNL     1      -0.526  11.940  22.849  0.00  0.00    +0.000 NA
ATOM     20  H   UNL     1      -0.283  12.272  23.781  0.00  0.00    +0.000 HD
BRANCH  19  21
ATOM     21  C   UNL     1      -1.722  12.647  22.388  0.00  0.00    +0.000 C 
BRANCH  21  22
ATOM     22  C   UNL     1      -2.913  12.259  23.265  0.00  0.00    +0.000 C 
BRANCH  22  23
ATOM     23  C   UNL     1      -3.727  13.482  23.710  0.00  0.00    +0.000 C 
BRANCH  23  25
ATOM     24  C   UNL     1      -5.309  12.915  21.943  0.00  0.00    +0.000 C 
ATOM     25  N   UNL     1      -5.140  13.454  23.293  0.00  0.00    +0.000 NA
ATOM     26  C   UNL     1      -5.927  12.665  24.244  0.00  0.00    +0.000 C 
ENDBRANCH  23  25
ENDBRANCH  22  23
ENDBRANCH  21  22
ENDBRANCH  19  21
ENDBRANCH  18  19
ENDBRANCH   1  18
TORSDOF 7
ENDMDL
MODEL 5
REMARK VINA RESULT:      -7.0      5.834      8.810
REMARK  Name = 
REMARK  9 active torsions:
REMARK  status: ('A' for Active; 'I' for Inactive)
REMARK    1  A    between atoms: C_1  and  N_2
REMARK    2  A    between atoms: N_2  and  C_3
REMARK    3  A    between atoms: N_2  and  C_4
REMARK    4  A    between atoms: C_4  and  C_5
REMARK    5  A    between atoms: C_5  and  C_6
REMARK    6  A    between atoms: C_6  and  N_7
REMARK    7  A    between atoms: N_7  and  C_8
REMARK    8  A    between atoms: C_8  and  C_9
REMARK    9  A    between atoms: C_13  and  C_14
REMARK                            x       y       z     vdW  Elec       q    Type
REMARK                         _______ _______ _______ _____ _____    ______ ____
ROOT
ATOM      1  C   UNL     1       3.008   5.792  19.438  0.00  0.00    +0.000 A 
ATOM      2  C   UNL     1       2.775   5.621  18.087  0.00  0.00    +0.000 A 
ATOM      3  C   UNL     1       4.032   5.342  17.495  0.00  0.00    +0.000 A 
ATOM      4  C   UNL     1       4.489   5.079  16.191  0.00  0.00    +0.000 A 
ATOM      5  C   UNL     1       5.866   4.874  15.941  0.00  0.00    +0.000 A 
ATOM      6  C   UNL     1       6.748   4.911  17.043  0.00  0.00    +0.000 A 
ATOM      7  C   UNL     1       6.314   5.141  18.358  0.00  0.00    +0.000 A 
ATOM      8  C   UNL     1       4.954   5.362  18.530  0.00  0.00    +0.000 A 
ATOM      9  O   UNL     1       4.337   5.634  19.710  0.00  0.00    +0.000 OA
ENDROOT
BRANCH   5  10
ATOM     10  C   UNL     1       6.355   4.634  14.561  0.00  0.00    +0.000 A 
ATOM     11  C   UNL     1       7.429   5.369  14.019  0.00  0.00    +0.000 A 
ATOM     12  C   UNL     1       7.891   5.135  12.719  0.00  0.00    +0.000 A 
ATOM     13  C   UNL     1       7.298   4.152  11.939  0.00  0.00    +0.000 A 
ATOM     14  F   UNL     1       7.765   3.937  10.702  0.00  0.00    +0.000 F 
ATOM     15  C   UNL     1       6.239   3.407  12.443  0.00  0.00    +0.000 A 
ATOM     16 CL   UNL     1       5.502   2.172  11.496  0.00  0.00    +0.000 Cl
ATOM     17  C   UNL     1       5.765   3.654  13.736  0.00  0.00    +0.000 A 
ENDBRANCH   5  10
BRANCH   1  18
ATOM     18  C   UNL     1       2.123   6.123  20.586  0.00  0.00    +0.000 C 
BRANCH  18  19
ATOM     19  N   UNL     1       1.350   4.947  20.992  0.00  0.00    +0.000 NA
ATOM     20  H   UNL     1       0.583   5.250  21.591  0.00  0.00    +0.000 HD
BRANCH  19  21
ATOM     21  C   UNL     1       2.198   4.015  21.738  0.00  0.00    +0.000 C 
BRANCH  21  22
ATOM     22  C   UNL     1       1.899   2.584  21.290  0.00  0.00    +0.000 C 
BRANCH  22  23
ATOM     23  C   UNL     1       1.576   2.503  19.791  0.00  0.00    +0.000 C 
BRANCH  23  25
ATOM     24  C   UNL     1       2.508   2.120  17.570  0.00  0.00    +0.000 C 
ATOM     25  N   UNL     1       2.580   1.779  18.992  0.00  0.00    +0.000 NA
ATOM     26  C   UNL     1       3.924   2.061  19.502  0.00  0.00    +0.000 C 
ENDBRANCH  23  25
ENDBRANCH  22  23
ENDBRANCH  21  22
ENDBRANCH  19  21
ENDBRANCH  18  19
ENDBRANCH   1  18
TORSDOF 7
ENDMDL
MODEL 6
REMARK VINA RESULT:      -6.9      1.686      3.152
REMARK  Name = 
REMARK  9 active torsions:
REMARK  status: ('A' for Active; 'I' for Inactive)
REMARK    1  A    between atoms: C_1  and  N_2
REMARK    2  A    between atoms: N_2  and  C_3
REMARK    3  A    between atoms: N_2  and  C_4
REMARK    4  A    between atoms: C_4  and  C_5
REMARK    5  A    between atoms: C_5  and  C_6
REMARK    6  A    between atoms: C_6  and  N_7
REMARK    7  A    between atoms: N_7  and  C_8
REMARK    8  A    between atoms: C_8  and  C_9
REMARK    9  A    between atoms: C_13  and  C_14
REMARK                            x       y       z     vdW  Elec       q    Type
REMARK                         _______ _______ _______ _____ _____    ______ ____
ROOT
ATOM      1  C   UNL     1       3.186   4.594  19.463  0.00  0.00    +0.000 A 
ATOM      2  C   UNL     1       2.487   5.003  20.580  0.00  0.00    +0.000 A 
ATOM      3  C   UNL     1       2.080   6.338  20.334  0.00  0.00    +0.000 A 
ATOM      4  C   UNL     1       1.358   7.314  21.046  0.00  0.00    +0.000 A 
ATOM      5  C   UNL     1       1.161   8.602  20.498  0.00  0.00    +0.000 A 
ATOM      6  C   UNL     1       1.682   8.857  19.211  0.00  0.00    +0.000 A 
ATOM      7  C   UNL     1       2.379   7.892  18.467  0.00  0.00    +0.000 A 
ATOM      8  C   UNL     1       2.561   6.657  19.074  0.00  0.00    +0.000 A 
ATOM      9  O   UNL     1       3.232   5.602  18.542  0.00  0.00    +0.000 OA
ENDROOT
BRANCH   5  10
ATOM     10  C   UNL     1       0.433   9.645  21.263  0.00  0.00    +0.000 A 
ATOM     11  C   UNL     1      -0.285   9.337  22.435  0.00  0.00    +0.000 A 
ATOM     12  C   UNL     1      -0.965  10.324  23.156  0.00  0.00    +0.000 A 
ATOM     13  C   UNL     1      -0.929  11.643  22.727  0.00  0.00    +0.000 A 
ATOM     14  F   UNL     1      -1.577  12.574  23.441  0.00  0.00    +0.000 F 
ATOM     15  C   UNL     1      -0.228  11.984  21.577  0.00  0.00    +0.000 A 
ATOM     16 CL   UNL     1      -0.157  13.619  21.041  0.00  0.00    +0.000 Cl
ATOM     17  C   UNL     1       0.436  10.993  20.846  0.00  0.00    +0.000 A 
ENDBRANCH   5  10
BRANCH   1  18
ATOM     18  C   UNL     1       3.881   3.329  19.107  0.00  0.00    +0.000 C 
BRANCH  18  19
ATOM     19  N   UNL     1       5.082   3.610  18.315  0.00  0.00    +0.000 NA
ATOM     20  H   UNL     1       5.373   4.570  18.492  0.00  0.00    +0.000 HD
BRANCH  19  21
ATOM     21  C   UNL     1       4.795   3.453  16.888  0.00  0.00    +0.000 C 
BRANCH  21  22
ATOM     22  C   UNL     1       5.940   4.054  16.071  0.00  0.00    +0.000 C 
BRANCH  22  23
ATOM     23  C   UNL     1       6.833   4.974  16.915  0.00  0.00    +0.000 C 
BRANCH  23  25
ATOM     24  C   UNL     1       5.403   6.881  16.398  0.00  0.00    +0.000 C 
ATOM     25  N   UNL     1       6.778   6.394  16.527  0.00  0.00    +0.000 NA
ATOM     26  C   UNL     1       7.502   7.211  17.505  0.00  0.00    +0.000 C 
ENDBRANCH  23  25
ENDBRANCH  22  23
ENDBRANCH  21  22
ENDBRANCH  19  21
ENDBRANCH  18  19
ENDBRANCH   1  18
TORSDOF 7
ENDMDL
MODEL 7
REMARK VINA RESULT:      -6.8      2.223      3.808
REMARK  Name = 
REMARK  9 active torsions:
REMARK  status: ('A' for Active; 'I' for Inactive)
REMARK    1  A    between atoms: C_1  and  N_2
REMARK    2  A    between atoms: N_2  and  C_3
REMARK    3  A    between atoms: N_2  and  C_4
REMARK    4  A    between atoms: C_4  and  C_5
REMARK    5  A    between atoms: C_5  and  C_6
REMARK    6  A    between atoms: C_6  and  N_7
REMARK    7  A    between atoms: N_7  and  C_8
REMARK    8  A    between atoms: C_8  and  C_9
REMARK    9  A    between atoms: C_13  and  C_14
REMARK                            x       y       z     vdW  Elec       q    Type
REMARK                         _______ _______ _______ _____ _____    ______ ____
ROOT
ATOM      1  C   UNL     1       3.779   5.181  18.477  0.00  0.00    +0.000 A 
ATOM      2  C   UNL     1       3.224   5.436  19.715  0.00  0.00    +0.000 A 
ATOM      3  C   UNL     1       2.558   6.682  19.609  0.00  0.00    +0.000 A 
ATOM      4  C   UNL     1       1.813   7.498  20.479  0.00  0.00    +0.000 A 
ATOM      5  C   UNL     1       1.307   8.743  20.038  0.00  0.00    +0.000 A 
ATOM      6  C   UNL     1       1.546   9.114  18.697  0.00  0.00    +0.000 A 
ATOM      7  C   UNL     1       2.259   8.304  17.799  0.00  0.00    +0.000 A 
ATOM      8  C   UNL     1       2.752   7.108  18.304  0.00  0.00    +0.000 A 
ATOM      9  O   UNL     1       3.493   6.201  17.614  0.00  0.00    +0.000 OA
ENDROOT
BRANCH   5  10
ATOM     10  C   UNL     1       0.553   9.623  20.966  0.00  0.00    +0.000 A 
ATOM     11  C   UNL     1      -0.036   9.124  22.144  0.00  0.00    +0.000 A 
ATOM     12  C   UNL     1      -0.740   9.958  23.019  0.00  0.00    +0.000 A 
ATOM     13  C   UNL     1      -0.857  11.313  22.740  0.00  0.00    +0.000 A 
ATOM     14  F   UNL     1      -1.525  12.095  23.598  0.00  0.00    +0.000 F 
ATOM     15  C   UNL     1      -0.286  11.840  21.588  0.00  0.00    +0.000 A 
ATOM     16 CL   UNL     1      -0.406  13.521  21.235  0.00  0.00    +0.000 Cl
ATOM     17  C   UNL     1       0.402  11.001  20.705  0.00  0.00    +0.000 A 
ENDBRANCH   5  10
BRANCH   1  18
ATOM     18  C   UNL     1       4.609   4.068  17.946  0.00  0.00    +0.000 C 
BRANCH  18  19
ATOM     19  N   UNL     1       5.980   4.164  18.455  0.00  0.00    +0.000 NA
ATOM     20  H   UNL     1       5.990   4.799  19.251  0.00  0.00    +0.000 HD
BRANCH  19  21
ATOM     21  C   UNL     1       6.870   4.687  17.417  0.00  0.00    +0.000 C 
BRANCH  21  22
ATOM     22  C   UNL     1       6.117   4.753  16.087  0.00  0.00    +0.000 C 
BRANCH  22  23
ATOM     23  C   UNL     1       6.874   4.037  14.958  0.00  0.00    +0.000 C 
BRANCH  23  25
ATOM     24  C   UNL     1       7.811   5.217  13.041  0.00  0.00    +0.000 C 
ATOM     25  N   UNL     1       6.621   4.588  13.615  0.00  0.00    +0.000 NA
ATOM     26  C   UNL     1       6.140   3.531  12.722  0.00  0.00    +0.000 C 
ENDBRANCH  23  25
ENDBRANCH  22  23
ENDBRANCH  21  22
ENDBRANCH  19  21
ENDBRANCH  18  19
ENDBRANCH   1  18
TORSDOF 7
ENDMDL
MODEL 8
REMARK VINA RESULT:      -6.8      5.110      8.865
REMARK  Name = 
REMARK  9 active torsions:
REMARK  status: ('A' for Active; 'I' for Inactive)
REMARK    1  A    between atoms: C_1  and  N_2
REMARK    2  A    between atoms: N_2  and  C_3
REMARK    3  A    between atoms: N_2  and  C_4
REMARK    4  A    between atoms: C_4  and  C_5
REMARK    5  A    between atoms: C_5  and  C_6
REMARK    6  A    between atoms: C_6  and  N_7
REMARK    7  A    between atoms: N_7  and  C_8
REMARK    8  A    between atoms: C_8  and  C_9
REMARK    9  A    between atoms: C_13  and  C_14
REMARK                            x       y       z     vdW  Elec       q    Type
REMARK                         _______ _______ _______ _____ _____    ______ ____
ROOT
ATOM      1  C   UNL     1       0.118   9.881  21.738  0.00  0.00    +0.000 A 
ATOM      2  C   UNL     1       0.787   8.675  21.798  0.00  0.00    +0.000 A 
ATOM      3  C   UNL     1       1.328   8.451  20.508  0.00  0.00    +0.000 A 
ATOM      4  C   UNL     1       2.095   7.437  19.905  0.00  0.00    +0.000 A 
ATOM      5  C   UNL     1       2.441   7.518  18.536  0.00  0.00    +0.000 A 
ATOM      6  C   UNL     1       2.019   8.657  17.816  0.00  0.00    +0.000 A 
ATOM      7  C   UNL     1       1.280   9.697  18.401  0.00  0.00    +0.000 A 
ATOM      8  C   UNL     1       0.951   9.542  19.740  0.00  0.00    +0.000 A 
ATOM      9  O   UNL     1       0.217  10.412  20.483  0.00  0.00    +0.000 OA
ENDROOT
BRANCH   5  10
ATOM     10  C   UNL     1       3.217   6.431  17.888  0.00  0.00    +0.000 A 
ATOM     11  C   UNL     1       4.364   6.701  17.114  0.00  0.00    +0.000 A 
ATOM     12  C   UNL     1       5.096   5.674  16.510  0.00  0.00    +0.000 A 
ATOM     13  C   UNL     1       4.705   4.353  16.679  0.00  0.00    +0.000 A 
ATOM     14  F   UNL     1       5.428   3.384  16.101  0.00  0.00    +0.000 F 
ATOM     15  C   UNL     1       3.581   4.050  17.437  0.00  0.00    +0.000 A 
ATOM     16 CL   UNL     1       3.090   2.416  17.672  0.00  0.00    +0.000 Cl
ATOM     17  C   UNL     1       2.838   5.080  18.025  0.00  0.00    +0.000 A 
ENDBRANCH   5  10
BRANCH   1  18
ATOM     18  C   UNL     1      -0.670  10.656  22.733  0.00  0.00    +0.000 C 
BRANCH  18  19
ATOM     19  N   UNL     1      -0.762  12.061  22.331  0.00  0.00    +0.000 NA
ATOM     20  H   UNL     1      -0.468  12.645  23.112  0.00  0.00    +0.000 HD
BRANCH  19  21
ATOM     21  C   UNL     1      -2.143  12.398  21.979  0.00  0.00    +0.000 C 
BRANCH  21  22
ATOM     22  C   UNL     1      -2.143  13.443  20.862  0.00  0.00    +0.000 C 
BRANCH  22  23
ATOM     23  C   UNL     1      -0.736  13.991  20.582  0.00  0.00    +0.000 C 
BRANCH  23  25
ATOM     24  C   UNL     1       0.900  14.754  18.942  0.00  0.00    +0.000 C 
ATOM     25  N   UNL     1      -0.454  14.240  19.158  0.00  0.00    +0.000 NA
ATOM     26  C   UNL     1      -0.646  13.009  18.386  0.00  0.00    +0.000 C 
ENDBRANCH  23  25
ENDBRANCH  22  23
ENDBRANCH  21  22
ENDBRANCH  19  21
ENDBRANCH  18  19
ENDBRANCH   1  18
TORSDOF 7
ENDMDL
MODEL 9
REMARK VINA RESULT:      -6.8      4.959      8.454
REMARK  Name = 
REMARK  9 active torsions:
REMARK  status: ('A' for Active; 'I' for Inactive)
REMARK    1  A    between atoms: C_1  and  N_2
REMARK    2  A    between atoms: N_2  and  C_3
REMARK    3  A    between atoms: N_2  and  C_4
REMARK    4  A    between atoms: C_4  and  C_5
REMARK    5  A    between atoms: C_5  and  C_6
REMARK    6  A    between atoms: C_6  and  N_7
REMARK    7  A    between atoms: N_7  and  C_8
REMARK    8  A    between atoms: C_8  and  C_9
REMARK    9  A    between atoms: C_13  and  C_14
REMARK                            x       y       z     vdW  Elec       q    Type
REMARK                         _______ _______ _______ _____ _____    ______ ____
ROOT
ATOM      1  C   UNL     1       0.797  10.109  20.802  0.00  0.00    +0.000 A 
ATOM      2  C   UNL     1       0.910   8.830  21.310  0.00  0.00    +0.000 A 
ATOM      3  C   UNL     1       1.475   8.037  20.281  0.00  0.00    +0.000 A 
ATOM      4  C   UNL     1       1.839   6.685  20.143  0.00  0.00    +0.000 A 
ATOM      5  C   UNL     1       2.359   6.204  18.919  0.00  0.00    +0.000 A 
ATOM      6  C   UNL     1       2.528   7.129  17.866  0.00  0.00    +0.000 A 
ATOM      7  C   UNL     1       2.202   8.489  17.988  0.00  0.00    +0.000 A 
ATOM      8  C   UNL     1       1.670   8.890  19.206  0.00  0.00    +0.000 A 
ATOM      9  O   UNL     1       1.260  10.148  19.518  0.00  0.00    +0.000 OA
ENDROOT
BRANCH   5  10
ATOM     10  C   UNL     1       2.708   4.771  18.759  0.00  0.00    +0.000 A 
ATOM     11  C   UNL     1       2.292   4.029  17.635  0.00  0.00    +0.000 A 
ATOM     12  C   UNL     1       2.628   2.680  17.485  0.00  0.00    +0.000 A 
ATOM     13  C   UNL     1       3.400   2.047  18.449  0.00  0.00    +0.000 A 
ATOM     14  F   UNL     1       3.720   0.757  18.278  0.00  0.00    +0.000 F 
ATOM     15  C   UNL     1       3.831   2.748  19.568  0.00  0.00    +0.000 A 
ATOM     16 CL   UNL     1       4.805   1.984  20.766  0.00  0.00    +0.000 Cl
ATOM     17  C   UNL     1       3.478   4.093  19.727  0.00  0.00    +0.000 A 
ENDBRANCH   5  10
BRANCH   1  18
ATOM     18  C   UNL     1       0.267  11.381  21.362  0.00  0.00    +0.000 C 
BRANCH  18  19
ATOM     19  N   UNL     1      -1.189  11.437  21.217  0.00  0.00    +0.000 NA
ATOM     20  H   UNL     1      -1.483  10.707  20.570  0.00  0.00    +0.000 HD
BRANCH  19  21
ATOM     21  C   UNL     1      -1.596  12.738  20.683  0.00  0.00    +0.000 C 
BRANCH  21  22
ATOM     22  C   UNL     1      -0.770  13.056  19.436  0.00  0.00    +0.000 C 
BRANCH  22  23
ATOM     23  C   UNL     1      -1.318  12.354  18.185  0.00  0.00    +0.000 C 
BRANCH  23  25
ATOM     24  C   UNL     1      -3.618  11.569  17.978  0.00  0.00    +0.000 C 
ATOM     25  N   UNL     1      -2.272  11.268  18.469  0.00  0.00    +0.000 NA
ATOM     26  C   UNL     1      -1.798  10.015  17.874  0.00  0.00    +0.000 C 
ENDBRANCH  23  25
ENDBRANCH  22  23
ENDBRANCH  21  22
ENDBRANCH  19  21
ENDBRANCH  18  19
ENDBRANCH   1  18
TORSDOF 7
ENDMDL
