MODEL 1
REMARK VINA RESULT:      -7.8      0.000      0.000
REMARK  Name = 
REMARK  10 active torsions:
REMARK  status: ('A' for Active; 'I' for Inactive)
REMARK    1  A    between atoms: C_1  and  C_2
REMARK    2  A    between atoms: C_2  and  O_3
REMARK    3  A    between atoms: O_3  and  C_4
REMARK    4  A    between atoms: C_6  and  C_7
REMARK    5  A    between atoms: N_8  and  N_9
REMARK    6  A    between atoms: C_10  and  C_12
REMARK    7  A    between atoms: C_12  and  N_13
REMARK    8  A    between atoms: C_21  and  O_22
REMARK    9  A    between atoms: O_22  and  C_23
REMARK   10  A    between atoms: C_23  and  C_24
REMARK                            x       y       z     vdW  Elec       q    Type
REMARK                         _______ _______ _______ _____ _____    ______ ____
ROOT
ATOM      1  C   UNL     1       5.894   5.869  17.013  0.00  0.00    +0.000 A 
ATOM      2  C   UNL     1       6.516   7.123  16.939  0.00  0.00    +0.000 A 
ATOM      3  C   UNL     1       7.551   7.479  17.813  0.00  0.00    +0.000 A 
ATOM      4  C   UNL     1       7.944   6.607  18.811  0.00  0.00    +0.000 A 
ATOM      5  C   UNL     1       7.285   5.384  18.939  0.00  0.00    +0.000 A 
ATOM      6  C   UNL     1       6.231   5.007  18.075  0.00  0.00    +0.000 A 
ENDROOT
BRANCH   3   7
ATOM      7  C   UNL     1       8.267   8.758  17.624  0.00  0.00    +0.000 C 
ATOM      8  N   UNL     1       8.656   9.400  18.672  0.00  0.00    +0.000 NA
BRANCH   8   9
ATOM      9  N   UNL     1       9.270  10.604  18.536  0.00  0.00    +0.000 N 
ATOM     10  C   UNL     1       9.567  11.292  19.698  0.00  0.00    +0.000 C 
ATOM     11  O   UNL     1       9.377  10.852  20.836  0.00  0.00    +0.000 OA
ATOM     12  H   UNL     1       9.354  11.066  17.633  0.00  0.00    +0.000 HD
BRANCH  10  13
ATOM     13  C   UNL     1      10.261  12.634  19.505  0.00  0.00    +0.000 C 
BRANCH  13  14
ATOM     14  N   UNL     1       9.587  13.566  18.556  0.00  0.00    +0.000 NA
ATOM     15  C   UNL     1       8.290  14.020  19.103  0.00  0.00    +0.000 C 
ATOM     16  C   UNL     1       7.635  15.064  18.193  0.00  0.00    +0.000 C 
ATOM     17  C   UNL     1       8.542  16.272  18.000  0.00  0.00    +0.000 C 
ATOM     18  C   UNL     1       9.905  15.821  17.494  0.00  0.00    +0.000 C 
ATOM     19  C   UNL     1      10.493  14.729  18.386  0.00  0.00    +0.000 C 
ENDBRANCH  13  14
ENDBRANCH  10  13
ENDBRANCH   8   9
ENDBRANCH   3   7
BRANCH   1  20
ATOM     20  O   UNL     1       4.943   5.475  16.104  0.00  0.00    +0.000 OA
BRANCH  20  22
ATOM     21  C   UNL     1       6.366   4.001  14.770  0.00  0.00    +0.000 C 
ATOM     22  C   UNL     1       5.392   5.169  14.770  0.00  0.00    +0.000 C 
ENDBRANCH  20  22
ENDBRANCH   1  20
BRANCH   6  23
ATOM     23  O   UNL     1       5.513   3.826  18.245  0.00  0.00    +0.000 OA
BRANCH  23  24
ATOM     24  C   UNL     1       4.895   3.732  19.539  0.00  0.00    +0.000 C 
BRANCH  24  25
ATOM     25  C   UNL     1       3.396   3.553  19.639  0.00  0.00    +0.000 A 
ATOM     26  C   UNL     1       2.548   4.370  20.383  0.00  0.00    +0.000 A 
ATOM     27  C   UNL     1       1.170   4.123  20.387  0.00  0.00    +0.000 A 
ATOM     28  C   UNL     1       0.631   3.069  19.647  0.00  0.00    +0.000 A 
ATOM     29  C   UNL     1       1.468   2.250  18.894  0.00  0.00    +0.000 A 
ATOM     30  C   UNL     1       2.836   2.495  18.891  0.00  0.00    +0.000 A 
ENDBRANCH  24  25
ENDBRANCH  23  24
ENDBRANCH   6  23
TORSDOF 9
ENDMDL
MODEL 2
REMARK VINA RESULT:      -7.6      6.796      9.325
REMARK  Name = 
REMARK  10 active torsions:
REMARK  status: ('A' for Active; 'I' for Inactive)
REMARK    1  A    between atoms: C_1  and  C_2
REMARK    2  A    between atoms: C_2  and  O_3
REMARK    3  A    between atoms: O_3  and  C_4
REMARK    4  A    between atoms: C_6  and  C_7
REMARK    5  A    between atoms: N_8  and  N_9
REMARK    6  A    between atoms: C_10  and  C_12
REMARK    7  A    between atoms: C_12  and  N_13
REMARK    8  A    between atoms: C_21  and  O_22
REMARK    9  A    between atoms: O_22  and  C_23
REMARK   10  A    between atoms: C_23  and  C_24
REMARK                            x       y       z     vdW  Elec       q    Type
REMARK                         _______ _______ _______ _____ _____    ______ ____
ROOT
ATOM      1  C   UNL     1       2.190   6.128  20.307  0.00  0.00    +0.000 A 
ATOM      2  C   UNL     1       1.642   7.344  20.741  0.00  0.00    +0.000 A 
ATOM      3  C   UNL     1       1.572   8.458  19.896  0.00  0.00    +0.000 A 
ATOM      4  C   UNL     1       2.098   8.392  18.619  0.00  0.00    +0.000 A 
ATOM      5  C   UNL     1       2.708   7.209  18.200  0.00  0.00    +0.000 A 
ATOM      6  C   UNL     1       2.800   6.075  19.039  0.00  0.00    +0.000 A 
ENDROOT
BRANCH   3   7
ATOM      7  C   UNL     1       0.875   9.681  20.346  0.00  0.00    +0.000 C 
ATOM      8  N   UNL     1      -0.276   9.553  20.913  0.00  0.00    +0.000 NA
BRANCH   8   9
ATOM      9  N   UNL     1      -0.968  10.659  21.291  0.00  0.00    +0.000 N 
ATOM     10  C   UNL     1      -0.933  10.994  22.632  0.00  0.00    +0.000 C 
ATOM     11  O   UNL     1      -0.262  10.400  23.480  0.00  0.00    +0.000 OA
ATOM     12  H   UNL     1      -1.624  11.123  20.665  0.00  0.00    +0.000 HD
BRANCH  10  13
ATOM     13  C   UNL     1      -1.716  12.243  23.014  0.00  0.00    +0.000 C 
BRANCH  13  14
ATOM     14  N   UNL     1      -3.196  12.071  23.076  0.00  0.00    +0.000 NA
ATOM     15  C   UNL     1      -3.733  12.616  24.341  0.00  0.00    +0.000 C 
ATOM     16  C   UNL     1      -5.263  12.549  24.373  0.00  0.00    +0.000 C 
ATOM     17  C   UNL     1      -5.872  13.314  23.205  0.00  0.00    +0.000 C 
ATOM     18  C   UNL     1      -5.287  12.809  21.894  0.00  0.00    +0.000 C 
ATOM     19  C   UNL     1      -3.760  12.823  21.927  0.00  0.00    +0.000 C 
ENDBRANCH  13  14
ENDBRANCH  10  13
ENDBRANCH   8   9
ENDBRANCH   3   7
BRANCH   1  20
ATOM     20  O   UNL     1       2.180   5.004  21.096  0.00  0.00    +0.000 OA
BRANCH  20  22
ATOM     21  C   UNL     1       1.557   2.675  21.500  0.00  0.00    +0.000 C 
ATOM     22  C   UNL     1       1.254   3.959  20.743  0.00  0.00    +0.000 C 
ENDBRANCH  20  22
ENDBRANCH   1  20
BRANCH   6  23
ATOM     23  O   UNL     1       3.478   4.919  18.660  0.00  0.00    +0.000 OA
BRANCH  23  24
ATOM     24  C   UNL     1       3.497   4.727  17.236  0.00  0.00    +0.000 C 
BRANCH  24  25
ATOM     25  C   UNL     1       4.818   4.724  16.500  0.00  0.00    +0.000 A 
ATOM     26  C   UNL     1       5.106   3.933  15.390  0.00  0.00    +0.000 A 
ATOM     27  C   UNL     1       6.360   4.027  14.774  0.00  0.00    +0.000 A 
ATOM     28  C   UNL     1       7.328   4.911  15.254  0.00  0.00    +0.000 A 
ATOM     29  C   UNL     1       7.048   5.712  16.359  0.00  0.00    +0.000 A 
ATOM     30  C   UNL     1       5.804   5.617  16.971  0.00  0.00    +0.000 A 
ENDBRANCH  24  25
ENDBRANCH  23  24
ENDBRANCH   6  23
TORSDOF 9
ENDMDL
MODEL 3
REMARK VINA RESULT:      -7.5      5.831      7.510
REMARK  Name = 
REMARK  10 active torsions:
REMARK  status: ('A' for Active; 'I' for Inactive)
REMARK    1  A    between atoms: C_1  and  C_2
REMARK    2  A    between atoms: C_2  and  O_3
REMARK    3  A    between atoms: O_3  and  C_4
REMARK    4  A    between atoms: C_6  and  C_7
REMARK    5  A    between atoms: N_8  and  N_9
REMARK    6  A    between atoms: C_10  and  C_12
REMARK    7  A    between atoms: C_12  and  N_13
REMARK    8  A    between atoms: C_21  and  O_22
REMARK    9  A    between atoms: O_22  and  C_23
REMARK   10  A    between atoms: C_23  and  C_24
REMARK                            x       y       z     vdW  Elec       q    Type
REMARK                         _______ _______ _______ _____ _____    ______ ____
ROOT
ATOM      1  C   UNL     1       4.742   5.287  17.587  0.00  0.00    +0.000 A 
ATOM      2  C   UNL     1       3.848   6.283  17.170  0.00  0.00    +0.000 A 
ATOM      3  C   UNL     1       3.030   6.962  18.082  0.00  0.00    +0.000 A 
ATOM      4  C   UNL     1       3.054   6.617  19.421  0.00  0.00    +0.000 A 
ATOM      5  C   UNL     1       3.887   5.579  19.838  0.00  0.00    +0.000 A 
ATOM      6  C   UNL     1       4.714   4.873  18.934  0.00  0.00    +0.000 A 
ENDROOT
BRANCH   3   7
ATOM      7  C   UNL     1       2.194   8.091  17.624  0.00  0.00    +0.000 C 
ATOM      8  N   UNL     1       1.605   8.814  18.514  0.00  0.00    +0.000 NA
BRANCH   8   9
ATOM      9  N   UNL     1       0.788   9.827  18.127  0.00  0.00    +0.000 N 
ATOM     10  C   UNL     1      -0.117  10.297  19.061  0.00  0.00    +0.000 C 
ATOM     11  O   UNL     1      -0.177   9.906  20.230  0.00  0.00    +0.000 OA
ATOM     12  H   UNL     1       0.713  10.116  17.153  0.00  0.00    +0.000 HD
BRANCH  10  13
ATOM     13  C   UNL     1      -1.011  11.436  18.591  0.00  0.00    +0.000 C 
BRANCH  13  14
ATOM     14  N   UNL     1      -2.393  11.038  18.196  0.00  0.00    +0.000 NA
ATOM     15  C   UNL     1      -3.395  11.879  18.884  0.00  0.00    +0.000 C 
ATOM     16  C   UNL     1      -4.816  11.560  18.407  0.00  0.00    +0.000 C 
ATOM     17  C   UNL     1      -4.949  11.759  16.903  0.00  0.00    +0.000 C 
ATOM     18  C   UNL     1      -3.886  10.947  16.176  0.00  0.00    +0.000 C 
ATOM     19  C   UNL     1      -2.492  11.240  16.729  0.00  0.00    +0.000 C 
ENDBRANCH  13  14
ENDBRANCH  10  13
ENDBRANCH   8   9
ENDBRANCH   3   7
BRANCH   1  20
ATOM     20  O   UNL     1       5.612   4.680  16.715  0.00  0.00    +0.000 OA
BRANCH  20  22
ATOM     21  C   UNL     1       6.460   4.350  14.446  0.00  0.00    +0.000 C 
ATOM     22  C   UNL     1       5.796   5.302  15.429  0.00  0.00    +0.000 C 
ENDBRANCH  20  22
ENDBRANCH   1  20
BRANCH   6  23
ATOM     23  O   UNL     1       5.488   3.783  19.325  0.00  0.00    +0.000 OA
BRANCH  23  24
ATOM     24  C   UNL     1       4.695   2.662  19.750  0.00  0.00    +0.000 C 
BRANCH  24  25
ATOM     25  C   UNL     1       3.188   2.736  19.658  0.00  0.00    +0.000 A 
ATOM     26  C   UNL     1       2.457   2.599  18.480  0.00  0.00    +0.000 A 
ATOM     27  C   UNL     1       1.059   2.664  18.517  0.00  0.00    +0.000 A 
ATOM     28  C   UNL     1       0.383   2.860  19.722  0.00  0.00    +0.000 A 
ATOM     29  C   UNL     1       1.103   2.990  20.907  0.00  0.00    +0.000 A 
ATOM     30  C   UNL     1       2.491   2.927  20.871  0.00  0.00    +0.000 A 
ENDBRANCH  24  25
ENDBRANCH  23  24
ENDBRANCH   6  23
TORSDOF 9
ENDMDL
MODEL 4
REMARK VINA RESULT:      -7.4      0.882      1.056
REMARK  Name = 
REMARK  10 active torsions:
REMARK  status: ('A' for Active; 'I' for Inactive)
REMARK    1  A    between atoms: C_1  and  C_2
REMARK    2  A    between atoms: C_2  and  O_3
REMARK    3  A    between atoms: O_3  and  C_4
REMARK    4  A    between atoms: C_6  and  C_7
REMARK    5  A    between atoms: N_8  and  N_9
REMARK    6  A    between atoms: C_10  and  C_12
REMARK    7  A    between atoms: C_12  and  N_13
REMARK    8  A    between atoms: C_21  and  O_22
REMARK    9  A    between atoms: O_22  and  C_23
REMARK   10  A    between atoms: C_23  and  C_24
REMARK                            x       y       z     vdW  Elec       q    Type
REMARK                         _______ _______ _______ _____ _____    ______ ____
ROOT
ATOM      1  C   UNL     1       6.189   5.395  16.552  0.00  0.00    +0.000 A 
ATOM      2  C   UNL     1       6.884   6.611  16.480  0.00  0.00    +0.000 A 
ATOM      3  C   UNL     1       7.456   7.196  17.616  0.00  0.00    +0.000 A 
ATOM      4  C   UNL     1       7.296   6.601  18.855  0.00  0.00    +0.000 A 
ATOM      5  C   UNL     1       6.546   5.429  18.950  0.00  0.00    +0.000 A 
ATOM      6  C   UNL     1       5.950   4.826  17.818  0.00  0.00    +0.000 A 
ENDROOT
BRANCH   3   7
ATOM      7  C   UNL     1       8.288   8.409  17.481  0.00  0.00    +0.000 C 
ATOM      8  N   UNL     1       8.462   9.149  18.522  0.00  0.00    +0.000 NA
BRANCH   8   9
ATOM      9  N   UNL     1       9.177  10.299  18.421  0.00  0.00    +0.000 N 
ATOM     10  C   UNL     1       9.495  10.948  19.600  0.00  0.00    +0.000 C 
ATOM     11  O   UNL     1       9.234  10.513  20.725  0.00  0.00    +0.000 OA
ATOM     12  H   UNL     1       9.326  10.763  17.527  0.00  0.00    +0.000 HD
BRANCH  10  13
ATOM     13  C   UNL     1      10.302  12.230  19.445  0.00  0.00    +0.000 C 
BRANCH  13  14
ATOM     14  N   UNL     1       9.651  13.295  18.628  0.00  0.00    +0.000 NA
ATOM     15  C   UNL     1       8.566  13.947  19.391  0.00  0.00    +0.000 C 
ATOM     16  C   UNL     1       7.960  15.118  18.611  0.00  0.00    +0.000 C 
ATOM     17  C   UNL     1       9.019  16.157  18.268  0.00  0.00    +0.000 C 
ATOM     18  C   UNL     1      10.177  15.495  17.533  0.00  0.00    +0.000 C 
ATOM     19  C   UNL     1      10.706  14.289  18.308  0.00  0.00    +0.000 C 
ENDBRANCH  13  14
ENDBRANCH  10  13
ENDBRANCH   8   9
ENDBRANCH   3   7
BRANCH   1  20
ATOM     20  O   UNL     1       5.704   4.768  15.430  0.00  0.00    +0.000 OA
BRANCH  20  22
ATOM     21  C   UNL     1       6.029   3.725  13.244  0.00  0.00    +0.000 C 
ATOM     22  C   UNL     1       6.587   4.669  14.297  0.00  0.00    +0.000 C 
ENDBRANCH  20  22
ENDBRANCH   1  20
BRANCH   6  23
ATOM     23  O   UNL     1       5.134   3.702  17.914  0.00  0.00    +0.000 OA
BRANCH  23  24
ATOM     24  C   UNL     1       3.735   4.026  17.868  0.00  0.00    +0.000 C 
BRANCH  24  25
ATOM     25  C   UNL     1       2.844   3.658  19.033  0.00  0.00    +0.000 A 
ATOM     26  C   UNL     1       1.466   3.857  19.072  0.00  0.00    +0.000 A 
ATOM     27  C   UNL     1       0.736   3.459  20.199  0.00  0.00    +0.000 A 
ATOM     28  C   UNL     1       1.372   2.856  21.286  0.00  0.00    +0.000 A 
ATOM     29  C   UNL     1       2.748   2.646  21.255  0.00  0.00    +0.000 A 
ATOM     30  C   UNL     1       3.473   3.043  20.137  0.00  0.00    +0.000 A 
ENDBRANCH  24  25
ENDBRANCH  23  24
ENDBRANCH   6  23
TORSDOF 9
ENDMDL
MODEL 5
REMARK VINA RESULT:      -7.4      1.191      1.647
REMARK  Name = 
REMARK  10 active torsions:
REMARK  status: ('A' for Active; 'I' for Inactive)
REMARK    1  A    between atoms: C_1  and  C_2
REMARK    2  A    between atoms: C_2  and  O_3
REMARK    3  A    between atoms: O_3  and  C_4
REMARK    4  A    between atoms: C_6  and  C_7
REMARK    5  A    between atoms: N_8  and  N_9
REMARK    6  A    between atoms: C_10  and  C_12
REMARK    7  A    between atoms: C_12  and  N_13
REMARK    8  A    between atoms: C_21  and  O_22
REMARK    9  A    between atoms: O_22  and  C_23
REMARK   10  A    between atoms: C_23  and  C_24
REMARK                            x       y       z     vdW  Elec       q    Type
REMARK                         _______ _______ _______ _____ _____    ______ ____
ROOT
ATOM      1  C   UNL     1       5.897   5.811  17.397  0.00  0.00    +0.000 A 
ATOM      2  C   UNL     1       6.447   7.076  17.142  0.00  0.00    +0.000 A 
ATOM      3  C   UNL     1       7.570   7.541  17.838  0.00  0.00    +0.000 A 
ATOM      4  C   UNL     1       8.131   6.769  18.839  0.00  0.00    +0.000 A 
ATOM      5  C   UNL     1       7.551   5.539  19.150  0.00  0.00    +0.000 A 
ATOM      6  C   UNL     1       6.411   5.054  18.469  0.00  0.00    +0.000 A 
ENDROOT
BRANCH   3   7
ATOM      7  C   UNL     1       8.196   8.823  17.454  0.00  0.00    +0.000 C 
ATOM      8  N   UNL     1       8.449   9.680  18.383  0.00  0.00    +0.000 NA
BRANCH   8   9
ATOM      9  N   UNL     1       8.975  10.890  18.059  0.00  0.00    +0.000 N 
ATOM     10  C   UNL     1       9.887  11.435  18.944  0.00  0.00    +0.000 C 
ATOM     11  O   UNL     1      10.300  10.865  19.958  0.00  0.00    +0.000 OA
ATOM     12  H   UNL     1       8.598  11.455  17.302  0.00  0.00    +0.000 HD
BRANCH  10  13
ATOM     13  C   UNL     1      10.459  12.788  18.543  0.00  0.00    +0.000 C 
BRANCH  13  14
ATOM     14  N   UNL     1       9.977  13.946  19.350  0.00  0.00    +0.000 NA
ATOM     15  C   UNL     1       8.642  13.664  19.922  0.00  0.00    +0.000 C 
ATOM     16  C   UNL     1       8.179  14.795  20.845  0.00  0.00    +0.000 C 
ATOM     17  C   UNL     1       9.169  15.018  21.981  0.00  0.00    +0.000 C 
ATOM     18  C   UNL     1      10.563  15.250  21.417  0.00  0.00    +0.000 C 
ATOM     19  C   UNL     1      10.959  14.140  20.446  0.00  0.00    +0.000 C 
ENDBRANCH  13  14
ENDBRANCH  10  13
ENDBRANCH   8   9
ENDBRANCH   3   7
BRANCH   1  20
ATOM     20  O   UNL     1       4.854   5.310  16.659  0.00  0.00    +0.000 OA
BRANCH  20  22
ATOM     21  C   UNL     1       6.169   4.614  14.719  0.00  0.00    +0.000 C 
ATOM     22  C   UNL     1       5.143   4.216  15.768  0.00  0.00    +0.000 C 
ENDBRANCH  20  22
ENDBRANCH   1  20
BRANCH   6  23
ATOM     23  O   UNL     1       5.777   3.867  18.826  0.00  0.00    +0.000 OA
BRANCH  23  24
ATOM     24  C   UNL     1       4.761   4.058  19.825  0.00  0.00    +0.000 C 
BRANCH  24  25
ATOM     25  C   UNL     1       3.351   3.580  19.556  0.00  0.00    +0.000 A 
ATOM     26  C   UNL     1       2.961   2.849  18.437  0.00  0.00    +0.000 A 
ATOM     27  C   UNL     1       1.629   2.441  18.302  0.00  0.00    +0.000 A 
ATOM     28  C   UNL     1       0.682   2.753  19.280  0.00  0.00    +0.000 A 
ATOM     29  C   UNL     1       1.063   3.477  20.406  0.00  0.00    +0.000 A 
ATOM     30  C   UNL     1       2.385   3.883  20.540  0.00  0.00    +0.000 A 
ENDBRANCH  24  25
ENDBRANCH  23  24
ENDBRANCH   6  23
TORSDOF 9
ENDMDL
MODEL 6
REMARK VINA RESULT:      -7.3      6.524      9.114
REMARK  Name = 
REMARK  10 active torsions:
REMARK  status: ('A' for Active; 'I' for Inactive)
REMARK    1  A    between atoms: C_1  and  C_2
REMARK    2  A    between atoms: C_2  and  O_3
REMARK    3  A    between atoms: O_3  and  C_4
REMARK    4  A    between atoms: C_6  and  C_7
REMARK    5  A    between atoms: N_8  and  N_9
REMARK    6  A    between atoms: C_10  and  C_12
REMARK    7  A    between atoms: C_12  and  N_13
REMARK    8  A    between atoms: C_21  and  O_22
REMARK    9  A    between atoms: O_22  and  C_23
REMARK   10  A    between atoms: C_23  and  C_24
REMARK                            x       y       z     vdW  Elec       q    Type
REMARK                         _______ _______ _______ _____ _____    ______ ____
ROOT
ATOM      1  C   UNL     1       1.959   5.200  19.522  0.00  0.00    +0.000 A 
ATOM      2  C   UNL     1       1.590   6.099  20.533  0.00  0.00    +0.000 A 
ATOM      3  C   UNL     1       1.704   7.484  20.359  0.00  0.00    +0.000 A 
ATOM      4  C   UNL     1       2.239   7.992  19.190  0.00  0.00    +0.000 A 
ATOM      5  C   UNL     1       2.675   7.106  18.205  0.00  0.00    +0.000 A 
ATOM      6  C   UNL     1       2.581   5.704  18.362  0.00  0.00    +0.000 A 
ENDROOT
BRANCH   3   7
ATOM      7  C   UNL     1       1.187   8.402  21.396  0.00  0.00    +0.000 C 
ATOM      8  N   UNL     1       0.053   8.979  21.189  0.00  0.00    +0.000 NA
BRANCH   8   9
ATOM      9  N   UNL     1      -0.427   9.868  22.096  0.00  0.00    +0.000 N 
ATOM     10  C   UNL     1      -0.921  11.062  21.605  0.00  0.00    +0.000 C 
ATOM     11  O   UNL     1      -1.019  11.334  20.405  0.00  0.00    +0.000 OA
ATOM     12  H   UNL     1      -0.275   9.751  23.096  0.00  0.00    +0.000 HD
BRANCH  10  13
ATOM     13  C   UNL     1      -1.455  12.030  22.652  0.00  0.00    +0.000 C 
BRANCH  13  14
ATOM     14  N   UNL     1      -2.924  11.954  22.897  0.00  0.00    +0.000 NA
ATOM     15  C   UNL     1      -3.268  12.554  24.203  0.00  0.00    +0.000 C 
ATOM     16  C   UNL     1      -4.784  12.586  24.423  0.00  0.00    +0.000 C 
ATOM     17  C   UNL     1      -5.483  13.368  23.318  0.00  0.00    +0.000 C 
ATOM     18  C   UNL     1      -5.095  12.804  21.958  0.00  0.00    +0.000 C 
ATOM     19  C   UNL     1      -3.578  12.721  21.806  0.00  0.00    +0.000 C 
ENDBRANCH  13  14
ENDBRANCH  10  13
ENDBRANCH   8   9
ENDBRANCH   3   7
BRANCH   1  20
ATOM     20  O   UNL     1       1.767   3.846  19.648  0.00  0.00    +0.000 OA
BRANCH  20  22
ATOM     21  C   UNL     1       2.435   2.715  21.710  0.00  0.00    +0.000 C 
ATOM     22  C   UNL     1       1.305   3.362  20.923  0.00  0.00    +0.000 C 
ENDBRANCH  20  22
ENDBRANCH   1  20
BRANCH   6  23
ATOM     23  O   UNL     1       3.087   4.811  17.421  0.00  0.00    +0.000 OA
BRANCH  23  24
ATOM     24  C   UNL     1       4.305   4.181  17.851  0.00  0.00    +0.000 C 
BRANCH  24  25
ATOM     25  C   UNL     1       5.539   5.024  18.086  0.00  0.00    +0.000 A 
ATOM     26  C   UNL     1       6.299   5.009  19.253  0.00  0.00    +0.000 A 
ATOM     27  C   UNL     1       7.437   5.819  19.353  0.00  0.00    +0.000 A 
ATOM     28  C   UNL     1       7.826   6.639  18.293  0.00  0.00    +0.000 A 
ATOM     29  C   UNL     1       7.078   6.656  17.118  0.00  0.00    +0.000 A 
ATOM     30  C   UNL     1       5.948   5.854  17.020  0.00  0.00    +0.000 A 
ENDBRANCH  24  25
ENDBRANCH  23  24
ENDBRANCH   6  23
TORSDOF 9
ENDMDL
MODEL 7
REMARK VINA RESULT:      -7.3      6.037      8.891
REMARK  Name = 
REMARK  10 active torsions:
REMARK  status: ('A' for Active; 'I' for Inactive)
REMARK    1  A    between atoms: C_1  and  C_2
REMARK    2  A    between atoms: C_2  and  O_3
REMARK    3  A    between atoms: O_3  and  C_4
REMARK    4  A    between atoms: C_6  and  C_7
REMARK    5  A    between atoms: N_8  and  N_9
REMARK    6  A    between atoms: C_10  and  C_12
REMARK    7  A    between atoms: C_12  and  N_13
REMARK    8  A    between atoms: C_21  and  O_22
REMARK    9  A    between atoms: O_22  and  C_23
REMARK   10  A    between atoms: C_23  and  C_24
REMARK                            x       y       z     vdW  Elec       q    Type
REMARK                         _______ _______ _______ _____ _____    ______ ____
ROOT
ATOM      1  C   UNL     1       2.747   5.190  17.852  0.00  0.00    +0.000 A 
ATOM      2  C   UNL     1       2.163   6.364  18.348  0.00  0.00    +0.000 A 
ATOM      3  C   UNL     1       2.718   7.624  18.093  0.00  0.00    +0.000 A 
ATOM      4  C   UNL     1       3.900   7.727  17.381  0.00  0.00    +0.000 A 
ATOM      5  C   UNL     1       4.529   6.561  16.943  0.00  0.00    +0.000 A 
ATOM      6  C   UNL     1       3.992   5.278  17.198  0.00  0.00    +0.000 A 
ENDROOT
BRANCH   3   7
ATOM      7  C   UNL     1       2.006   8.845  18.523  0.00  0.00    +0.000 C 
ATOM      8  N   UNL     1       1.014   9.255  17.810  0.00  0.00    +0.000 NA
BRANCH   8   9
ATOM      9  N   UNL     1       0.370  10.403  18.147  0.00  0.00    +0.000 N 
ATOM     10  C   UNL     1      -0.948  10.525  17.746  0.00  0.00    +0.000 C 
ATOM     11  O   UNL     1      -1.586   9.638  17.173  0.00  0.00    +0.000 OA
ATOM     12  H   UNL     1       0.868  11.209  18.519  0.00  0.00    +0.000 HD
BRANCH  10  13
ATOM     13  C   UNL     1      -1.636  11.822  18.148  0.00  0.00    +0.000 C 
BRANCH  13  14
ATOM     14  N   UNL     1      -2.807  11.663  19.058  0.00  0.00    +0.000 NA
ATOM     15  C   UNL     1      -2.835  12.745  20.066  0.00  0.00    +0.000 C 
ATOM     16  C   UNL     1      -4.091  12.663  20.939  0.00  0.00    +0.000 C 
ATOM     17  C   UNL     1      -5.355  12.740  20.093  0.00  0.00    +0.000 C 
ATOM     18  C   UNL     1      -5.320  11.672  19.008  0.00  0.00    +0.000 C 
ATOM     19  C   UNL     1      -4.021  11.741  18.207  0.00  0.00    +0.000 C 
ENDBRANCH  13  14
ENDBRANCH  10  13
ENDBRANCH   8   9
ENDBRANCH   3   7
BRANCH   1  20
ATOM     20  O   UNL     1       2.161   3.960  18.019  0.00  0.00    +0.000 OA
BRANCH  20  22
ATOM     21  C   UNL     1       1.006   3.241  20.051  0.00  0.00    +0.000 C 
ATOM     22  C   UNL     1       2.326   3.319  19.299  0.00  0.00    +0.000 C 
ENDBRANCH  20  22
ENDBRANCH   1  20
BRANCH   6  23
ATOM     23  O   UNL     1       4.653   4.107  16.836  0.00  0.00    +0.000 OA
BRANCH  23  24
ATOM     24  C   UNL     1       5.988   4.346  16.362  0.00  0.00    +0.000 C 
BRANCH  24  25
ATOM     25  C   UNL     1       6.281   4.263  14.881  0.00  0.00    +0.000 A 
ATOM     26  C   UNL     1       5.532   3.529  13.964  0.00  0.00    +0.000 A 
ATOM     27  C   UNL     1       5.885   3.541  12.609  0.00  0.00    +0.000 A 
ATOM     28  C   UNL     1       6.976   4.286  12.160  0.00  0.00    +0.000 A 
ATOM     29  C   UNL     1       7.728   5.030  13.067  0.00  0.00    +0.000 A 
ATOM     30  C   UNL     1       7.379   5.017  14.412  0.00  0.00    +0.000 A 
ENDBRANCH  24  25
ENDBRANCH  23  24
ENDBRANCH   6  23
TORSDOF 9
ENDMDL
MODEL 8
REMARK VINA RESULT:      -7.2      6.330      8.600
REMARK  Name = 
REMARK  10 active torsions:
REMARK  status: ('A' for Active; 'I' for Inactive)
REMARK    1  A    between atoms: C_1  and  C_2
REMARK    2  A    between atoms: C_2  and  O_3
REMARK    3  A    between atoms: O_3  and  C_4
REMARK    4  A    between atoms: C_6  and  C_7
REMARK    5  A    between atoms: N_8  and  N_9
REMARK    6  A    between atoms: C_10  and  C_12
REMARK    7  A    between atoms: C_12  and  N_13
REMARK    8  A    between atoms: C_21  and  O_22
REMARK    9  A    between atoms: O_22  and  C_23
REMARK   10  A    between atoms: C_23  and  C_24
REMARK                            x       y       z     vdW  Elec       q    Type
REMARK                         _______ _______ _______ _____ _____    ______ ____
ROOT
ATOM      1  C   UNL     1       2.267   4.859  19.353  0.00  0.00    +0.000 A 
ATOM      2  C   UNL     1       1.817   5.744  20.343  0.00  0.00    +0.000 A 
ATOM      3  C   UNL     1       1.810   7.130  20.139  0.00  0.00    +0.000 A 
ATOM      4  C   UNL     1       2.303   7.657  18.959  0.00  0.00    +0.000 A 
ATOM      5  C   UNL     1       2.819   6.792  17.995  0.00  0.00    +0.000 A 
ATOM      6  C   UNL     1       2.847   5.390  18.184  0.00  0.00    +0.000 A 
ENDROOT
BRANCH   3   7
ATOM      7  C   UNL     1       1.211   8.021  21.154  0.00  0.00    +0.000 C 
ATOM      8  N   UNL     1       1.200   9.289  20.922  0.00  0.00    +0.000 NA
BRANCH   8   9
ATOM      9  N   UNL     1       0.705  10.142  21.856  0.00  0.00    +0.000 N 
ATOM     10  C   UNL     1      -0.383  10.913  21.490  0.00  0.00    +0.000 C 
ATOM     11  O   UNL     1      -0.968  10.822  20.407  0.00  0.00    +0.000 OA
ATOM     12  H   UNL     1       1.204  10.341  22.721  0.00  0.00    +0.000 HD
BRANCH  10  13
ATOM     13  C   UNL     1      -0.912  11.851  22.566  0.00  0.00    +0.000 C 
BRANCH  13  14
ATOM     14  N   UNL     1      -2.257  12.436  22.294  0.00  0.00    +0.000 NA
ATOM     15  C   UNL     1      -3.134  12.303  23.477  0.00  0.00    +0.000 C 
ATOM     16  C   UNL     1      -4.481  12.997  23.255  0.00  0.00    +0.000 C 
ATOM     17  C   UNL     1      -4.293  14.475  22.939  0.00  0.00    +0.000 C 
ATOM     18  C   UNL     1      -3.344  14.638  21.760  0.00  0.00    +0.000 C 
ATOM     19  C   UNL     1      -2.042  13.872  21.989  0.00  0.00    +0.000 C 
ENDBRANCH  13  14
ENDBRANCH  10  13
ENDBRANCH   8   9
ENDBRANCH   3   7
BRANCH   1  20
ATOM     20  O   UNL     1       2.193   3.497  19.508  0.00  0.00    +0.000 OA
BRANCH  20  22
ATOM     21  C   UNL     1       1.592   2.540  21.675  0.00  0.00    +0.000 C 
ATOM     22  C   UNL     1       2.714   2.944  20.732  0.00  0.00    +0.000 C 
ENDBRANCH  20  22
ENDBRANCH   1  20
BRANCH   6  23
ATOM     23  O   UNL     1       3.433   4.525  17.264  0.00  0.00    +0.000 OA
BRANCH  23  24
ATOM     24  C   UNL     1       4.725   4.056  17.685  0.00  0.00    +0.000 C 
BRANCH  24  25
ATOM     25  C   UNL     1       5.858   5.043  17.854  0.00  0.00    +0.000 A 
ATOM     26  C   UNL     1       6.231   5.993  16.906  0.00  0.00    +0.000 A 
ATOM     27  C   UNL     1       7.287   6.871  17.179  0.00  0.00    +0.000 A 
ATOM     28  C   UNL     1       7.970   6.813  18.395  0.00  0.00    +0.000 A 
ATOM     29  C   UNL     1       7.600   5.873  19.354  0.00  0.00    +0.000 A 
ATOM     30  C   UNL     1       6.553   5.000  19.082  0.00  0.00    +0.000 A 
ENDBRANCH  24  25
ENDBRANCH  23  24
ENDBRANCH   6  23
TORSDOF 9
ENDMDL
MODEL 9
REMARK VINA RESULT:      -7.2      5.765      7.409
REMARK  Name = 
REMARK  10 active torsions:
REMARK  status: ('A' for Active; 'I' for Inactive)
REMARK    1  A    between atoms: C_1  and  C_2
REMARK    2  A    between atoms: C_2  and  O_3
REMARK    3  A    between atoms: O_3  and  C_4
REMARK    4  A    between atoms: C_6  and  C_7
REMARK    5  A    between atoms: N_8  and  N_9
REMARK    6  A    between atoms: C_10  and  C_12
REMARK    7  A    between atoms: C_12  and  N_13
REMARK    8  A    between atoms: C_21  and  O_22
REMARK    9  A    between atoms: O_22  and  C_23
REMARK   10  A    between atoms: C_23  and  C_24
REMARK                            x       y       z     vdW  Elec       q    Type
REMARK                         _______ _______ _______ _____ _____    ______ ____
ROOT
ATOM      1  C   UNL     1       4.788   4.967  17.601  0.00  0.00    +0.000 A 
ATOM      2  C   UNL     1       3.926   5.973  17.143  0.00  0.00    +0.000 A 
ATOM      3  C   UNL     1       3.144   6.726  18.028  0.00  0.00    +0.000 A 
ATOM      4  C   UNL     1       3.170   6.448  19.383  0.00  0.00    +0.000 A 
ATOM      5  C   UNL     1       3.971   5.403  19.842  0.00  0.00    +0.000 A 
ATOM      6  C   UNL     1       4.761   4.622  18.967  0.00  0.00    +0.000 A 
ENDROOT
BRANCH   3   7
ATOM      7  C   UNL     1       2.344   7.861  17.521  0.00  0.00    +0.000 C 
ATOM      8  N   UNL     1       1.903   8.724  18.372  0.00  0.00    +0.000 NA
BRANCH   8   9
ATOM      9  N   UNL     1       1.121   9.750  17.948  0.00  0.00    +0.000 N 
ATOM     10  C   UNL     1       0.074  10.124  18.770  0.00  0.00    +0.000 C 
ATOM     11  O   UNL     1      -0.145   9.637  19.883  0.00  0.00    +0.000 OA
ATOM     12  H   UNL     1       1.181  10.116  16.999  0.00  0.00    +0.000 HD
BRANCH  10  13
ATOM     13  C   UNL     1      -0.775  11.281  18.263  0.00  0.00    +0.000 C 
BRANCH  13  14
ATOM     14  N   UNL     1      -2.244  11.024  18.230  0.00  0.00    +0.000 NA
ATOM     15  C   UNL     1      -2.961  11.976  19.105  0.00  0.00    +0.000 C 
ATOM     16  C   UNL     1      -4.479  11.800  18.998  0.00  0.00    +0.000 C 
ATOM     17  C   UNL     1      -4.954  11.989  17.564  0.00  0.00    +0.000 C 
ATOM     18  C   UNL     1      -4.186  11.060  16.635  0.00  0.00    +0.000 C 
ATOM     19  C   UNL     1      -2.678  11.214  16.823  0.00  0.00    +0.000 C 
ENDBRANCH  13  14
ENDBRANCH  10  13
ENDBRANCH   8   9
ENDBRANCH   3   7
BRANCH   1  20
ATOM     20  O   UNL     1       5.626   4.287  16.753  0.00  0.00    +0.000 OA
BRANCH  20  22
ATOM     21  C   UNL     1       7.026   4.940  14.858  0.00  0.00    +0.000 C 
ATOM     22  C   UNL     1       6.850   4.943  16.368  0.00  0.00    +0.000 C 
ENDBRANCH  20  22
ENDBRANCH   1  20
BRANCH   6  23
ATOM     23  O   UNL     1       5.500   3.526  19.405  0.00  0.00    +0.000 OA
BRANCH  23  24
ATOM     24  C   UNL     1       4.679   2.493  19.974  0.00  0.00    +0.000 C 
BRANCH  24  25
ATOM     25  C   UNL     1       3.173   2.631  19.936  0.00  0.00    +0.000 A 
ATOM     26  C   UNL     1       2.381   2.973  21.030  0.00  0.00    +0.000 A 
ATOM     27  C   UNL     1       0.994   3.092  20.874  0.00  0.00    +0.000 A 
ATOM     28  C   UNL     1       0.393   2.878  19.633  0.00  0.00    +0.000 A 
ATOM     29  C   UNL     1       1.176   2.543  18.531  0.00  0.00    +0.000 A 
ATOM     30  C   UNL     1       2.552   2.423  18.686  0.00  0.00    +0.000 A 
ENDBRANCH  24  25
ENDBRANCH  23  24
ENDBRANCH   6  23
TORSDOF 9
ENDMDL
