MODEL 1
REMARK VINA RESULT:      -8.4      0.000      0.000
REMARK  Name = 
REMARK  4 active torsions:
REMARK  status: ('A' for Active; 'I' for Inactive)
REMARK    1  A    between atoms: C_1  and  O_2
REMARK    2  A    between atoms: O_2  and  C_3
REMARK    3  A    between atoms: C_3  and  C_5
REMARK    4  A    between atoms: C_15  and  C_16
REMARK                            x       y       z     vdW  Elec       q    Type
REMARK                         _______ _______ _______ _____ _____    ______ ____
ROOT
ATOM      1  C   UNL     1       4.221   3.445  17.631  0.00  0.00    +0.000 C 
ATOM      2  C   UNL     1       4.356   4.291  19.007  0.00  0.00    +0.000 C 
ATOM      3  C   UNL     1       5.835   4.742  19.230  0.00  0.00    +0.000 C 
ATOM      4  C   UNL     1       6.348   5.070  17.821  0.00  0.00    +0.000 C 
ATOM      5  C   UNL     1       7.213   4.654  16.645  0.00  0.00    +0.000 C 
ATOM      6  C   UNL     1       6.116   4.029  15.701  0.00  0.00    +0.000 C 
ATOM      7  C   UNL     1       4.727   4.313  16.384  0.00  0.00    +0.000 C 
ATOM      8  N   UNL     1       5.209   5.566  16.967  0.00  0.00    +0.000 NA
ATOM      9  C   UNL     1       4.121   6.303  17.589  0.00  0.00    +0.000 C 
ATOM     10  C   UNL     1       3.663   5.627  18.846  0.00  0.00    +0.000 C 
ATOM     11  C   UNL     1       2.855   6.221  19.755  0.00  0.00    +0.000 C 
ENDROOT
BRANCH  11  12
ATOM     12  C   UNL     1       2.264   7.531  19.454  0.00  0.00    +0.000 A 
ATOM     13  C   UNL     1       1.600   8.207  20.481  0.00  0.00    +0.000 A 
ATOM     14  C   UNL     1       0.826   9.334  20.195  0.00  0.00    +0.000 A 
ATOM     15  C   UNL     1       0.718   9.786  18.882  0.00  0.00    +0.000 A 
ATOM     16 CL   UNL     1      -0.297  11.129  18.525  0.00  0.00    +0.000 Cl
ATOM     17  C   UNL     1       1.402   9.139  17.854  0.00  0.00    +0.000 A 
ATOM     18  C   UNL     1       2.184   8.017  18.140  0.00  0.00    +0.000 A 
ENDBRANCH  11  12
BRANCH   1  19
ATOM     19  C   UNL     1       2.798   2.904  17.557  0.00  0.00    +0.000 C 
ATOM     20  O   UNL     1       1.951   3.367  16.796  0.00  0.00    +0.000 OA
BRANCH  19  22
ATOM     21  C   UNL     1       1.390   2.132  19.284  0.00  0.00    +0.000 C 
ATOM     22  O   UNL     1       2.543   1.938  18.477  0.00  0.00    +0.000 OA
ENDBRANCH  19  22
ENDBRANCH   1  19
TORSDOF 3
ENDMDL
MODEL 2
REMARK VINA RESULT:      -8.3      2.263      3.770
REMARK  Name = 
REMARK  4 active torsions:
REMARK  status: ('A' for Active; 'I' for Inactive)
REMARK    1  A    between atoms: C_1  and  O_2
REMARK    2  A    between atoms: O_2  and  C_3
REMARK    3  A    between atoms: C_3  and  C_5
REMARK    4  A    between atoms: C_15  and  C_16
REMARK                            x       y       z     vdW  Elec       q    Type
REMARK                         _______ _______ _______ _____ _____    ______ ____
ROOT
ATOM      1  C   UNL     1       5.477   4.322  18.478  0.00  0.00    +0.000 C 
ATOM      2  C   UNL     1       4.518   5.037  17.384  0.00  0.00    +0.000 C 
ATOM      3  C   UNL     1       3.554   3.992  16.735  0.00  0.00    +0.000 C 
ATOM      4  C   UNL     1       3.194   3.043  17.887  0.00  0.00    +0.000 C 
ATOM      5  C   UNL     1       3.381   1.679  18.528  0.00  0.00    +0.000 C 
ATOM      6  C   UNL     1       4.436   2.038  19.642  0.00  0.00    +0.000 C 
ATOM      7  C   UNL     1       4.602   3.603  19.609  0.00  0.00    +0.000 C 
ATOM      8  N   UNL     1       3.212   3.796  19.193  0.00  0.00    +0.000 NA
ATOM      9  C   UNL     1       2.857   5.205  19.207  0.00  0.00    +0.000 C 
ATOM     10  C   UNL     1       3.534   5.943  18.093  0.00  0.00    +0.000 C 
ATOM     11  C   UNL     1       3.186   7.195  17.713  0.00  0.00    +0.000 C 
ENDROOT
BRANCH  11  12
ATOM     12  C   UNL     1       2.204   7.946  18.503  0.00  0.00    +0.000 A 
ATOM     13  C   UNL     1       1.578   9.044  17.906  0.00  0.00    +0.000 A 
ATOM     14  C   UNL     1       0.818   9.926  18.679  0.00  0.00    +0.000 A 
ATOM     15  C   UNL     1       0.684   9.709  20.048  0.00  0.00    +0.000 A 
ATOM     16 CL   UNL     1      -0.189  10.839  21.008  0.00  0.00    +0.000 Cl
ATOM     17  C   UNL     1       1.278   8.600  20.649  0.00  0.00    +0.000 A 
ATOM     18  C   UNL     1       2.030   7.711  19.876  0.00  0.00    +0.000 A 
ENDBRANCH  11  12
BRANCH   1  19
ATOM     19  C   UNL     1       6.492   5.357  18.951  0.00  0.00    +0.000 C 
ATOM     20  O   UNL     1       7.005   5.321  20.067  0.00  0.00    +0.000 OA
BRANCH  19  22
ATOM     21  C   UNL     1       7.896   7.096  18.199  0.00  0.00    +0.000 C 
ATOM     22  O   UNL     1       6.688   6.361  18.058  0.00  0.00    +0.000 OA
ENDBRANCH  19  22
ENDBRANCH   1  19
TORSDOF 3
ENDMDL
MODEL 3
REMARK VINA RESULT:      -8.0      3.563      5.334
REMARK  Name = 
REMARK  4 active torsions:
REMARK  status: ('A' for Active; 'I' for Inactive)
REMARK    1  A    between atoms: C_1  and  O_2
REMARK    2  A    between atoms: O_2  and  C_3
REMARK    3  A    between atoms: C_3  and  C_5
REMARK    4  A    between atoms: C_15  and  C_16
REMARK                            x       y       z     vdW  Elec       q    Type
REMARK                         _______ _______ _______ _____ _____    ______ ____
ROOT
ATOM      1  C   UNL     1       3.394   2.246  19.675  0.00  0.00    +0.000 C 
ATOM      2  C   UNL     1       3.526   2.867  18.184  0.00  0.00    +0.000 C 
ATOM      3  C   UNL     1       2.222   3.635  17.792  0.00  0.00    +0.000 C 
ATOM      4  C   UNL     1       1.768   4.302  19.098  0.00  0.00    +0.000 C 
ATOM      5  C   UNL     1       0.789   4.311  20.258  0.00  0.00    +0.000 C 
ATOM      6  C   UNL     1       1.656   3.589  21.359  0.00  0.00    +0.000 C 
ATOM      7  C   UNL     1       3.092   3.402  20.742  0.00  0.00    +0.000 C 
ATOM      8  N   UNL     1       2.970   4.626  19.949  0.00  0.00    +0.000 NA
ATOM      9  C   UNL     1       4.231   4.956  19.305  0.00  0.00    +0.000 C 
ATOM     10  C   UNL     1       4.536   3.995  18.196  0.00  0.00    +0.000 C 
ATOM     11  C   UNL     1       5.499   4.213  17.270  0.00  0.00    +0.000 C 
ENDROOT
BRANCH  11  12
ATOM     12  C   UNL     1       6.400   5.363  17.417  0.00  0.00    +0.000 A 
ATOM     13  C   UNL     1       7.403   5.296  18.389  0.00  0.00    +0.000 A 
ATOM     14  C   UNL     1       8.131   6.439  18.727  0.00  0.00    +0.000 A 
ATOM     15  C   UNL     1       7.856   7.649  18.094  0.00  0.00    +0.000 A 
ATOM     16 CL   UNL     1       8.703   9.070  18.569  0.00  0.00    +0.000 Cl
ATOM     17  C   UNL     1       6.880   7.721  17.101  0.00  0.00    +0.000 A 
ATOM     18  C   UNL     1       6.158   6.576  16.754  0.00  0.00    +0.000 A 
ENDBRANCH  11  12
BRANCH   1  19
ATOM     19  C   UNL     1       4.624   1.384  19.928  0.00  0.00    +0.000 C 
ATOM     20  O   UNL     1       4.946   0.454  19.191  0.00  0.00    +0.000 OA
BRANCH  19  22
ATOM     21  C   UNL     1       5.782   0.583  21.820  0.00  0.00    +0.000 C 
ATOM     22  O   UNL     1       5.259   1.684  21.091  0.00  0.00    +0.000 OA
ENDBRANCH  19  22
ENDBRANCH   1  19
TORSDOF 3
ENDMDL
MODEL 4
REMARK VINA RESULT:      -8.0      2.202      3.654
REMARK  Name = 
REMARK  4 active torsions:
REMARK  status: ('A' for Active; 'I' for Inactive)
REMARK    1  A    between atoms: C_1  and  O_2
REMARK    2  A    between atoms: O_2  and  C_3
REMARK    3  A    between atoms: C_3  and  C_5
REMARK    4  A    between atoms: C_15  and  C_16
REMARK                            x       y       z     vdW  Elec       q    Type
REMARK                         _______ _______ _______ _____ _____    ______ ____
ROOT
ATOM      1  C   UNL     1       5.422   4.191  18.355  0.00  0.00    +0.000 C 
ATOM      2  C   UNL     1       4.444   4.927  17.293  0.00  0.00    +0.000 C 
ATOM      3  C   UNL     1       3.328   3.949  16.805  0.00  0.00    +0.000 C 
ATOM      4  C   UNL     1       2.981   3.120  18.050  0.00  0.00    +0.000 C 
ATOM      5  C   UNL     1       3.089   1.789  18.773  0.00  0.00    +0.000 C 
ATOM      6  C   UNL     1       4.270   2.108  19.767  0.00  0.00    +0.000 C 
ATOM      7  C   UNL     1       4.585   3.642  19.604  0.00  0.00    +0.000 C 
ATOM      8  N   UNL     1       3.189   3.951  19.290  0.00  0.00    +0.000 NA
ATOM      9  C   UNL     1       2.976   5.388  19.229  0.00  0.00    +0.000 C 
ATOM     10  C   UNL     1       3.621   5.976  18.010  0.00  0.00    +0.000 C 
ATOM     11  C   UNL     1       3.365   7.229  17.568  0.00  0.00    +0.000 C 
ENDROOT
BRANCH  11  12
ATOM     12  C   UNL     1       2.535   8.129  18.378  0.00  0.00    +0.000 A 
ATOM     13  C   UNL     1       2.235   7.750  19.689  0.00  0.00    +0.000 A 
ATOM     14  C   UNL     1       1.269   8.446  20.419  0.00  0.00    +0.000 A 
ATOM     15  C   UNL     1       0.602   9.522  19.838  0.00  0.00    +0.000 A 
ATOM     16 CL   UNL     1      -0.641  10.327  20.713  0.00  0.00    +0.000 Cl
ATOM     17  C   UNL     1       0.915   9.930  18.542  0.00  0.00    +0.000 A 
ATOM     18  C   UNL     1       1.889   9.240  17.814  0.00  0.00    +0.000 A 
ENDBRANCH  11  12
BRANCH   1  19
ATOM     19  C   UNL     1       6.571   5.143  18.664  0.00  0.00    +0.000 C 
ATOM     20  O   UNL     1       6.909   5.423  19.812  0.00  0.00    +0.000 OA
BRANCH  19  22
ATOM     21  C   UNL     1       7.466   7.085  17.670  0.00  0.00    +0.000 C 
ATOM     22  O   UNL     1       7.106   5.715  17.555  0.00  0.00    +0.000 OA
ENDBRANCH  19  22
ENDBRANCH   1  19
TORSDOF 3
ENDMDL
MODEL 5
REMARK VINA RESULT:      -8.0      0.378      1.094
REMARK  Name = 
REMARK  4 active torsions:
REMARK  status: ('A' for Active; 'I' for Inactive)
REMARK    1  A    between atoms: C_1  and  O_2
REMARK    2  A    between atoms: O_2  and  C_3
REMARK    3  A    between atoms: C_3  and  C_5
REMARK    4  A    between atoms: C_15  and  C_16
REMARK                            x       y       z     vdW  Elec       q    Type
REMARK                         _______ _______ _______ _____ _____    ______ ____
ROOT
ATOM      1  C   UNL     1       4.394   3.426  17.751  0.00  0.00    +0.000 C 
ATOM      2  C   UNL     1       4.558   4.376  19.053  0.00  0.00    +0.000 C 
ATOM      3  C   UNL     1       5.990   4.998  19.101  0.00  0.00    +0.000 C 
ATOM      4  C   UNL     1       6.331   5.279  17.631  0.00  0.00    +0.000 C 
ATOM      5  C   UNL     1       7.125   4.876  16.402  0.00  0.00    +0.000 C 
ATOM      6  C   UNL     1       6.025   4.072  15.611  0.00  0.00    +0.000 C 
ATOM      7  C   UNL     1       4.682   4.253  16.410  0.00  0.00    +0.000 C 
ATOM      8  N   UNL     1       5.070   5.589  16.866  0.00  0.00    +0.000 NA
ATOM      9  C   UNL     1       3.967   6.246  17.547  0.00  0.00    +0.000 C 
ATOM     10  C   UNL     1       3.706   5.616  18.882  0.00  0.00    +0.000 C 
ATOM     11  C   UNL     1       2.922   6.183  19.829  0.00  0.00    +0.000 C 
ENDROOT
BRANCH  11  12
ATOM     12  C   UNL     1       2.161   7.397  19.510  0.00  0.00    +0.000 A 
ATOM     13  C   UNL     1       2.335   7.973  18.248  0.00  0.00    +0.000 A 
ATOM     14  C   UNL     1       1.822   9.243  17.979  0.00  0.00    +0.000 A 
ATOM     15  C   UNL     1       1.134   9.938  18.971  0.00  0.00    +0.000 A 
ATOM     16 CL   UNL     1       0.571  11.534  18.659  0.00  0.00    +0.000 Cl
ATOM     17  C   UNL     1       0.927   9.361  20.223  0.00  0.00    +0.000 A 
ATOM     18  C   UNL     1       1.432   8.086  20.491  0.00  0.00    +0.000 A 
ENDBRANCH  11  12
BRANCH   1  19
ATOM     19  C   UNL     1       3.041   2.732  17.851  0.00  0.00    +0.000 C 
ATOM     20  O   UNL     1       2.164   2.862  16.999  0.00  0.00    +0.000 OA
BRANCH  19  22
ATOM     21  C   UNL     1       1.652   2.268  19.699  0.00  0.00    +0.000 C 
ATOM     22  O   UNL     1       2.875   2.046  19.011  0.00  0.00    +0.000 OA
ENDBRANCH  19  22
ENDBRANCH   1  19
TORSDOF 3
ENDMDL
MODEL 6
REMARK VINA RESULT:      -7.8      2.026      3.728
REMARK  Name = 
REMARK  4 active torsions:
REMARK  status: ('A' for Active; 'I' for Inactive)
REMARK    1  A    between atoms: C_1  and  O_2
REMARK    2  A    between atoms: O_2  and  C_3
REMARK    3  A    between atoms: C_3  and  C_5
REMARK    4  A    between atoms: C_15  and  C_16
REMARK                            x       y       z     vdW  Elec       q    Type
REMARK                         _______ _______ _______ _____ _____    ______ ____
ROOT
ATOM      1  C   UNL     1       4.307   4.074  18.666  0.00  0.00    +0.000 C 
ATOM      2  C   UNL     1       3.312   4.856  17.653  0.00  0.00    +0.000 C 
ATOM      3  C   UNL     1       2.005   4.031  17.424  0.00  0.00    +0.000 C 
ATOM      4  C   UNL     1       1.714   3.393  18.790  0.00  0.00    +0.000 C 
ATOM      5  C   UNL     1       1.722   2.139  19.645  0.00  0.00    +0.000 C 
ATOM      6  C   UNL     1       3.063   2.354  20.443  0.00  0.00    +0.000 C 
ATOM      7  C   UNL     1       3.579   3.792  20.065  0.00  0.00    +0.000 C 
ATOM      8  N   UNL     1       2.215   4.294  19.890  0.00  0.00    +0.000 NA
ATOM      9  C   UNL     1       2.213   5.734  19.687  0.00  0.00    +0.000 C 
ATOM     10  C   UNL     1       2.763   6.089  18.339  0.00  0.00    +0.000 C 
ATOM     11  C   UNL     1       2.638   7.319  17.788  0.00  0.00    +0.000 C 
ENDROOT
BRANCH  11  12
ATOM     12  C   UNL     1       2.073   8.416  18.583  0.00  0.00    +0.000 A 
ATOM     13  C   UNL     1       1.790   8.178  19.930  0.00  0.00    +0.000 A 
ATOM     14  C   UNL     1       1.044   9.101  20.666  0.00  0.00    +0.000 A 
ATOM     15  C   UNL     1       0.581  10.263  20.054  0.00  0.00    +0.000 A 
ATOM     16 CL   UNL     1      -0.403  11.361  20.943  0.00  0.00    +0.000 Cl
ATOM     17  C   UNL     1       0.883  10.528  18.719  0.00  0.00    +0.000 A 
ATOM     18  C   UNL     1       1.639   9.609  17.984  0.00  0.00    +0.000 A 
ENDBRANCH  11  12
BRANCH   1  19
ATOM     19  C   UNL     1       5.617   4.850  18.720  0.00  0.00    +0.000 C 
ATOM     20  O   UNL     1       6.159   5.166  19.777  0.00  0.00    +0.000 OA
BRANCH  19  22
ATOM     21  C   UNL     1       7.249   4.606  17.035  0.00  0.00    +0.000 C 
ATOM     22  O   UNL     1       6.062   5.236  17.496  0.00  0.00    +0.000 OA
ENDBRANCH  19  22
ENDBRANCH   1  19
TORSDOF 3
ENDMDL
MODEL 7
REMARK VINA RESULT:      -7.7      2.339      3.801
REMARK  Name = 
REMARK  4 active torsions:
REMARK  status: ('A' for Active; 'I' for Inactive)
REMARK    1  A    between atoms: C_1  and  O_2
REMARK    2  A    between atoms: O_2  and  C_3
REMARK    3  A    between atoms: C_3  and  C_5
REMARK    4  A    between atoms: C_15  and  C_16
REMARK                            x       y       z     vdW  Elec       q    Type
REMARK                         _______ _______ _______ _____ _____    ______ ____
ROOT
ATOM      1  C   UNL     1       4.287   4.426  18.503  0.00  0.00    +0.000 C 
ATOM      2  C   UNL     1       3.107   5.229  17.735  0.00  0.00    +0.000 C 
ATOM      3  C   UNL     1       1.853   4.315  17.550  0.00  0.00    +0.000 C 
ATOM      4  C   UNL     1       1.797   3.482  18.838  0.00  0.00    +0.000 C 
ATOM      5  C   UNL     1       2.020   2.135  19.502  0.00  0.00    +0.000 C 
ATOM      6  C   UNL     1       3.432   2.377  20.157  0.00  0.00    +0.000 C 
ATOM      7  C   UNL     1       3.774   3.896  19.925  0.00  0.00    +0.000 C 
ATOM      8  N   UNL     1       2.363   4.279  19.985  0.00  0.00    +0.000 NA
ATOM      9  C   UNL     1       2.216   5.725  19.988  0.00  0.00    +0.000 C 
ATOM     10  C   UNL     1       2.553   6.303  18.647  0.00  0.00    +0.000 C 
ATOM     11  C   UNL     1       2.257   7.575  18.292  0.00  0.00    +0.000 C 
ENDROOT
BRANCH  11  12
ATOM     12  C   UNL     1       1.713   8.500  19.294  0.00  0.00    +0.000 A 
ATOM     13  C   UNL     1       1.691   8.089  20.629  0.00  0.00    +0.000 A 
ATOM     14  C   UNL     1       0.979   8.824  21.580  0.00  0.00    +0.000 A 
ATOM     15  C   UNL     1       0.290   9.972  21.195  0.00  0.00    +0.000 A 
ATOM     16 CL   UNL     1      -0.647  10.832  22.354  0.00  0.00    +0.000 Cl
ATOM     17  C   UNL     1       0.331  10.410  19.872  0.00  0.00    +0.000 A 
ATOM     18  C   UNL     1       1.051   9.681  18.922  0.00  0.00    +0.000 A 
ENDBRANCH  11  12
BRANCH   1  19
ATOM     19  C   UNL     1       5.525   5.315  18.509  0.00  0.00    +0.000 C 
ATOM     20  O   UNL     1       5.838   6.021  17.553  0.00  0.00    +0.000 OA
BRANCH  19  22
ATOM     21  C   UNL     1       7.615   5.660  19.544  0.00  0.00    +0.000 C 
ATOM     22  O   UNL     1       6.284   5.169  19.625  0.00  0.00    +0.000 OA
ENDBRANCH  19  22
ENDBRANCH   1  19
TORSDOF 3
ENDMDL
MODEL 8
REMARK VINA RESULT:      -7.7      3.677      5.363
REMARK  Name = 
REMARK  4 active torsions:
REMARK  status: ('A' for Active; 'I' for Inactive)
REMARK    1  A    between atoms: C_1  and  O_2
REMARK    2  A    between atoms: O_2  and  C_3
REMARK    3  A    between atoms: C_3  and  C_5
REMARK    4  A    between atoms: C_15  and  C_16
REMARK                            x       y       z     vdW  Elec       q    Type
REMARK                         _______ _______ _______ _____ _____    ______ ____
ROOT
ATOM      1  C   UNL     1       3.397   2.032  19.666  0.00  0.00    +0.000 C 
ATOM      2  C   UNL     1       3.577   2.757  18.228  0.00  0.00    +0.000 C 
ATOM      3  C   UNL     1       2.226   3.384  17.756  0.00  0.00    +0.000 C 
ATOM      4  C   UNL     1       1.580   3.907  19.047  0.00  0.00    +0.000 C 
ATOM      5  C   UNL     1       0.512   3.724  20.109  0.00  0.00    +0.000 C 
ATOM      6  C   UNL     1       1.364   3.045  21.247  0.00  0.00    +0.000 C 
ATOM      7  C   UNL     1       2.860   3.072  20.758  0.00  0.00    +0.000 C 
ATOM      8  N   UNL     1       2.653   4.320  20.022  0.00  0.00    +0.000 NA
ATOM      9  C   UNL     1       3.913   4.841  19.517  0.00  0.00    +0.000 C 
ATOM     10  C   UNL     1       4.432   3.996  18.393  0.00  0.00    +0.000 C 
ATOM     11  C   UNL     1       5.436   4.388  17.574  0.00  0.00    +0.000 C 
ENDROOT
BRANCH  11  12
ATOM     12  C   UNL     1       6.168   5.626  17.864  0.00  0.00    +0.000 A 
ATOM     13  C   UNL     1       5.803   6.786  17.174  0.00  0.00    +0.000 A 
ATOM     14  C   UNL     1       6.609   7.925  17.237  0.00  0.00    +0.000 A 
ATOM     15  C   UNL     1       7.780   7.904  17.991  0.00  0.00    +0.000 A 
ATOM     16 CL   UNL     1       8.809   9.284  18.005  0.00  0.00    +0.000 Cl
ATOM     17  C   UNL     1       8.138   6.764  18.710  0.00  0.00    +0.000 A 
ATOM     18  C   UNL     1       7.327   5.627  18.655  0.00  0.00    +0.000 A 
ENDBRANCH  11  12
BRANCH   1  19
ATOM     19  C   UNL     1       4.700   1.311  19.988  0.00  0.00    +0.000 C 
ATOM     20  O   UNL     1       5.156   0.416  19.280  0.00  0.00    +0.000 OA
BRANCH  19  22
ATOM     21  C   UNL     1       5.804   0.650  21.964  0.00  0.00    +0.000 C 
ATOM     22  O   UNL     1       5.242   1.689  21.174  0.00  0.00    +0.000 OA
ENDBRANCH  19  22
ENDBRANCH   1  19
TORSDOF 3
ENDMDL
MODEL 9
REMARK VINA RESULT:      -7.5      2.306      3.846
REMARK  Name = 
REMARK  4 active torsions:
REMARK  status: ('A' for Active; 'I' for Inactive)
REMARK    1  A    between atoms: C_1  and  O_2
REMARK    2  A    between atoms: O_2  and  C_3
REMARK    3  A    between atoms: C_3  and  C_5
REMARK    4  A    between atoms: C_15  and  C_16
REMARK                            x       y       z     vdW  Elec       q    Type
REMARK                         _______ _______ _______ _____ _____    ______ ____
ROOT
ATOM      1  C   UNL     1       4.412   4.505  18.586  0.00  0.00    +0.000 C 
ATOM      2  C   UNL     1       3.288   5.185  17.637  0.00  0.00    +0.000 C 
ATOM      3  C   UNL     1       2.086   4.209  17.425  0.00  0.00    +0.000 C 
ATOM      4  C   UNL     1       1.932   3.498  18.777  0.00  0.00    +0.000 C 
ATOM      5  C   UNL     1       2.131   2.228  19.586  0.00  0.00    +0.000 C 
ATOM      6  C   UNL     1       3.466   2.587  20.343  0.00  0.00    +0.000 C 
ATOM      7  C   UNL     1       3.781   4.090  19.999  0.00  0.00    +0.000 C 
ATOM      8  N   UNL     1       2.360   4.420  19.890  0.00  0.00    +0.000 NA
ATOM      9  C   UNL     1       2.169   5.854  19.739  0.00  0.00    +0.000 C 
ATOM     10  C   UNL     1       2.616   6.317  18.386  0.00  0.00    +0.000 C 
ATOM     11  C   UNL     1       2.317   7.538  17.883  0.00  0.00    +0.000 C 
ENDROOT
BRANCH  11  12
ATOM     12  C   UNL     1       1.651   8.530  18.736  0.00  0.00    +0.000 A 
ATOM     13  C   UNL     1       1.295   9.756  18.168  0.00  0.00    +0.000 A 
ATOM     14  C   UNL     1       0.877  10.812  18.980  0.00  0.00    +0.000 A 
ATOM     15  C   UNL     1       0.813  10.642  20.361  0.00  0.00    +0.000 A 
ATOM     16 CL   UNL     1       0.370  11.968  21.364  0.00  0.00    +0.000 Cl
ATOM     17  C   UNL     1       1.134   9.413  20.937  0.00  0.00    +0.000 A 
ATOM     18  C   UNL     1       1.544   8.353  20.124  0.00  0.00    +0.000 A 
ENDBRANCH  11  12
BRANCH   1  19
ATOM     19  C   UNL     1       5.616   5.439  18.621  0.00  0.00    +0.000 C 
ATOM     20  O   UNL     1       5.856   6.246  17.725  0.00  0.00    +0.000 OA
BRANCH  19  22
ATOM     21  C   UNL     1       7.781   5.650  19.532  0.00  0.00    +0.000 C 
ATOM     22  O   UNL     1       6.436   5.217  19.681  0.00  0.00    +0.000 OA
ENDBRANCH  19  22
ENDBRANCH   1  19
TORSDOF 3
ENDMDL
