MODEL 1
REMARK VINA RESULT:      -5.8      0.000      0.000
REMARK  Name = 
REMARK  9 active torsions:
REMARK  status: ('A' for Active; 'I' for Inactive)
REMARK    1  A    between atoms: C_1  and  C_2
REMARK    2  A    between atoms: C_2  and  N_3
REMARK    3  A    between atoms: C_7  and  C_8
REMARK    4  A    between atoms: C_8  and  N_9
REMARK    5  A    between atoms: N_9  and  C_10
REMARK    6  A    between atoms: N_9  and  C_11
REMARK    7  A    between atoms: C_11  and  C_12
REMARK    8  A    between atoms: C_12  and  C_13
REMARK    9  A    between atoms: N_16  and  C_17
REMARK                            x       y       z     vdW  Elec       q    Type
REMARK                         _______ _______ _______ _____ _____    ______ ____
ROOT
ATOM      1  N   UNL     1       2.780   6.173  18.748  0.00  0.00    +0.000 NA
ATOM      2  C   UNL     1       2.297   7.482  19.208  0.00  0.00    +0.000 C 
ENDROOT
BRANCH   1   3
ATOM      3  C   UNL     1       3.346   5.381  19.863  0.00  0.00    +0.000 C 
BRANCH   3   8
ATOM      4  N   UNL     1       2.130   3.148  19.493  0.00  0.00    +0.000 N 
ATOM      5  C   UNL     1       1.423   2.270  20.274  0.00  0.00    +0.000 A 
ATOM      6  C   UNL     1       1.395   2.832  21.520  0.00  0.00    +0.000 A 
ATOM      7  N   UNL     1       2.070   4.018  21.529  0.00  0.00    +0.000 NA
ATOM      8  C   UNL     1       2.536   4.190  20.301  0.00  0.00    +0.000 A 
BRANCH   4  10
ATOM      9  C   UNL     1       3.566   2.053  17.809  0.00  0.00    +0.000 C 
ATOM     10  C   UNL     1       2.368   2.946  18.078  0.00  0.00    +0.000 C 
ENDBRANCH   4  10
ENDBRANCH   3   8
ENDBRANCH   1   3
BRANCH   1  11
ATOM     11  C   UNL     1       3.697   6.351  17.608  0.00  0.00    +0.000 C 
BRANCH  11  12
ATOM     12  C   UNL     1       5.045   5.649  17.816  0.00  0.00    +0.000 C 
BRANCH  12  13
ATOM     13  C   UNL     1       5.751   5.315  16.551  0.00  0.00    +0.000 A 
ATOM     14  C   UNL     1       7.062   5.665  16.147  0.00  0.00    +0.000 A 
ATOM     15  N   UNL     1       7.385   5.149  14.959  0.00  0.00    +0.000 NA
ATOM     16  N   UNL     1       6.281   4.475  14.595  0.00  0.00    +0.000 N 
ATOM     17  C   UNL     1       6.226   3.772  13.337  0.00  0.00    +0.000 C 
ATOM     18  C   UNL     1       5.281   4.534  15.518  0.00  0.00    +0.000 A 
ENDBRANCH  12  13
ENDBRANCH  11  12
ENDBRANCH   1  11
TORSDOF 6
ENDMDL
MODEL 2
REMARK VINA RESULT:      -5.8      1.239      2.225
REMARK  Name = 
REMARK  9 active torsions:
REMARK  status: ('A' for Active; 'I' for Inactive)
REMARK    1  A    between atoms: C_1  and  C_2
REMARK    2  A    between atoms: C_2  and  N_3
REMARK    3  A    between atoms: C_7  and  C_8
REMARK    4  A    between atoms: C_8  and  N_9
REMARK    5  A    between atoms: N_9  and  C_10
REMARK    6  A    between atoms: N_9  and  C_11
REMARK    7  A    between atoms: C_11  and  C_12
REMARK    8  A    between atoms: C_12  and  C_13
REMARK    9  A    between atoms: N_16  and  C_17
REMARK                            x       y       z     vdW  Elec       q    Type
REMARK                         _______ _______ _______ _____ _____    ______ ____
ROOT
ATOM      1  N   UNL     1       2.361   6.151  19.122  0.00  0.00    +0.000 NA
ATOM      2  C   UNL     1       2.256   7.385  19.911  0.00  0.00    +0.000 C 
ENDROOT
BRANCH   1   3
ATOM      3  C   UNL     1       3.275   5.176  19.757  0.00  0.00    +0.000 C 
BRANCH   3   8
ATOM      4  N   UNL     1       2.288   2.826  19.429  0.00  0.00    +0.000 N 
ATOM      5  C   UNL     1       2.631   1.704  18.719  0.00  0.00    +0.000 A 
ATOM      6  C   UNL     1       3.811   2.011  18.100  0.00  0.00    +0.000 A 
ATOM      7  N   UNL     1       4.194   3.286  18.399  0.00  0.00    +0.000 NA
ATOM      8  C   UNL     1       3.252   3.783  19.186  0.00  0.00    +0.000 A 
BRANCH   4  10
ATOM      9  C   UNL     1       1.406   2.642  21.728  0.00  0.00    +0.000 C 
ATOM     10  C   UNL     1       1.107   2.913  20.264  0.00  0.00    +0.000 C 
ENDBRANCH   4  10
ENDBRANCH   3   8
ENDBRANCH   1   3
BRANCH   1  11
ATOM     11  C   UNL     1       2.702   6.478  17.726  0.00  0.00    +0.000 C 
BRANCH  11  12
ATOM     12  C   UNL     1       3.921   7.405  17.616  0.00  0.00    +0.000 C 
BRANCH  12  13
ATOM     13  C   UNL     1       5.102   6.771  16.972  0.00  0.00    +0.000 A 
ATOM     14  C   UNL     1       6.476   6.973  17.244  0.00  0.00    +0.000 A 
ATOM     15  N   UNL     1       7.264   6.193  16.500  0.00  0.00    +0.000 NA
ATOM     16  N   UNL     1       6.398   5.497  15.745  0.00  0.00    +0.000 N 
ATOM     17  C   UNL     1       6.870   4.533  14.781  0.00  0.00    +0.000 C 
ATOM     18  C   UNL     1       5.094   5.797  15.998  0.00  0.00    +0.000 A 
ENDBRANCH  12  13
ENDBRANCH  11  12
ENDBRANCH   1  11
TORSDOF 6
ENDMDL
MODEL 3
REMARK VINA RESULT:      -5.7      2.382      5.954
REMARK  Name = 
REMARK  9 active torsions:
REMARK  status: ('A' for Active; 'I' for Inactive)
REMARK    1  A    between atoms: C_1  and  C_2
REMARK    2  A    between atoms: C_2  and  N_3
REMARK    3  A    between atoms: C_7  and  C_8
REMARK    4  A    between atoms: C_8  and  N_9
REMARK    5  A    between atoms: N_9  and  C_10
REMARK    6  A    between atoms: N_9  and  C_11
REMARK    7  A    between atoms: C_11  and  C_12
REMARK    8  A    between atoms: C_12  and  C_13
REMARK    9  A    between atoms: N_16  and  C_17
REMARK                            x       y       z     vdW  Elec       q    Type
REMARK                         _______ _______ _______ _____ _____    ______ ____
ROOT
ATOM      1  N   UNL     1       3.444   4.379  19.166  0.00  0.00    +0.000 NA
ATOM      2  C   UNL     1       2.508   3.693  20.066  0.00  0.00    +0.000 C 
ENDROOT
BRANCH   1   3
ATOM      3  C   UNL     1       4.796   3.781  19.232  0.00  0.00    +0.000 C 
BRANCH   3   8
ATOM      4  N   UNL     1       6.282   4.979  17.511  0.00  0.00    +0.000 N 
ATOM      5  C   UNL     1       7.361   5.824  17.560  0.00  0.00    +0.000 A 
ATOM      6  C   UNL     1       7.648   5.972  18.888  0.00  0.00    +0.000 A 
ATOM      7  N   UNL     1       6.775   5.255  19.652  0.00  0.00    +0.000 NA
ATOM      8  C   UNL     1       5.933   4.675  18.811  0.00  0.00    +0.000 A 
BRANCH   4  10
ATOM      9  C   UNL     1       6.664   4.468  15.125  0.00  0.00    +0.000 C 
ATOM     10  C   UNL     1       5.673   4.531  16.275  0.00  0.00    +0.000 C 
ENDBRANCH   4  10
ENDBRANCH   3   8
ENDBRANCH   1   3
BRANCH   1  11
ATOM     11  C   UNL     1       3.412   5.830  19.422  0.00  0.00    +0.000 C 
BRANCH  11  12
ATOM     12  C   UNL     1       2.884   6.631  18.224  0.00  0.00    +0.000 C 
BRANCH  12  13
ATOM     13  C   UNL     1       2.220   7.907  18.600  0.00  0.00    +0.000 A 
ATOM     14  C   UNL     1       1.939   9.033  17.791  0.00  0.00    +0.000 A 
ATOM     15  N   UNL     1       1.284   9.989  18.454  0.00  0.00    +0.000 NA
ATOM     16  N   UNL     1       1.151   9.481  19.691  0.00  0.00    +0.000 N 
ATOM     17  C   UNL     1       0.491  10.233  20.730  0.00  0.00    +0.000 C 
ATOM     18  C   UNL     1       1.683   8.235  19.826  0.00  0.00    +0.000 A 
ENDBRANCH  12  13
ENDBRANCH  11  12
ENDBRANCH   1  11
TORSDOF 6
ENDMDL
MODEL 4
REMARK VINA RESULT:      -5.7      1.178      2.161
REMARK  Name = 
REMARK  9 active torsions:
REMARK  status: ('A' for Active; 'I' for Inactive)
REMARK    1  A    between atoms: C_1  and  C_2
REMARK    2  A    between atoms: C_2  and  N_3
REMARK    3  A    between atoms: C_7  and  C_8
REMARK    4  A    between atoms: C_8  and  N_9
REMARK    5  A    between atoms: N_9  and  C_10
REMARK    6  A    between atoms: N_9  and  C_11
REMARK    7  A    between atoms: C_11  and  C_12
REMARK    8  A    between atoms: C_12  and  C_13
REMARK    9  A    between atoms: N_16  and  C_17
REMARK                            x       y       z     vdW  Elec       q    Type
REMARK                         _______ _______ _______ _____ _____    ______ ____
ROOT
ATOM      1  N   UNL     1       2.417   6.329  18.717  0.00  0.00    +0.000 NA
ATOM      2  C   UNL     1       2.188   7.510  19.559  0.00  0.00    +0.000 C 
ENDROOT
BRANCH   1   3
ATOM      3  C   UNL     1       1.702   5.143  19.239  0.00  0.00    +0.000 C 
BRANCH   3   8
ATOM      4  N   UNL     1       2.724   2.796  19.465  0.00  0.00    +0.000 N 
ATOM      5  C   UNL     1       3.001   1.756  18.616  0.00  0.00    +0.000 A 
ATOM      6  C   UNL     1       2.635   2.194  17.373  0.00  0.00    +0.000 A 
ATOM      7  N   UNL     1       2.133   3.461  17.437  0.00  0.00    +0.000 NA
ATOM      8  C   UNL     1       2.166   3.810  18.714  0.00  0.00    +0.000 A 
BRANCH   4  10
ATOM      9  C   UNL     1       1.733   2.635  21.722  0.00  0.00    +0.000 C 
ATOM     10  C   UNL     1       2.997   2.759  20.889  0.00  0.00    +0.000 C 
ENDBRANCH   4  10
ENDBRANCH   3   8
ENDBRANCH   1   3
BRANCH   1  11
ATOM     11  C   UNL     1       3.863   6.125  18.523  0.00  0.00    +0.000 C 
BRANCH  11  12
ATOM     12  C   UNL     1       4.438   6.993  17.396  0.00  0.00    +0.000 C 
BRANCH  12  13
ATOM     13  C   UNL     1       5.459   6.301  16.565  0.00  0.00    +0.000 A 
ATOM     14  C   UNL     1       6.856   6.208  16.770  0.00  0.00    +0.000 A 
ATOM     15  N   UNL     1       7.461   5.461  15.844  0.00  0.00    +0.000 NA
ATOM     16  N   UNL     1       6.455   5.081  15.038  0.00  0.00    +0.000 N 
ATOM     17  C   UNL     1       6.706   4.252  13.885  0.00  0.00    +0.000 C 
ATOM     18  C   UNL     1       5.238   5.546  15.434  0.00  0.00    +0.000 A 
ENDBRANCH  12  13
ENDBRANCH  11  12
ENDBRANCH   1  11
TORSDOF 6
ENDMDL
MODEL 5
REMARK VINA RESULT:      -5.6      1.467      3.219
REMARK  Name = 
REMARK  9 active torsions:
REMARK  status: ('A' for Active; 'I' for Inactive)
REMARK    1  A    between atoms: C_1  and  C_2
REMARK    2  A    between atoms: C_2  and  N_3
REMARK    3  A    between atoms: C_7  and  C_8
REMARK    4  A    between atoms: C_8  and  N_9
REMARK    5  A    between atoms: N_9  and  C_10
REMARK    6  A    between atoms: N_9  and  C_11
REMARK    7  A    between atoms: C_11  and  C_12
REMARK    8  A    between atoms: C_12  and  C_13
REMARK    9  A    between atoms: N_16  and  C_17
REMARK                            x       y       z     vdW  Elec       q    Type
REMARK                         _______ _______ _______ _____ _____    ______ ____
ROOT
ATOM      1  N   UNL     1       4.054   2.816  18.171  0.00  0.00    +0.000 NA
ATOM      2  C   UNL     1       3.157   1.653  18.186  0.00  0.00    +0.000 C 
ENDROOT
BRANCH   1   3
ATOM      3  C   UNL     1       4.178   3.424  19.514  0.00  0.00    +0.000 C 
BRANCH   3   8
ATOM      4  N   UNL     1       1.928   4.404  20.277  0.00  0.00    +0.000 N 
ATOM      5  C   UNL     1       1.404   5.661  20.433  0.00  0.00    +0.000 A 
ATOM      6  C   UNL     1       2.389   6.520  20.029  0.00  0.00    +0.000 A 
ATOM      7  N   UNL     1       3.500   5.829  19.642  0.00  0.00    +0.000 NA
ATOM      8  C   UNL     1       3.222   4.547  19.819  0.00  0.00    +0.000 A 
BRANCH   4  10
ATOM      9  C   UNL     1       1.594   2.561  21.885  0.00  0.00    +0.000 C 
ATOM     10  C   UNL     1       1.191   3.189  20.563  0.00  0.00    +0.000 C 
ENDBRANCH   4  10
ENDBRANCH   3   8
ENDBRANCH   1   3
BRANCH   1  11
ATOM     11  C   UNL     1       3.635   3.758  17.118  0.00  0.00    +0.000 C 
BRANCH  11  12
ATOM     12  C   UNL     1       4.608   3.793  15.932  0.00  0.00    +0.000 C 
BRANCH  12  13
ATOM     13  C   UNL     1       5.727   4.758  16.101  0.00  0.00    +0.000 A 
ATOM     14  C   UNL     1       6.839   4.983  15.256  0.00  0.00    +0.000 A 
ATOM     15  N   UNL     1       7.626   5.967  15.697  0.00  0.00    +0.000 NA
ATOM     16  N   UNL     1       7.024   6.369  16.829  0.00  0.00    +0.000 N 
ATOM     17  C   UNL     1       7.584   7.433  17.625  0.00  0.00    +0.000 C 
ATOM     18  C   UNL     1       5.879   5.686  17.107  0.00  0.00    +0.000 A 
ENDBRANCH  12  13
ENDBRANCH  11  12
ENDBRANCH   1  11
TORSDOF 6
ENDMDL
MODEL 6
REMARK VINA RESULT:      -5.6      1.170      2.221
REMARK  Name = 
REMARK  9 active torsions:
REMARK  status: ('A' for Active; 'I' for Inactive)
REMARK    1  A    between atoms: C_1  and  C_2
REMARK    2  A    between atoms: C_2  and  N_3
REMARK    3  A    between atoms: C_7  and  C_8
REMARK    4  A    between atoms: C_8  and  N_9
REMARK    5  A    between atoms: N_9  and  C_10
REMARK    6  A    between atoms: N_9  and  C_11
REMARK    7  A    between atoms: C_11  and  C_12
REMARK    8  A    between atoms: C_12  and  C_13
REMARK    9  A    between atoms: N_16  and  C_17
REMARK                            x       y       z     vdW  Elec       q    Type
REMARK                         _______ _______ _______ _____ _____    ______ ____
ROOT
ATOM      1  N   UNL     1       2.960   6.495  18.067  0.00  0.00    +0.000 NA
ATOM      2  C   UNL     1       2.420   7.851  18.234  0.00  0.00    +0.000 C 
ENDROOT
BRANCH   1   3
ATOM      3  C   UNL     1       2.325   5.539  19.000  0.00  0.00    +0.000 C 
BRANCH   3   8
ATOM      4  N   UNL     1       2.579   3.033  19.510  0.00  0.00    +0.000 N 
ATOM      5  C   UNL     1       2.635   1.879  18.773  0.00  0.00    +0.000 A 
ATOM      6  C   UNL     1       2.559   2.276  17.467  0.00  0.00    +0.000 A 
ATOM      7  N   UNL     1       2.447   3.634  17.383  0.00  0.00    +0.000 NA
ATOM      8  C   UNL     1       2.434   4.084  18.628  0.00  0.00    +0.000 A 
BRANCH   4  10
ATOM      9  C   UNL     1       1.324   2.802  21.624  0.00  0.00    +0.000 C 
ATOM     10  C   UNL     1       2.663   3.062  20.957  0.00  0.00    +0.000 C 
ENDBRANCH   4  10
ENDBRANCH   3   8
ENDBRANCH   1   3
BRANCH   1  11
ATOM     11  C   UNL     1       4.431   6.530  18.145  0.00  0.00    +0.000 C 
BRANCH  11  12
ATOM     12  C   UNL     1       5.090   6.837  16.794  0.00  0.00    +0.000 C 
BRANCH  12  13
ATOM     13  C   UNL     1       5.495   5.625  16.033  0.00  0.00    +0.000 A 
ATOM     14  C   UNL     1       5.781   4.327  16.519  0.00  0.00    +0.000 A 
ATOM     15  N   UNL     1       6.067   3.466  15.539  0.00  0.00    +0.000 NA
ATOM     16  N   UNL     1       5.973   4.212  14.426  0.00  0.00    +0.000 N 
ATOM     17  C   UNL     1       6.225   3.635  13.128  0.00  0.00    +0.000 C 
ATOM     18  C   UNL     1       5.621   5.505  14.667  0.00  0.00    +0.000 A 
ENDBRANCH  12  13
ENDBRANCH  11  12
ENDBRANCH   1  11
TORSDOF 6
ENDMDL
MODEL 7
REMARK VINA RESULT:      -5.5      1.896      3.080
REMARK  Name = 
REMARK  9 active torsions:
REMARK  status: ('A' for Active; 'I' for Inactive)
REMARK    1  A    between atoms: C_1  and  C_2
REMARK    2  A    between atoms: C_2  and  N_3
REMARK    3  A    between atoms: C_7  and  C_8
REMARK    4  A    between atoms: C_8  and  N_9
REMARK    5  A    between atoms: N_9  and  C_10
REMARK    6  A    between atoms: N_9  and  C_11
REMARK    7  A    between atoms: C_11  and  C_12
REMARK    8  A    between atoms: C_12  and  C_13
REMARK    9  A    between atoms: N_16  and  C_17
REMARK                            x       y       z     vdW  Elec       q    Type
REMARK                         _______ _______ _______ _____ _____    ______ ____
ROOT
ATOM      1  N   UNL     1       5.876   5.580  18.370  0.00  0.00    +0.000 NA
ATOM      2  C   UNL     1       7.294   5.687  18.739  0.00  0.00    +0.000 C 
ENDROOT
BRANCH   1   3
ATOM      3  C   UNL     1       5.210   4.474  19.093  0.00  0.00    +0.000 C 
BRANCH   3   8
ATOM      4  N   UNL     1       2.702   4.725  18.594  0.00  0.00    +0.000 N 
ATOM      5  C   UNL     1       1.743   3.974  17.964  0.00  0.00    +0.000 A 
ATOM      6  C   UNL     1       2.376   2.826  17.575  0.00  0.00    +0.000 A 
ATOM      7  N   UNL     1       3.691   2.856  17.937  0.00  0.00    +0.000 NA
ATOM      8  C   UNL     1       3.888   4.022  18.532  0.00  0.00    +0.000 A 
BRANCH   4  10
ATOM      9  C   UNL     1       2.581   7.160  18.203  0.00  0.00    +0.000 C 
ATOM     10  C   UNL     1       2.439   6.018  19.193  0.00  0.00    +0.000 C 
ENDBRANCH   4  10
ENDBRANCH   3   8
ENDBRANCH   1   3
BRANCH   1  11
ATOM     11  C   UNL     1       5.745   5.509  16.905  0.00  0.00    +0.000 C 
BRANCH  11  12
ATOM     12  C   UNL     1       7.050   5.095  16.211  0.00  0.00    +0.000 C 
BRANCH  12  13
ATOM     13  C   UNL     1       6.875   4.699  14.789  0.00  0.00    +0.000 A 
ATOM     14  C   UNL     1       7.608   5.122  13.654  0.00  0.00    +0.000 A 
ATOM     15  N   UNL     1       7.206   4.519  12.532  0.00  0.00    +0.000 NA
ATOM     16  N   UNL     1       6.210   3.717  12.945  0.00  0.00    +0.000 N 
ATOM     17  C   UNL     1       5.495   2.887  12.006  0.00  0.00    +0.000 C 
ATOM     18  C   UNL     1       5.983   3.779  14.286  0.00  0.00    +0.000 A 
ENDBRANCH  12  13
ENDBRANCH  11  12
ENDBRANCH   1  11
TORSDOF 6
ENDMDL
MODEL 8
REMARK VINA RESULT:      -5.5      2.201      5.598
REMARK  Name = 
REMARK  9 active torsions:
REMARK  status: ('A' for Active; 'I' for Inactive)
REMARK    1  A    between atoms: C_1  and  C_2
REMARK    2  A    between atoms: C_2  and  N_3
REMARK    3  A    between atoms: C_7  and  C_8
REMARK    4  A    between atoms: C_8  and  N_9
REMARK    5  A    between atoms: N_9  and  C_10
REMARK    6  A    between atoms: N_9  and  C_11
REMARK    7  A    between atoms: C_11  and  C_12
REMARK    8  A    between atoms: C_12  and  C_13
REMARK    9  A    between atoms: N_16  and  C_17
REMARK                            x       y       z     vdW  Elec       q    Type
REMARK                         _______ _______ _______ _____ _____    ______ ____
ROOT
ATOM      1  N   UNL     1       3.319   4.044  18.272  0.00  0.00    +0.000 NA
ATOM      2  C   UNL     1       2.749   2.784  17.779  0.00  0.00    +0.000 C 
ENDROOT
BRANCH   1   3
ATOM      3  C   UNL     1       4.513   3.807  19.114  0.00  0.00    +0.000 C 
BRANCH   3   8
ATOM      4  N   UNL     1       6.292   4.719  17.498  0.00  0.00    +0.000 N 
ATOM      5  C   UNL     1       7.388   5.535  17.600  0.00  0.00    +0.000 A 
ATOM      6  C   UNL     1       7.481   5.858  18.925  0.00  0.00    +0.000 A 
ATOM      7  N   UNL     1       6.472   5.275  19.634  0.00  0.00    +0.000 NA
ATOM      8  C   UNL     1       5.739   4.606  18.758  0.00  0.00    +0.000 A 
BRANCH   4  10
ATOM      9  C   UNL     1       6.764   4.465  15.088  0.00  0.00    +0.000 C 
ATOM     10  C   UNL     1       5.854   4.119  16.253  0.00  0.00    +0.000 C 
ENDBRANCH   4  10
ENDBRANCH   3   8
ENDBRANCH   1   3
BRANCH   1  11
ATOM     11  C   UNL     1       2.270   4.847  18.924  0.00  0.00    +0.000 C 
BRANCH  11  12
ATOM     12  C   UNL     1       2.831   6.069  19.662  0.00  0.00    +0.000 C 
BRANCH  12  13
ATOM     13  C   UNL     1       2.452   7.369  19.048  0.00  0.00    +0.000 A 
ATOM     14  C   UNL     1       2.780   7.875  17.768  0.00  0.00    +0.000 A 
ATOM     15  N   UNL     1       2.223   9.065  17.530  0.00  0.00    +0.000 NA
ATOM     16  N   UNL     1       1.545   9.328  18.661  0.00  0.00    +0.000 N 
ATOM     17  C   UNL     1       0.801  10.555  18.806  0.00  0.00    +0.000 C 
ATOM     18  C   UNL     1       1.640   8.340  19.593  0.00  0.00    +0.000 A 
ENDBRANCH  12  13
ENDBRANCH  11  12
ENDBRANCH   1  11
TORSDOF 6
ENDMDL
MODEL 9
REMARK VINA RESULT:      -5.5      2.317      5.872
REMARK  Name = 
REMARK  9 active torsions:
REMARK  status: ('A' for Active; 'I' for Inactive)
REMARK    1  A    between atoms: C_1  and  C_2
REMARK    2  A    between atoms: C_2  and  N_3
REMARK    3  A    between atoms: C_7  and  C_8
REMARK    4  A    between atoms: C_8  and  N_9
REMARK    5  A    between atoms: N_9  and  C_10
REMARK    6  A    between atoms: N_9  and  C_11
REMARK    7  A    between atoms: C_11  and  C_12
REMARK    8  A    between atoms: C_12  and  C_13
REMARK    9  A    between atoms: N_16  and  C_17
REMARK                            x       y       z     vdW  Elec       q    Type
REMARK                         _______ _______ _______ _____ _____    ______ ____
ROOT
ATOM      1  N   UNL     1       3.479   4.020  18.114  0.00  0.00    +0.000 NA
ATOM      2  C   UNL     1       2.719   2.778  17.927  0.00  0.00    +0.000 C 
ENDROOT
BRANCH   1   3
ATOM      3  C   UNL     1       4.612   3.828  19.046  0.00  0.00    +0.000 C 
BRANCH   3   8
ATOM      4  N   UNL     1       6.426   4.806  17.512  0.00  0.00    +0.000 N 
ATOM      5  C   UNL     1       7.526   5.608  17.674  0.00  0.00    +0.000 A 
ATOM      6  C   UNL     1       7.597   5.863  19.016  0.00  0.00    +0.000 A 
ATOM      7  N   UNL     1       6.570   5.253  19.676  0.00  0.00    +0.000 NA
ATOM      8  C   UNL     1       5.849   4.635  18.754  0.00  0.00    +0.000 A 
BRANCH   4  10
ATOM      9  C   UNL     1       6.959   4.643  15.106  0.00  0.00    +0.000 C 
ATOM     10  C   UNL     1       6.008   4.274  16.230  0.00  0.00    +0.000 C 
ENDBRANCH   4  10
ENDBRANCH   3   8
ENDBRANCH   1   3
BRANCH   1  11
ATOM     11  C   UNL     1       2.565   5.114  18.490  0.00  0.00    +0.000 C 
BRANCH  11  12
ATOM     12  C   UNL     1       3.079   6.492  18.053  0.00  0.00    +0.000 C 
BRANCH  12  13
ATOM     13  C   UNL     1       2.332   7.630  18.651  0.00  0.00    +0.000 A 
ATOM     14  C   UNL     1       1.857   7.781  19.976  0.00  0.00    +0.000 A 
ATOM     15  N   UNL     1       1.267   8.962  20.176  0.00  0.00    +0.000 NA
ATOM     16  N   UNL     1       1.355   9.566  18.979  0.00  0.00    +0.000 N 
ATOM     17  C   UNL     1       0.811  10.886  18.777  0.00  0.00    +0.000 C 
ATOM     18  C   UNL     1       1.994   8.816  18.038  0.00  0.00    +0.000 A 
ENDBRANCH  12  13
ENDBRANCH  11  12
ENDBRANCH   1  11
TORSDOF 6
ENDMDL
