MODEL 1
REMARK VINA RESULT:      -6.9      0.000      0.000
REMARK  Name = 
REMARK  8 active torsions:
REMARK  status: ('A' for Active; 'I' for Inactive)
REMARK    1  A    between atoms: C_1  and  C_2
REMARK    2  A    between atoms: C_2  and  C_3
REMARK    3  A    between atoms: C_2  and  C_4
REMARK    4  A    between atoms: C_2  and  C_5
REMARK    5  A    between atoms: C_5  and  O_7
REMARK    6  A    between atoms: O_7  and  C_8
REMARK    7  A    between atoms: C_8  and  C_9
REMARK    8  A    between atoms: C_11  and  C_12
REMARK                            x       y       z     vdW  Elec       q    Type
REMARK                         _______ _______ _______ _____ _____    ______ ____
ROOT
ATOM      1  C   UNL     1       4.473   5.586  17.973  0.00  0.00    +0.000 A 
ATOM      2  N   UNL     1       4.608   5.471  16.669  0.00  0.00    +0.000 NA
ATOM      3  C   UNL     1       5.858   4.956  16.369  0.00  0.00    +0.000 A 
ATOM      4  C   UNL     1       6.675   4.724  17.456  0.00  0.00    +0.000 A 
ATOM      5  S   UNL     1       5.854   5.132  18.900  0.00  0.00    +0.000 S 
ENDROOT
BRANCH   3   6
ATOM      6  C   UNL     1       6.257   4.697  14.996  0.00  0.00    +0.000 A 
ATOM      7  C   UNL     1       5.506   3.811  14.208  0.00  0.00    +0.000 A 
ATOM      8  C   UNL     1       5.883   3.546  12.892  0.00  0.00    +0.000 A 
ATOM      9  C   UNL     1       7.016   4.158  12.366  0.00  0.00    +0.000 A 
ATOM     10  F   UNL     1       7.383   3.897  11.107  0.00  0.00    +0.000 F 
ATOM     11  C   UNL     1       7.777   5.033  13.134  0.00  0.00    +0.000 A 
ATOM     12  C   UNL     1       7.398   5.305  14.447  0.00  0.00    +0.000 A 
ENDBRANCH   3   6
BRANCH   1  13
ATOM     13  C   UNL     1       3.257   6.109  18.679  0.00  0.00    +0.000 C 
BRANCH  13  14
ATOM     14  O   UNL     1       2.242   5.087  18.687  0.00  0.00    +0.000 OA
BRANCH  14  15
ATOM     15  C   UNL     1       1.915   4.665  19.945  0.00  0.00    +0.000 C 
ATOM     16  O   UNL     1       1.742   5.415  20.891  0.00  0.00    +0.000 OA
BRANCH  15  18
ATOM     17  C   UNL     1       3.207   2.531  19.745  0.00  0.00    +0.000 C 
ATOM     18  C   UNL     1       1.823   3.135  20.030  0.00  0.00    +0.000 C 
ATOM     19  C   UNL     1       0.832   2.608  18.984  0.00  0.00    +0.000 C 
ATOM     20  C   UNL     1       1.380   2.714  21.435  0.00  0.00    +0.000 C 
ENDBRANCH  15  18
ENDBRANCH  14  15
ENDBRANCH  13  14
ENDBRANCH   1  13
TORSDOF 5
ENDMDL
MODEL 2
REMARK VINA RESULT:      -6.8      1.402      1.783
REMARK  Name = 
REMARK  8 active torsions:
REMARK  status: ('A' for Active; 'I' for Inactive)
REMARK    1  A    between atoms: C_1  and  C_2
REMARK    2  A    between atoms: C_2  and  C_3
REMARK    3  A    between atoms: C_2  and  C_4
REMARK    4  A    between atoms: C_2  and  C_5
REMARK    5  A    between atoms: C_5  and  O_7
REMARK    6  A    between atoms: O_7  and  C_8
REMARK    7  A    between atoms: C_8  and  C_9
REMARK    8  A    between atoms: C_11  and  C_12
REMARK                            x       y       z     vdW  Elec       q    Type
REMARK                         _______ _______ _______ _____ _____    ______ ____
ROOT
ATOM      1  C   UNL     1       5.272   5.167  17.991  0.00  0.00    +0.000 A 
ATOM      2  N   UNL     1       5.772   4.519  16.961  0.00  0.00    +0.000 NA
ATOM      3  C   UNL     1       5.644   5.286  15.815  0.00  0.00    +0.000 A 
ATOM      4  C   UNL     1       5.006   6.497  15.988  0.00  0.00    +0.000 A 
ATOM      5  S   UNL     1       4.578   6.703  17.631  0.00  0.00    +0.000 S 
ENDROOT
BRANCH   3   6
ATOM      6  C   UNL     1       6.146   4.819  14.535  0.00  0.00    +0.000 A 
ATOM      7  C   UNL     1       5.436   3.840  13.823  0.00  0.00    +0.000 A 
ATOM      8  C   UNL     1       5.911   3.377  12.597  0.00  0.00    +0.000 A 
ATOM      9  C   UNL     1       7.103   3.882  12.087  0.00  0.00    +0.000 A 
ATOM     10  F   UNL     1       7.563   3.432  10.916  0.00  0.00    +0.000 F 
ATOM     11  C   UNL     1       7.824   4.848  12.781  0.00  0.00    +0.000 A 
ATOM     12  C   UNL     1       7.347   5.318  14.003  0.00  0.00    +0.000 A 
ENDBRANCH   3   6
BRANCH   1  13
ATOM     13  C   UNL     1       5.227   4.655  19.402  0.00  0.00    +0.000 C 
BRANCH  13  14
ATOM     14  O   UNL     1       4.303   3.553  19.472  0.00  0.00    +0.000 OA
BRANCH  14  15
ATOM     15  C   UNL     1       3.009   3.947  19.659  0.00  0.00    +0.000 C 
ATOM     16  O   UNL     1       2.647   4.700  20.548  0.00  0.00    +0.000 OA
BRANCH  15  18
ATOM     17  C   UNL     1       1.561   4.388  17.665  0.00  0.00    +0.000 C 
ATOM     18  C   UNL     1       2.062   3.305  18.636  0.00  0.00    +0.000 C 
ATOM     19  C   UNL     1       0.852   2.690  19.351  0.00  0.00    +0.000 C 
ATOM     20  C   UNL     1       2.805   2.231  17.835  0.00  0.00    +0.000 C 
ENDBRANCH  15  18
ENDBRANCH  14  15
ENDBRANCH  13  14
ENDBRANCH   1  13
TORSDOF 5
ENDMDL
MODEL 3
REMARK VINA RESULT:      -6.8      1.288      2.149
REMARK  Name = 
REMARK  8 active torsions:
REMARK  status: ('A' for Active; 'I' for Inactive)
REMARK    1  A    between atoms: C_1  and  C_2
REMARK    2  A    between atoms: C_2  and  C_3
REMARK    3  A    between atoms: C_2  and  C_4
REMARK    4  A    between atoms: C_2  and  C_5
REMARK    5  A    between atoms: C_5  and  O_7
REMARK    6  A    between atoms: O_7  and  C_8
REMARK    7  A    between atoms: C_8  and  C_9
REMARK    8  A    between atoms: C_11  and  C_12
REMARK                            x       y       z     vdW  Elec       q    Type
REMARK                         _______ _______ _______ _____ _____    ______ ____
ROOT
ATOM      1  C   UNL     1       5.156   5.217  17.958  0.00  0.00    +0.000 A 
ATOM      2  N   UNL     1       5.649   4.535  16.946  0.00  0.00    +0.000 NA
ATOM      3  C   UNL     1       5.596   5.300  15.793  0.00  0.00    +0.000 A 
ATOM      4  C   UNL     1       5.021   6.545  15.939  0.00  0.00    +0.000 A 
ATOM      5  S   UNL     1       4.558   6.786  17.568  0.00  0.00    +0.000 S 
ENDROOT
BRANCH   3   6
ATOM      6  C   UNL     1       6.108   4.796  14.530  0.00  0.00    +0.000 A 
ATOM      7  C   UNL     1       7.314   5.299  14.018  0.00  0.00    +0.000 A 
ATOM      8  C   UNL     1       7.812   4.830  12.803  0.00  0.00    +0.000 A 
ATOM      9  C   UNL     1       7.101   3.868  12.093  0.00  0.00    +0.000 A 
ATOM     10  F   UNL     1       7.574   3.426  10.924  0.00  0.00    +0.000 F 
ATOM     11  C   UNL     1       5.900   3.363  12.582  0.00  0.00    +0.000 A 
ATOM     12  C   UNL     1       5.404   3.824  13.799  0.00  0.00    +0.000 A 
ENDBRANCH   3   6
BRANCH   1  13
ATOM     13  C   UNL     1       5.043   4.720  19.369  0.00  0.00    +0.000 C 
BRANCH  13  14
ATOM     14  O   UNL     1       3.651   4.650  19.732  0.00  0.00    +0.000 OA
BRANCH  14  15
ATOM     15  C   UNL     1       3.197   3.370  19.877  0.00  0.00    +0.000 C 
ATOM     16  O   UNL     1       3.878   2.378  19.671  0.00  0.00    +0.000 OA
BRANCH  15  18
ATOM     17  C   UNL     1       1.212   4.768  20.483  0.00  0.00    +0.000 C 
ATOM     18  C   UNL     1       1.722   3.329  20.299  0.00  0.00    +0.000 C 
ATOM     19  C   UNL     1       1.574   2.582  21.630  0.00  0.00    +0.000 C 
ATOM     20  C   UNL     1       0.885   2.645  19.213  0.00  0.00    +0.000 C 
ENDBRANCH  15  18
ENDBRANCH  14  15
ENDBRANCH  13  14
ENDBRANCH   1  13
TORSDOF 5
ENDMDL
MODEL 4
REMARK VINA RESULT:      -6.8      1.392      2.077
REMARK  Name = 
REMARK  8 active torsions:
REMARK  status: ('A' for Active; 'I' for Inactive)
REMARK    1  A    between atoms: C_1  and  C_2
REMARK    2  A    between atoms: C_2  and  C_3
REMARK    3  A    between atoms: C_2  and  C_4
REMARK    4  A    between atoms: C_2  and  C_5
REMARK    5  A    between atoms: C_5  and  O_7
REMARK    6  A    between atoms: O_7  and  C_8
REMARK    7  A    between atoms: C_8  and  C_9
REMARK    8  A    between atoms: C_11  and  C_12
REMARK                            x       y       z     vdW  Elec       q    Type
REMARK                         _______ _______ _______ _____ _____    ______ ____
ROOT
ATOM      1  C   UNL     1       5.242   5.190  18.001  0.00  0.00    +0.000 A 
ATOM      2  N   UNL     1       5.730   4.524  16.976  0.00  0.00    +0.000 NA
ATOM      3  C   UNL     1       5.623   5.287  15.825  0.00  0.00    +0.000 A 
ATOM      4  C   UNL     1       5.013   6.513  15.988  0.00  0.00    +0.000 A 
ATOM      5  S   UNL     1       4.585   6.740  17.628  0.00  0.00    +0.000 S 
ENDROOT
BRANCH   3   6
ATOM      6  C   UNL     1       6.118   4.799  14.550  0.00  0.00    +0.000 A 
ATOM      7  C   UNL     1       7.329   5.291  14.039  0.00  0.00    +0.000 A 
ATOM      8  C   UNL     1       7.811   4.838  12.812  0.00  0.00    +0.000 A 
ATOM      9  C   UNL     1       7.079   3.903  12.088  0.00  0.00    +0.000 A 
ATOM     10  F   UNL     1       7.536   3.476  10.907  0.00  0.00    +0.000 F 
ATOM     11  C   UNL     1       5.872   3.410  12.575  0.00  0.00    +0.000 A 
ATOM     12  C   UNL     1       5.393   3.855  13.804  0.00  0.00    +0.000 A 
ENDBRANCH   3   6
BRANCH   1  13
ATOM     13  C   UNL     1       5.181   4.690  19.414  0.00  0.00    +0.000 C 
BRANCH  13  14
ATOM     14  O   UNL     1       4.277   3.570  19.478  0.00  0.00    +0.000 OA
BRANCH  14  15
ATOM     15  C   UNL     1       2.977   3.939  19.678  0.00  0.00    +0.000 C 
ATOM     16  O   UNL     1       2.607   4.664  20.587  0.00  0.00    +0.000 OA
BRANCH  15  18
ATOM     17  C   UNL     1       1.547   4.400  17.676  0.00  0.00    +0.000 C 
ATOM     18  C   UNL     1       2.037   3.308  18.642  0.00  0.00    +0.000 C 
ATOM     19  C   UNL     1       0.821   2.690  19.342  0.00  0.00    +0.000 C 
ATOM     20  C   UNL     1       2.784   2.238  17.838  0.00  0.00    +0.000 C 
ENDBRANCH  15  18
ENDBRANCH  14  15
ENDBRANCH  13  14
ENDBRANCH   1  13
TORSDOF 5
ENDMDL
MODEL 5
REMARK VINA RESULT:      -6.8      3.998      7.116
REMARK  Name = 
REMARK  8 active torsions:
REMARK  status: ('A' for Active; 'I' for Inactive)
REMARK    1  A    between atoms: C_1  and  C_2
REMARK    2  A    between atoms: C_2  and  C_3
REMARK    3  A    between atoms: C_2  and  C_4
REMARK    4  A    between atoms: C_2  and  C_5
REMARK    5  A    between atoms: C_5  and  O_7
REMARK    6  A    between atoms: O_7  and  C_8
REMARK    7  A    between atoms: C_8  and  C_9
REMARK    8  A    between atoms: C_11  and  C_12
REMARK                            x       y       z     vdW  Elec       q    Type
REMARK                         _______ _______ _______ _____ _____    ______ ____
ROOT
ATOM      1  C   UNL     1       3.568   4.509  19.522  0.00  0.00    +0.000 A 
ATOM      2  N   UNL     1       3.375   5.729  19.069  0.00  0.00    +0.000 NA
ATOM      3  C   UNL     1       2.339   6.331  19.763  0.00  0.00    +0.000 A 
ATOM      4  C   UNL     1       1.730   5.537  20.713  0.00  0.00    +0.000 A 
ATOM      5  S   UNL     1       2.487   4.004  20.766  0.00  0.00    +0.000 S 
ENDROOT
BRANCH   3   6
ATOM      6  C   UNL     1       1.938   7.698  19.483  0.00  0.00    +0.000 A 
ATOM      7  C   UNL     1       1.293   8.452  20.476  0.00  0.00    +0.000 A 
ATOM      8  C   UNL     1       0.894   9.762  20.217  0.00  0.00    +0.000 A 
ATOM      9  C   UNL     1       1.129  10.317  18.964  0.00  0.00    +0.000 A 
ATOM     10  F   UNL     1       0.739  11.571  18.712  0.00  0.00    +0.000 F 
ATOM     11  C   UNL     1       1.761   9.584  17.965  0.00  0.00    +0.000 A 
ATOM     12  C   UNL     1       2.167   8.276  18.223  0.00  0.00    +0.000 A 
ENDBRANCH   3   6
BRANCH   1  13
ATOM     13  C   UNL     1       4.603   3.547  19.016  0.00  0.00    +0.000 C 
BRANCH  13  14
ATOM     14  O   UNL     1       5.075   3.997  17.732  0.00  0.00    +0.000 OA
BRANCH  14  15
ATOM     15  C   UNL     1       6.280   4.637  17.797  0.00  0.00    +0.000 C 
ATOM     16  O   UNL     1       7.111   4.438  18.668  0.00  0.00    +0.000 OA
BRANCH  15  18
ATOM     17  C   UNL     1       7.096   4.961  15.453  0.00  0.00    +0.000 C 
ATOM     18  C   UNL     1       6.449   5.657  16.662  0.00  0.00    +0.000 C 
ATOM     19  C   UNL     1       7.361   6.803  17.116  0.00  0.00    +0.000 C 
ATOM     20  C   UNL     1       5.081   6.205  16.242  0.00  0.00    +0.000 C 
ENDBRANCH  15  18
ENDBRANCH  14  15
ENDBRANCH  13  14
ENDBRANCH   1  13
TORSDOF 5
ENDMDL
MODEL 6
REMARK VINA RESULT:      -6.8      0.806      1.562
REMARK  Name = 
REMARK  8 active torsions:
REMARK  status: ('A' for Active; 'I' for Inactive)
REMARK    1  A    between atoms: C_1  and  C_2
REMARK    2  A    between atoms: C_2  and  C_3
REMARK    3  A    between atoms: C_2  and  C_4
REMARK    4  A    between atoms: C_2  and  C_5
REMARK    5  A    between atoms: C_5  and  O_7
REMARK    6  A    between atoms: O_7  and  C_8
REMARK    7  A    between atoms: C_8  and  C_9
REMARK    8  A    between atoms: C_11  and  C_12
REMARK                            x       y       z     vdW  Elec       q    Type
REMARK                         _______ _______ _______ _____ _____    ______ ____
ROOT
ATOM      1  C   UNL     1       4.209   5.640  18.046  0.00  0.00    +0.000 A 
ATOM      2  N   UNL     1       4.412   5.526  16.751  0.00  0.00    +0.000 NA
ATOM      3  C   UNL     1       5.646   4.943  16.517  0.00  0.00    +0.000 A 
ATOM      4  C   UNL     1       6.385   4.659  17.646  0.00  0.00    +0.000 A 
ATOM      5  S   UNL     1       5.507   5.103  19.045  0.00  0.00    +0.000 S 
ENDROOT
BRANCH   3   6
ATOM      6  C   UNL     1       6.107   4.672  15.166  0.00  0.00    +0.000 A 
ATOM      7  C   UNL     1       7.283   5.277  14.697  0.00  0.00    +0.000 A 
ATOM      8  C   UNL     1       7.732   5.031  13.400  0.00  0.00    +0.000 A 
ATOM      9  C   UNL     1       7.001   4.191  12.568  0.00  0.00    +0.000 A 
ATOM     10  F   UNL     1       7.427   3.962  11.321  0.00  0.00    +0.000 F 
ATOM     11  C   UNL     1       5.829   3.587  13.013  0.00  0.00    +0.000 A 
ATOM     12  C   UNL     1       5.383   3.825  14.310  0.00  0.00    +0.000 A 
ENDBRANCH   3   6
BRANCH   1  13
ATOM     13  C   UNL     1       2.985   6.226  18.687  0.00  0.00    +0.000 C 
BRANCH  13  14
ATOM     14  O   UNL     1       2.230   5.170  19.312  0.00  0.00    +0.000 OA
BRANCH  14  15
ATOM     15  C   UNL     1       1.752   4.253  18.421  0.00  0.00    +0.000 C 
ATOM     16  O   UNL     1       1.174   4.544  17.386  0.00  0.00    +0.000 OA
BRANCH  15  18
ATOM     17  C   UNL     1       2.966   2.123  17.916  0.00  0.00    +0.000 C 
ATOM     18  C   UNL     1       2.000   2.813  18.893  0.00  0.00    +0.000 C 
ATOM     19  C   UNL     1       0.681   2.031  18.915  0.00  0.00    +0.000 C 
ATOM     20  C   UNL     1       2.632   2.821  20.289  0.00  0.00    +0.000 C 
ENDBRANCH  15  18
ENDBRANCH  14  15
ENDBRANCH  13  14
ENDBRANCH   1  13
TORSDOF 5
ENDMDL
MODEL 7
REMARK VINA RESULT:      -6.7      4.125      7.220
REMARK  Name = 
REMARK  8 active torsions:
REMARK  status: ('A' for Active; 'I' for Inactive)
REMARK    1  A    between atoms: C_1  and  C_2
REMARK    2  A    between atoms: C_2  and  C_3
REMARK    3  A    between atoms: C_2  and  C_4
REMARK    4  A    between atoms: C_2  and  C_5
REMARK    5  A    between atoms: C_5  and  O_7
REMARK    6  A    between atoms: O_7  and  C_8
REMARK    7  A    between atoms: C_8  and  C_9
REMARK    8  A    between atoms: C_11  and  C_12
REMARK                            x       y       z     vdW  Elec       q    Type
REMARK                         _______ _______ _______ _____ _____    ______ ____
ROOT
ATOM      1  C   UNL     1       4.436   5.003  19.330  0.00  0.00    +0.000 A 
ATOM      2  N   UNL     1       4.043   6.246  19.153  0.00  0.00    +0.000 NA
ATOM      3  C   UNL     1       2.711   6.375  19.509  0.00  0.00    +0.000 A 
ATOM      4  C   UNL     1       2.097   5.209  19.916  0.00  0.00    +0.000 A 
ATOM      5  S   UNL     1       3.217   3.917  19.883  0.00  0.00    +0.000 S 
ENDROOT
BRANCH   3   6
ATOM      6  C   UNL     1       2.033   7.658  19.440  0.00  0.00    +0.000 A 
ATOM      7  C   UNL     1       2.024   8.376  18.234  0.00  0.00    +0.000 A 
ATOM      8  C   UNL     1       1.384   9.613  18.157  0.00  0.00    +0.000 A 
ATOM      9  C   UNL     1       0.763  10.137  19.285  0.00  0.00    +0.000 A 
ATOM     10  F   UNL     1       0.157  11.326  19.213  0.00  0.00    +0.000 F 
ATOM     11  C   UNL     1       0.767   9.442  20.491  0.00  0.00    +0.000 A 
ATOM     12  C   UNL     1       1.399   8.204  20.569  0.00  0.00    +0.000 A 
ENDBRANCH   3   6
BRANCH   1  13
ATOM     13  C   UNL     1       5.813   4.478  19.051  0.00  0.00    +0.000 C 
BRANCH  13  14
ATOM     14  O   UNL     1       6.494   5.389  18.167  0.00  0.00    +0.000 OA
BRANCH  14  15
ATOM     15  C   UNL     1       7.003   4.781  17.056  0.00  0.00    +0.000 C 
ATOM     16  O   UNL     1       8.073   4.195  17.029  0.00  0.00    +0.000 OA
BRANCH  15  18
ATOM     17  C   UNL     1       6.922   4.836  14.555  0.00  0.00    +0.000 C 
ATOM     18  C   UNL     1       6.084   4.949  15.838  0.00  0.00    +0.000 C 
ATOM     19  C   UNL     1       5.417   6.330  15.869  0.00  0.00    +0.000 C 
ATOM     20  C   UNL     1       5.017   3.848  15.830  0.00  0.00    +0.000 C 
ENDBRANCH  15  18
ENDBRANCH  14  15
ENDBRANCH  13  14
ENDBRANCH   1  13
TORSDOF 5
ENDMDL
MODEL 8
REMARK VINA RESULT:      -6.7      4.366      6.193
REMARK  Name = 
REMARK  8 active torsions:
REMARK  status: ('A' for Active; 'I' for Inactive)
REMARK    1  A    between atoms: C_1  and  C_2
REMARK    2  A    between atoms: C_2  and  C_3
REMARK    3  A    between atoms: C_2  and  C_4
REMARK    4  A    between atoms: C_2  and  C_5
REMARK    5  A    between atoms: C_5  and  O_7
REMARK    6  A    between atoms: O_7  and  C_8
REMARK    7  A    between atoms: C_8  and  C_9
REMARK    8  A    between atoms: C_11  and  C_12
REMARK                            x       y       z     vdW  Elec       q    Type
REMARK                         _______ _______ _______ _____ _____    ______ ____
ROOT
ATOM      1  C   UNL     1       3.865   4.850  17.600  0.00  0.00    +0.000 A 
ATOM      2  N   UNL     1       2.962   5.574  18.225  0.00  0.00    +0.000 NA
ATOM      3  C   UNL     1       3.195   6.919  17.995  0.00  0.00    +0.000 A 
ATOM      4  C   UNL     1       4.306   7.200  17.227  0.00  0.00    +0.000 A 
ATOM      5  S   UNL     1       5.069   5.744  16.750  0.00  0.00    +0.000 S 
ENDROOT
BRANCH   3   6
ATOM      6  C   UNL     1       2.321   7.941  18.545  0.00  0.00    +0.000 A 
ATOM      7  C   UNL     1       1.936   7.876  19.893  0.00  0.00    +0.000 A 
ATOM      8  C   UNL     1       1.091   8.845  20.431  0.00  0.00    +0.000 A 
ATOM      9  C   UNL     1       0.620   9.873  19.620  0.00  0.00    +0.000 A 
ATOM     10  F   UNL     1      -0.198  10.797  20.134  0.00  0.00    +0.000 F 
ATOM     11  C   UNL     1       0.985   9.950  18.280  0.00  0.00    +0.000 A 
ATOM     12  C   UNL     1       1.836   8.987  17.742  0.00  0.00    +0.000 A 
ENDBRANCH   3   6
BRANCH   1  13
ATOM     13  C   UNL     1       3.941   3.351  17.615  0.00  0.00    +0.000 C 
BRANCH  13  14
ATOM     14  O   UNL     1       2.844   2.833  18.390  0.00  0.00    +0.000 OA
BRANCH  14  15
ATOM     15  C   UNL     1       3.145   2.681  19.714  0.00  0.00    +0.000 C 
ATOM     16  O   UNL     1       4.192   2.210  20.125  0.00  0.00    +0.000 OA
BRANCH  15  18
ATOM     17  C   UNL     1       2.318   4.548  21.162  0.00  0.00    +0.000 C 
ATOM     18  C   UNL     1       1.996   3.146  20.619  0.00  0.00    +0.000 C 
ATOM     19  C   UNL     1       1.837   2.185  21.804  0.00  0.00    +0.000 C 
ATOM     20  C   UNL     1       0.691   3.215  19.818  0.00  0.00    +0.000 C 
ENDBRANCH  15  18
ENDBRANCH  14  15
ENDBRANCH  13  14
ENDBRANCH   1  13
TORSDOF 5
ENDMDL
MODEL 9
REMARK VINA RESULT:      -6.7      5.549      8.813
REMARK  Name = 
REMARK  8 active torsions:
REMARK  status: ('A' for Active; 'I' for Inactive)
REMARK    1  A    between atoms: C_1  and  C_2
REMARK    2  A    between atoms: C_2  and  C_3
REMARK    3  A    between atoms: C_2  and  C_4
REMARK    4  A    between atoms: C_2  and  C_5
REMARK    5  A    between atoms: C_5  and  O_7
REMARK    6  A    between atoms: O_7  and  C_8
REMARK    7  A    between atoms: C_8  and  C_9
REMARK    8  A    between atoms: C_11  and  C_12
REMARK                            x       y       z     vdW  Elec       q    Type
REMARK                         _______ _______ _______ _____ _____    ______ ____
ROOT
ATOM      1  C   UNL     1       2.661   6.872  19.237  0.00  0.00    +0.000 A 
ATOM      2  N   UNL     1       1.994   7.354  20.263  0.00  0.00    +0.000 NA
ATOM      3  C   UNL     1       1.454   8.586  19.936  0.00  0.00    +0.000 A 
ATOM      4  C   UNL     1       1.756   9.043  18.670  0.00  0.00    +0.000 A 
ATOM      5  S   UNL     1       2.719   7.892  17.849  0.00  0.00    +0.000 S 
ENDROOT
BRANCH   3   6
ATOM      6  C   UNL     1       0.638   9.327  20.883  0.00  0.00    +0.000 A 
ATOM      7  C   UNL     1      -0.117  10.424  20.442  0.00  0.00    +0.000 A 
ATOM      8  C   UNL     1      -0.897  11.150  21.342  0.00  0.00    +0.000 A 
ATOM      9  C   UNL     1      -0.914  10.786  22.684  0.00  0.00    +0.000 A 
ATOM     10  F   UNL     1      -1.655  11.487  23.549  0.00  0.00    +0.000 F 
ATOM     11  C   UNL     1      -0.167   9.706  23.141  0.00  0.00    +0.000 A 
ATOM     12  C   UNL     1       0.607   8.975  22.243  0.00  0.00    +0.000 A 
ENDBRANCH   3   6
BRANCH   1  13
ATOM     13  C   UNL     1       3.388   5.559  19.212  0.00  0.00    +0.000 C 
BRANCH  13  14
ATOM     14  O   UNL     1       4.474   5.642  18.269  0.00  0.00    +0.000 OA
BRANCH  14  15
ATOM     15  C   UNL     1       5.587   4.959  18.670  0.00  0.00    +0.000 C 
ATOM     16  O   UNL     1       5.563   3.993  19.415  0.00  0.00    +0.000 OA
BRANCH  15  18
ATOM     17  C   UNL     1       7.501   4.581  17.101  0.00  0.00    +0.000 C 
ATOM     18  C   UNL     1       6.872   5.571  18.095  0.00  0.00    +0.000 C 
ATOM     19  C   UNL     1       7.877   5.841  19.222  0.00  0.00    +0.000 C 
ATOM     20  C   UNL     1       6.548   6.873  17.355  0.00  0.00    +0.000 C 
ENDBRANCH  15  18
ENDBRANCH  14  15
ENDBRANCH  13  14
ENDBRANCH   1  13
TORSDOF 5
ENDMDL
