MODEL 1
REMARK VINA RESULT:      -8.4      0.000      0.000
REMARK  Name = 
REMARK  5 active torsions:
REMARK  status: ('A' for Active; 'I' for Inactive)
REMARK    1  A    between atoms: C_2  and  C_20
REMARK    2  A    between atoms: N_3  and  C_4
REMARK    3  A    between atoms: C_4  and  C_5
REMARK    4  A    between atoms: C_5  and  N_6
REMARK    5  A    between atoms: N_9  and  C_10
REMARK                            x       y       z     vdW  Elec       q    Type
REMARK                         _______ _______ _______ _____ _____    ______ ____
ROOT
ATOM      1  N   UNL     1       3.452   4.072  18.279  0.00  0.00    +0.000 NA
ATOM      2  C   UNL     1       2.388   4.253  19.299  0.00  0.00    +0.000 C 
ATOM      3  C   UNL     1       2.651   5.400  20.295  0.00  0.00    +0.000 C 
ATOM      4  N   UNL     1       2.845   6.665  19.571  0.00  0.00    +0.000 N 
ATOM      5  C   UNL     1       3.829   6.622  18.472  0.00  0.00    +0.000 C 
ATOM      6  C   UNL     1       3.611   5.372  17.572  0.00  0.00    +0.000 C 
ENDROOT
BRANCH   4   7
ATOM      7  C   UNL     1       1.979   7.729  19.716  0.00  0.00    +0.000 A 
ATOM      8  C   UNL     1       1.759   8.653  18.684  0.00  0.00    +0.000 A 
ATOM      9  C   UNL     1       0.844   9.705  18.818  0.00  0.00    +0.000 A 
ATOM     10  C   UNL     1       0.122   9.855  19.998  0.00  0.00    +0.000 A 
ATOM     11 CL   UNL     1      -1.005  11.162  20.092  0.00  0.00    +0.000 Cl
ATOM     12  C   UNL     1       0.328   8.958  21.046  0.00  0.00    +0.000 A 
ATOM     13 CL   UNL     1      -0.534   9.070  22.540  0.00  0.00    +0.000 Cl
ATOM     14  C   UNL     1       1.251   7.913  20.901  0.00  0.00    +0.000 A 
ENDBRANCH   4   7
BRANCH   1  15
ATOM     15  C   UNL     1       4.737   3.635  18.871  0.00  0.00    +0.000 C 
BRANCH  15  16
ATOM     16  C   UNL     1       5.969   4.371  18.307  0.00  0.00    +0.000 C 
BRANCH  16  19
ATOM     17  O   UNL     1       7.346   6.121  16.573  0.00  0.00    +0.000 OA
ATOM     18  C   UNL     1       6.812   5.116  16.110  0.00  0.00    +0.000 C 
ATOM     19  N   UNL     1       6.097   4.218  16.874  0.00  0.00    +0.000 N 
ATOM     20  H   UNL     1       5.671   3.433  16.387  0.00  0.00    +0.000 HD
BRANCH  18  21
ATOM     21  C   UNL     1       6.905   4.786  14.653  0.00  0.00    +0.000 A 
ATOM     22  C   UNL     1       6.071   3.809  14.122  0.00  0.00    +0.000 A 
ATOM     23  C   UNL     1       6.183   3.516  12.767  0.00  0.00    +0.000 A 
ATOM     24  C   UNL     1       7.113   4.207  11.997  0.00  0.00    +0.000 A 
ATOM     25  C   UNL     1       7.899   5.173  12.613  0.00  0.00    +0.000 A 
ATOM     26  N   UNL     1       7.821   5.485  13.926  0.00  0.00    +0.000 NA
ENDBRANCH  18  21
ENDBRANCH  16  19
ENDBRANCH  15  16
ENDBRANCH   1  15
TORSDOF 5
ENDMDL
MODEL 2
REMARK VINA RESULT:      -8.1      0.761      1.463
REMARK  Name = 
REMARK  5 active torsions:
REMARK  status: ('A' for Active; 'I' for Inactive)
REMARK    1  A    between atoms: C_2  and  C_20
REMARK    2  A    between atoms: N_3  and  C_4
REMARK    3  A    between atoms: C_4  and  C_5
REMARK    4  A    between atoms: C_5  and  N_6
REMARK    5  A    between atoms: N_9  and  C_10
REMARK                            x       y       z     vdW  Elec       q    Type
REMARK                         _______ _______ _______ _____ _____    ______ ____
ROOT
ATOM      1  N   UNL     1       3.123   4.500  17.950  0.00  0.00    +0.000 NA
ATOM      2  C   UNL     1       1.899   4.519  18.790  0.00  0.00    +0.000 C 
ATOM      3  C   UNL     1       2.053   5.284  20.120  0.00  0.00    +0.000 C 
ATOM      4  N   UNL     1       2.483   6.666  19.862  0.00  0.00    +0.000 N 
ATOM      5  C   UNL     1       3.655   6.812  18.977  0.00  0.00    +0.000 C 
ATOM      6  C   UNL     1       3.517   5.915  17.714  0.00  0.00    +0.000 C 
ENDROOT
BRANCH   4   7
ATOM      7  C   UNL     1       1.691   7.749  20.187  0.00  0.00    +0.000 A 
ATOM      8  C   UNL     1       1.052   7.855  21.431  0.00  0.00    +0.000 A 
ATOM      9  C   UNL     1       0.288   8.976  21.775  0.00  0.00    +0.000 A 
ATOM     10  C   UNL     1       0.147  10.027  20.873  0.00  0.00    +0.000 A 
ATOM     11 CL   UNL     1      -0.793  11.391  21.366  0.00  0.00    +0.000 Cl
ATOM     12  C   UNL     1       0.762   9.945  19.624  0.00  0.00    +0.000 A 
ATOM     13 CL   UNL     1       0.643  11.210  18.451  0.00  0.00    +0.000 Cl
ATOM     14  C   UNL     1       1.520   8.814  19.290  0.00  0.00    +0.000 A 
ENDBRANCH   4   7
BRANCH   1  15
ATOM     15  C   UNL     1       4.230   3.743  18.578  0.00  0.00    +0.000 C 
BRANCH  15  16
ATOM     16  C   UNL     1       5.634   4.223  18.158  0.00  0.00    +0.000 C 
BRANCH  16  19
ATOM     17  O   UNL     1       7.093   6.039  16.566  0.00  0.00    +0.000 OA
ATOM     18  C   UNL     1       6.603   5.043  16.041  0.00  0.00    +0.000 C 
ATOM     19  N   UNL     1       5.853   4.115  16.732  0.00  0.00    +0.000 N 
ATOM     20  H   UNL     1       5.470   3.339  16.197  0.00  0.00    +0.000 HD
BRANCH  18  21
ATOM     21  C   UNL     1       6.792   4.756  14.584  0.00  0.00    +0.000 A 
ATOM     22  C   UNL     1       6.005   3.788  13.973  0.00  0.00    +0.000 A 
ATOM     23  C   UNL     1       6.205   3.536  12.620  0.00  0.00    +0.000 A 
ATOM     24  C   UNL     1       7.174   4.258  11.931  0.00  0.00    +0.000 A 
ATOM     25  C   UNL     1       7.908   5.212  12.623  0.00  0.00    +0.000 A 
ATOM     26  N   UNL     1       7.744   5.485  13.937  0.00  0.00    +0.000 NA
ENDBRANCH  18  21
ENDBRANCH  16  19
ENDBRANCH  15  16
ENDBRANCH   1  15
TORSDOF 5
ENDMDL
MODEL 3
REMARK VINA RESULT:      -8.0      5.598      7.412
REMARK  Name = 
REMARK  5 active torsions:
REMARK  status: ('A' for Active; 'I' for Inactive)
REMARK    1  A    between atoms: C_2  and  C_20
REMARK    2  A    between atoms: N_3  and  C_4
REMARK    3  A    between atoms: C_4  and  C_5
REMARK    4  A    between atoms: C_5  and  N_6
REMARK    5  A    between atoms: N_9  and  C_10
REMARK                            x       y       z     vdW  Elec       q    Type
REMARK                         _______ _______ _______ _____ _____    ______ ____
ROOT
ATOM      1  N   UNL     1       7.605   6.527  17.378  0.00  0.00    +0.000 NA
ATOM      2  C   UNL     1       7.430   5.195  18.012  0.00  0.00    +0.000 C 
ATOM      3  C   UNL     1       6.405   5.170  19.164  0.00  0.00    +0.000 C 
ATOM      4  N   UNL     1       5.100   5.656  18.693  0.00  0.00    +0.000 N 
ATOM      5  C   UNL     1       5.125   6.944  17.974  0.00  0.00    +0.000 C 
ATOM      6  C   UNL     1       6.263   6.974  16.915  0.00  0.00    +0.000 C 
ENDROOT
BRANCH   4   7
ATOM      7  C   UNL     1       3.984   4.844  18.671  0.00  0.00    +0.000 A 
ATOM      8  C   UNL     1       3.496   4.285  17.481  0.00  0.00    +0.000 A 
ATOM      9  C   UNL     1       2.392   3.424  17.468  0.00  0.00    +0.000 A 
ATOM     10  C   UNL     1       1.747   3.101  18.658  0.00  0.00    +0.000 A 
ATOM     11 CL   UNL     1       0.402   2.018  18.577  0.00  0.00    +0.000 Cl
ATOM     12  C   UNL     1       2.202   3.651  19.856  0.00  0.00    +0.000 A 
ATOM     13 CL   UNL     1       1.462   3.293  21.377  0.00  0.00    +0.000 Cl
ATOM     14  C   UNL     1       3.306   4.516  19.854  0.00  0.00    +0.000 A 
ENDBRANCH   4   7
BRANCH   1  15
ATOM     15  C   UNL     1       8.201   7.519  18.300  0.00  0.00    +0.000 C 
BRANCH  15  16
ATOM     16  C   UNL     1       8.287   8.944  17.717  0.00  0.00    +0.000 C 
BRANCH  16  19
ATOM     17  O   UNL     1      10.205  11.006  17.536  0.00  0.00    +0.000 OA
ATOM     18  C   UNL     1       9.503  10.929  18.541  0.00  0.00    +0.000 C 
ATOM     19  N   UNL     1       8.558   9.941  18.729  0.00  0.00    +0.000 N 
ATOM     20  H   UNL     1       8.048   9.952  19.610  0.00  0.00    +0.000 HD
BRANCH  18  21
ATOM     21  C   UNL     1       9.621  11.923  19.653  0.00  0.00    +0.000 A 
ATOM     22  C   UNL     1       9.163  11.585  20.920  0.00  0.00    +0.000 A 
ATOM     23  C   UNL     1       9.278  12.529  21.935  0.00  0.00    +0.000 A 
ATOM     24  C   UNL     1       9.846  13.766  21.648  0.00  0.00    +0.000 A 
ATOM     25  C   UNL     1      10.283  14.013  20.354  0.00  0.00    +0.000 A 
ATOM     26  N   UNL     1      10.188  13.123  19.341  0.00  0.00    +0.000 NA
ENDBRANCH  18  21
ENDBRANCH  16  19
ENDBRANCH  15  16
ENDBRANCH   1  15
TORSDOF 5
ENDMDL
MODEL 4
REMARK VINA RESULT:      -7.9      2.526      3.181
REMARK  Name = 
REMARK  5 active torsions:
REMARK  status: ('A' for Active; 'I' for Inactive)
REMARK    1  A    between atoms: C_2  and  C_20
REMARK    2  A    between atoms: N_3  and  C_4
REMARK    3  A    between atoms: C_4  and  C_5
REMARK    4  A    between atoms: C_5  and  N_6
REMARK    5  A    between atoms: N_9  and  C_10
REMARK                            x       y       z     vdW  Elec       q    Type
REMARK                         _______ _______ _______ _____ _____    ______ ____
ROOT
ATOM      1  N   UNL     1       1.513   2.883  19.721  0.00  0.00    +0.000 NA
ATOM      2  C   UNL     1       1.411   3.701  20.957  0.00  0.00    +0.000 C 
ATOM      3  C   UNL     1       2.389   4.891  21.013  0.00  0.00    +0.000 C 
ATOM      4  N   UNL     1       2.198   5.760  19.842  0.00  0.00    +0.000 N 
ATOM      5  C   UNL     1       2.203   5.074  18.536  0.00  0.00    +0.000 C 
ATOM      6  C   UNL     1       1.311   3.800  18.568  0.00  0.00    +0.000 C 
ENDROOT
BRANCH   4   7
ATOM      7  C   UNL     1       1.766   7.065  19.964  0.00  0.00    +0.000 A 
ATOM      8  C   UNL     1       1.969   8.012  18.950  0.00  0.00    +0.000 A 
ATOM      9  C   UNL     1       1.488   9.322  19.057  0.00  0.00    +0.000 A 
ATOM     10  C   UNL     1       0.787   9.717  20.193  0.00  0.00    +0.000 A 
ATOM     11 CL   UNL     1       0.204  11.343  20.255  0.00  0.00    +0.000 Cl
ATOM     12  C   UNL     1       0.580   8.800  21.223  0.00  0.00    +0.000 A 
ATOM     13 CL   UNL     1      -0.287   9.208  22.662  0.00  0.00    +0.000 Cl
ATOM     14  C   UNL     1       1.071   7.492  21.106  0.00  0.00    +0.000 A 
ENDBRANCH   4   7
BRANCH   1  15
ATOM     15  C   UNL     1       2.811   2.180  19.613  0.00  0.00    +0.000 C 
BRANCH  15  16
ATOM     16  C   UNL     1       3.586   2.491  18.316  0.00  0.00    +0.000 C 
BRANCH  16  19
ATOM     17  O   UNL     1       5.032   3.811  16.285  0.00  0.00    +0.000 OA
ATOM     18  C   UNL     1       5.274   4.076  17.460  0.00  0.00    +0.000 C 
ATOM     19  N   UNL     1       4.637   3.464  18.519  0.00  0.00    +0.000 N 
ATOM     20  H   UNL     1       4.931   3.736  19.455  0.00  0.00    +0.000 HD
BRANCH  18  21
ATOM     21  C   UNL     1       6.294   5.105  17.834  0.00  0.00    +0.000 A 
ATOM     22  C   UNL     1       6.525   6.177  16.980  0.00  0.00    +0.000 A 
ATOM     23  C   UNL     1       7.483   7.116  17.348  0.00  0.00    +0.000 A 
ATOM     24  C   UNL     1       8.166   6.953  18.548  0.00  0.00    +0.000 A 
ATOM     25  C   UNL     1       7.863   5.854  19.342  0.00  0.00    +0.000 A 
ATOM     26  N   UNL     1       6.941   4.920  19.019  0.00  0.00    +0.000 NA
ENDBRANCH  18  21
ENDBRANCH  16  19
ENDBRANCH  15  16
ENDBRANCH   1  15
TORSDOF 5
ENDMDL
MODEL 5
REMARK VINA RESULT:      -7.9      0.697      1.051
REMARK  Name = 
REMARK  5 active torsions:
REMARK  status: ('A' for Active; 'I' for Inactive)
REMARK    1  A    between atoms: C_2  and  C_20
REMARK    2  A    between atoms: N_3  and  C_4
REMARK    3  A    between atoms: C_4  and  C_5
REMARK    4  A    between atoms: C_5  and  N_6
REMARK    5  A    between atoms: N_9  and  C_10
REMARK                            x       y       z     vdW  Elec       q    Type
REMARK                         _______ _______ _______ _____ _____    ______ ____
ROOT
ATOM      1  N   UNL     1       3.533   4.610  17.832  0.00  0.00    +0.000 NA
ATOM      2  C   UNL     1       2.269   4.620  18.612  0.00  0.00    +0.000 C 
ATOM      3  C   UNL     1       2.319   5.476  19.893  0.00  0.00    +0.000 C 
ATOM      4  N   UNL     1       2.694   6.859  19.564  0.00  0.00    +0.000 N 
ATOM      5  C   UNL     1       3.900   7.007  18.726  0.00  0.00    +0.000 C 
ATOM      6  C   UNL     1       3.869   6.025  17.521  0.00  0.00    +0.000 C 
ENDROOT
BRANCH   4   7
ATOM      7  C   UNL     1       1.835   7.918  19.778  0.00  0.00    +0.000 A 
ATOM      8  C   UNL     1       1.528   8.840  18.767  0.00  0.00    +0.000 A 
ATOM      9  C   UNL     1       0.621   9.886  18.974  0.00  0.00    +0.000 A 
ATOM     10  C   UNL     1      -0.005  10.033  20.209  0.00  0.00    +0.000 A 
ATOM     11 CL   UNL     1      -1.129  11.333  20.394  0.00  0.00    +0.000 Cl
ATOM     12  C   UNL     1       0.290   9.138  21.237  0.00  0.00    +0.000 A 
ATOM     13 CL   UNL     1      -0.450   9.245  22.796  0.00  0.00    +0.000 Cl
ATOM     14  C   UNL     1       1.204   8.098  21.018  0.00  0.00    +0.000 A 
ENDBRANCH   4   7
BRANCH   1  15
ATOM     15  C   UNL     1       4.642   3.954  18.560  0.00  0.00    +0.000 C 
BRANCH  15  16
ATOM     16  C   UNL     1       6.041   4.290  18.006  0.00  0.00    +0.000 C 
BRANCH  16  19
ATOM     17  O   UNL     1       7.402   5.993  16.214  0.00  0.00    +0.000 OA
ATOM     18  C   UNL     1       6.834   4.996  15.776  0.00  0.00    +0.000 C 
ATOM     19  N   UNL     1       6.123   4.121  16.571  0.00  0.00    +0.000 N 
ATOM     20  H   UNL     1       5.668   3.339  16.105  0.00  0.00    +0.000 HD
BRANCH  18  21
ATOM     21  C   UNL     1       6.878   4.648  14.322  0.00  0.00    +0.000 A 
ATOM     22  C   UNL     1       7.739   5.342  13.481  0.00  0.00    +0.000 A 
ATOM     23  C   UNL     1       7.755   5.004  12.132  0.00  0.00    +0.000 A 
ATOM     24  C   UNL     1       6.919   3.990  11.676  0.00  0.00    +0.000 A 
ATOM     25  C   UNL     1       6.096   3.346  12.591  0.00  0.00    +0.000 A 
ATOM     26  N   UNL     1       6.051   3.646  13.908  0.00  0.00    +0.000 NA
ENDBRANCH  18  21
ENDBRANCH  16  19
ENDBRANCH  15  16
ENDBRANCH   1  15
TORSDOF 5
ENDMDL
MODEL 6
REMARK VINA RESULT:      -7.9      2.547      3.478
REMARK  Name = 
REMARK  5 active torsions:
REMARK  status: ('A' for Active; 'I' for Inactive)
REMARK    1  A    between atoms: C_2  and  C_20
REMARK    2  A    between atoms: N_3  and  C_4
REMARK    3  A    between atoms: C_4  and  C_5
REMARK    4  A    between atoms: C_5  and  N_6
REMARK    5  A    between atoms: N_9  and  C_10
REMARK                            x       y       z     vdW  Elec       q    Type
REMARK                         _______ _______ _______ _____ _____    ______ ____
ROOT
ATOM      1  N   UNL     1       1.591   2.703  18.961  0.00  0.00    +0.000 NA
ATOM      2  C   UNL     1       1.268   3.340  20.263  0.00  0.00    +0.000 C 
ATOM      3  C   UNL     1       2.228   4.476  20.670  0.00  0.00    +0.000 C 
ATOM      4  N   UNL     1       2.266   5.508  19.624  0.00  0.00    +0.000 N 
ATOM      5  C   UNL     1       2.508   5.014  18.255  0.00  0.00    +0.000 C 
ATOM      6  C   UNL     1       1.615   3.782  17.936  0.00  0.00    +0.000 C 
ENDROOT
BRANCH   4   7
ATOM      7  C   UNL     1       1.830   6.797  19.855  0.00  0.00    +0.000 A 
ATOM      8  C   UNL     1       1.205   7.165  21.055  0.00  0.00    +0.000 A 
ATOM      9  C   UNL     1       0.806   8.484  21.304  0.00  0.00    +0.000 A 
ATOM     10  C   UNL     1       1.027   9.472  20.349  0.00  0.00    +0.000 A 
ATOM     11 CL   UNL     1       0.529  11.083  20.726  0.00  0.00    +0.000 Cl
ATOM     12  C   UNL     1       1.637   9.133  19.141  0.00  0.00    +0.000 A 
ATOM     13 CL   UNL     1       1.955  10.301  17.907  0.00  0.00    +0.000 Cl
ATOM     14  C   UNL     1       2.026   7.808  18.901  0.00  0.00    +0.000 A 
ENDBRANCH   4   7
BRANCH   1  15
ATOM     15  C   UNL     1       2.880   1.977  18.990  0.00  0.00    +0.000 C 
BRANCH  15  16
ATOM     16  C   UNL     1       3.821   2.323  17.818  0.00  0.00    +0.000 C 
BRANCH  16  19
ATOM     17  O   UNL     1       5.492   3.704  16.012  0.00  0.00    +0.000 OA
ATOM     18  C   UNL     1       5.547   3.980  17.208  0.00  0.00    +0.000 C 
ATOM     19  N   UNL     1       4.788   3.341  18.167  0.00  0.00    +0.000 N 
ATOM     20  H   UNL     1       4.930   3.626  19.133  0.00  0.00    +0.000 HD
BRANCH  18  21
ATOM     21  C   UNL     1       6.455   5.052  17.720  0.00  0.00    +0.000 A 
ATOM     22  C   UNL     1       6.694   6.175  16.937  0.00  0.00    +0.000 A 
ATOM     23  C   UNL     1       7.548   7.154  17.433  0.00  0.00    +0.000 A 
ATOM     24  C   UNL     1       8.124   6.979  18.687  0.00  0.00    +0.000 A 
ATOM     25  C   UNL     1       7.821   5.829  19.404  0.00  0.00    +0.000 A 
ATOM     26  N   UNL     1       6.998   4.855  18.955  0.00  0.00    +0.000 NA
ENDBRANCH  18  21
ENDBRANCH  16  19
ENDBRANCH  15  16
ENDBRANCH   1  15
TORSDOF 5
ENDMDL
MODEL 7
REMARK VINA RESULT:      -7.8      0.936      1.227
REMARK  Name = 
REMARK  5 active torsions:
REMARK  status: ('A' for Active; 'I' for Inactive)
REMARK    1  A    between atoms: C_2  and  C_20
REMARK    2  A    between atoms: N_3  and  C_4
REMARK    3  A    between atoms: C_4  and  C_5
REMARK    4  A    between atoms: C_5  and  N_6
REMARK    5  A    between atoms: N_9  and  C_10
REMARK                            x       y       z     vdW  Elec       q    Type
REMARK                         _______ _______ _______ _____ _____    ______ ____
ROOT
ATOM      1  N   UNL     1       3.466   4.081  19.288  0.00  0.00    +0.000 NA
ATOM      2  C   UNL     1       4.180   5.340  19.623  0.00  0.00    +0.000 C 
ATOM      3  C   UNL     1       3.940   6.491  18.625  0.00  0.00    +0.000 C 
ATOM      4  N   UNL     1       2.501   6.769  18.509  0.00  0.00    +0.000 N 
ATOM      5  C   UNL     1       1.647   5.594  18.246  0.00  0.00    +0.000 C 
ATOM      6  C   UNL     1       2.019   4.410  19.184  0.00  0.00    +0.000 C 
ENDROOT
BRANCH   4   7
ATOM      7  C   UNL     1       1.958   7.978  18.893  0.00  0.00    +0.000 A 
ATOM      8  C   UNL     1       1.761   9.026  17.983  0.00  0.00    +0.000 A 
ATOM      9  C   UNL     1       1.166  10.234  18.366  0.00  0.00    +0.000 A 
ATOM     10  C   UNL     1       0.751  10.421  19.682  0.00  0.00    +0.000 A 
ATOM     11 CL   UNL     1       0.007  11.927  20.086  0.00  0.00    +0.000 Cl
ATOM     12  C   UNL     1       0.944   9.400  20.612  0.00  0.00    +0.000 A 
ATOM     13 CL   UNL     1       0.450   9.548  22.262  0.00  0.00    +0.000 Cl
ATOM     14  C   UNL     1       1.546   8.197  20.217  0.00  0.00    +0.000 A 
ENDBRANCH   4   7
BRANCH   1  15
ATOM     15  C   UNL     1       3.957   3.467  18.034  0.00  0.00    +0.000 C 
BRANCH  15  16
ATOM     16  C   UNL     1       5.484   3.572  17.842  0.00  0.00    +0.000 C 
BRANCH  16  19
ATOM     17  O   UNL     1       6.142   5.893  16.377  0.00  0.00    +0.000 OA
ATOM     18  C   UNL     1       6.193   4.799  15.820  0.00  0.00    +0.000 C 
ATOM     19  N   UNL     1       5.865   3.615  16.447  0.00  0.00    +0.000 N 
ATOM     20  H   UNL     1       5.915   2.767  15.886  0.00  0.00    +0.000 HD
BRANCH  18  21
ATOM     21  C   UNL     1       6.627   4.670  14.394  0.00  0.00    +0.000 A 
ATOM     22  C   UNL     1       5.982   3.761  13.565  0.00  0.00    +0.000 A 
ATOM     23  C   UNL     1       6.410   3.655  12.246  0.00  0.00    +0.000 A 
ATOM     24  C   UNL     1       7.456   4.459  11.806  0.00  0.00    +0.000 A 
ATOM     25  C   UNL     1       8.037   5.345  12.703  0.00  0.00    +0.000 A 
ATOM     26  N   UNL     1       7.650   5.476  13.992  0.00  0.00    +0.000 NA
ENDBRANCH  18  21
ENDBRANCH  16  19
ENDBRANCH  15  16
ENDBRANCH   1  15
TORSDOF 5
ENDMDL
MODEL 8
REMARK VINA RESULT:      -7.8      1.232      1.572
REMARK  Name = 
REMARK  5 active torsions:
REMARK  status: ('A' for Active; 'I' for Inactive)
REMARK    1  A    between atoms: C_2  and  C_20
REMARK    2  A    between atoms: N_3  and  C_4
REMARK    3  A    between atoms: C_4  and  C_5
REMARK    4  A    between atoms: C_5  and  N_6
REMARK    5  A    between atoms: N_9  and  C_10
REMARK                            x       y       z     vdW  Elec       q    Type
REMARK                         _______ _______ _______ _____ _____    ______ ____
ROOT
ATOM      1  N   UNL     1       2.745   5.619  18.639  0.00  0.00    +0.000 NA
ATOM      2  C   UNL     1       1.979   5.957  19.866  0.00  0.00    +0.000 C 
ATOM      3  C   UNL     1       2.247   7.374  20.411  0.00  0.00    +0.000 C 
ATOM      4  N   UNL     1       1.964   8.378  19.375  0.00  0.00    +0.000 N 
ATOM      5  C   UNL     1       2.604   8.136  18.067  0.00  0.00    +0.000 C 
ATOM      6  C   UNL     1       2.426   6.657  17.621  0.00  0.00    +0.000 C 
ENDROOT
BRANCH   4   7
ATOM      7  C   UNL     1       0.961   9.315  19.520  0.00  0.00    +0.000 A 
ATOM      8  C   UNL     1       0.313   9.884  18.415  0.00  0.00    +0.000 A 
ATOM      9  C   UNL     1      -0.736  10.799  18.566  0.00  0.00    +0.000 A 
ATOM     10  C   UNL     1      -1.163  11.166  19.839  0.00  0.00    +0.000 A 
ATOM     11 CL   UNL     1      -2.475  12.285  19.957  0.00  0.00    +0.000 Cl
ATOM     12  C   UNL     1      -0.529  10.625  20.957  0.00  0.00    +0.000 A 
ATOM     13 CL   UNL     1      -1.004  11.022  22.571  0.00  0.00    +0.000 Cl
ATOM     14  C   UNL     1       0.524   9.714  20.792  0.00  0.00    +0.000 A 
ENDBRANCH   4   7
BRANCH   1  15
ATOM     15  C   UNL     1       4.203   5.551  18.882  0.00  0.00    +0.000 C 
BRANCH  15  16
ATOM     16  C   UNL     1       4.865   4.260  18.361  0.00  0.00    +0.000 C 
BRANCH  16  19
ATOM     17  O   UNL     1       7.479   4.558  17.339  0.00  0.00    +0.000 OA
ATOM     18  C   UNL     1       6.537   4.469  16.556  0.00  0.00    +0.000 C 
ATOM     19  N   UNL     1       5.224   4.347  16.962  0.00  0.00    +0.000 N 
ATOM     20  H   UNL     1       4.517   4.307  16.232  0.00  0.00    +0.000 HD
BRANCH  18  21
ATOM     21  C   UNL     1       6.750   4.482  15.075  0.00  0.00    +0.000 A 
ATOM     22  C   UNL     1       5.994   3.638  14.270  0.00  0.00    +0.000 A 
ATOM     23  C   UNL     1       6.217   3.664  12.898  0.00  0.00    +0.000 A 
ATOM     24  C   UNL     1       7.177   4.530  12.383  0.00  0.00    +0.000 A 
ATOM     25  C   UNL     1       7.879   5.343  13.262  0.00  0.00    +0.000 A 
ATOM     26  N   UNL     1       7.693   5.345  14.601  0.00  0.00    +0.000 NA
ENDBRANCH  18  21
ENDBRANCH  16  19
ENDBRANCH  15  16
ENDBRANCH   1  15
TORSDOF 5
ENDMDL
MODEL 9
REMARK VINA RESULT:      -7.7      1.462      1.863
REMARK  Name = 
REMARK  5 active torsions:
REMARK  status: ('A' for Active; 'I' for Inactive)
REMARK    1  A    between atoms: C_2  and  C_20
REMARK    2  A    between atoms: N_3  and  C_4
REMARK    3  A    between atoms: C_4  and  C_5
REMARK    4  A    between atoms: C_5  and  N_6
REMARK    5  A    between atoms: N_9  and  C_10
REMARK                            x       y       z     vdW  Elec       q    Type
REMARK                         _______ _______ _______ _____ _____    ______ ____
ROOT
ATOM      1  N   UNL     1       2.057   4.063  19.449  0.00  0.00    +0.000 NA
ATOM      2  C   UNL     1       1.180   4.783  20.408  0.00  0.00    +0.000 C 
ATOM      3  C   UNL     1       1.800   6.067  20.995  0.00  0.00    +0.000 C 
ATOM      4  N   UNL     1       2.187   6.983  19.913  0.00  0.00    +0.000 N 
ATOM      5  C   UNL     1       3.008   6.388  18.841  0.00  0.00    +0.000 C 
ATOM      6  C   UNL     1       2.420   5.026  18.375  0.00  0.00    +0.000 C 
ENDROOT
BRANCH   4   7
ATOM      7  C   UNL     1       1.600   8.223  19.762  0.00  0.00    +0.000 A 
ATOM      8  C   UNL     1       1.611   8.904  18.536  0.00  0.00    +0.000 A 
ATOM      9  C   UNL     1       0.974  10.140  18.374  0.00  0.00    +0.000 A 
ATOM     10  C   UNL     1       0.305  10.727  19.445  0.00  0.00    +0.000 A 
ATOM     11 CL   UNL     1      -0.477  12.244  19.174  0.00  0.00    +0.000 Cl
ATOM     12  C   UNL     1       0.288  10.078  20.679  0.00  0.00    +0.000 A 
ATOM     13 CL   UNL     1      -0.526  10.734  22.056  0.00  0.00    +0.000 Cl
ATOM     14  C   UNL     1       0.935   8.843  20.830  0.00  0.00    +0.000 A 
ENDBRANCH   4   7
BRANCH   1  15
ATOM     15  C   UNL     1       3.270   3.513  20.095  0.00  0.00    +0.000 C 
BRANCH  15  16
ATOM     16  C   UNL     1       3.981   2.425  19.267  0.00  0.00    +0.000 C 
BRANCH  16  19
ATOM     17  O   UNL     1       6.123   4.236  18.959  0.00  0.00    +0.000 OA
ATOM     18  C   UNL     1       5.563   3.797  17.958  0.00  0.00    +0.000 C 
ATOM     19  N   UNL     1       4.492   2.929  18.011  0.00  0.00    +0.000 N 
ATOM     20  H   UNL     1       4.082   2.647  17.123  0.00  0.00    +0.000 HD
BRANCH  18  21
ATOM     21  C   UNL     1       6.012   4.177  16.583  0.00  0.00    +0.000 A 
ATOM     22  C   UNL     1       5.140   4.017  15.513  0.00  0.00    +0.000 A 
ATOM     23  C   UNL     1       5.586   4.371  14.243  0.00  0.00    +0.000 A 
ATOM     24  C   UNL     1       6.874   4.872  14.092  0.00  0.00    +0.000 A 
ATOM     25  C   UNL     1       7.673   5.005  15.220  0.00  0.00    +0.000 A 
ATOM     26  N   UNL     1       7.278   4.671  16.469  0.00  0.00    +0.000 NA
ENDBRANCH  18  21
ENDBRANCH  16  19
ENDBRANCH  15  16
ENDBRANCH   1  15
TORSDOF 5
ENDMDL
