MODEL 1
REMARK VINA RESULT:      -8.7      0.000      0.000
REMARK  Name = 
REMARK  5 active torsions:
REMARK  status: ('A' for Active; 'I' for Inactive)
REMARK    1  A    between atoms: S_2  and  C_4
REMARK    2  A    between atoms: S_2  and  N_26
REMARK    3  A    between atoms: N_11  and  C_12
REMARK    4  A    between atoms: N_22  and  C_23
REMARK    5  A    between atoms: C_29  and  O_30
REMARK                            x       y       z     vdW  Elec       q    Type
REMARK                         _______ _______ _______ _____ _____    ______ ____
ROOT
ATOM      1  C   UNL     1       0.908   9.273  20.125  0.00  0.00    +0.000 A 
ATOM      2  C   UNL     1       0.536   8.614  21.297  0.00  0.00    +0.000 A 
ATOM      3  C   UNL     1       0.902   7.279  21.511  0.00  0.00    +0.000 A 
ATOM      4  C   UNL     1       1.659   6.640  20.515  0.00  0.00    +0.000 A 
ATOM      5  C   UNL     1       2.032   7.284  19.333  0.00  0.00    +0.000 A 
ATOM      6  C   UNL     1       1.642   8.622  19.122  0.00  0.00    +0.000 A 
ATOM      7  C   UNL     1       2.810   6.329  18.619  0.00  0.00    +0.000 A 
ATOM      8  N   UNL     1       3.368   6.583  17.410  0.00  0.00    +0.000 N 
ATOM      9  N   UNL     1       2.926   5.188  19.295  0.00  0.00    +0.000 NA
ATOM     10  N   UNL     1       2.211   5.381  20.412  0.00  0.00    +0.000 N 
ATOM     11  H   UNL     1       3.022   7.368  16.868  0.00  0.00    +0.000 HD
ENDROOT
BRANCH   8  12
ATOM     12  C   UNL     1       4.596   6.092  16.916  0.00  0.00    +0.000 A 
ATOM     13  C   UNL     1       5.772   6.811  17.160  0.00  0.00    +0.000 A 
ATOM     14  C   UNL     1       6.992   6.352  16.660  0.00  0.00    +0.000 A 
ATOM     15  F   UNL     1       8.104   7.059  16.903  0.00  0.00    +0.000 F 
ATOM     16  C   UNL     1       7.060   5.180  15.922  0.00  0.00    +0.000 A 
ATOM     17  F   UNL     1       8.240   4.735  15.466  0.00  0.00    +0.000 F 
ATOM     18  C   UNL     1       5.898   4.471  15.662  0.00  0.00    +0.000 A 
ATOM     19  F   UNL     1       5.946   3.330  14.961  0.00  0.00    +0.000 F 
ATOM     20  C   UNL     1       4.672   4.926  16.137  0.00  0.00    +0.000 A 
ENDBRANCH   8  12
BRANCH   1  22
ATOM     21  O   UNL     1       0.387  11.599  21.126  0.00  0.00    +0.000 OA
ATOM     22  S   UNL     1       0.384  10.945  19.835  0.00  0.00    +0.000 S 
ATOM     23  O   UNL     1       1.134  11.478  18.716  0.00  0.00    +0.000 OA
BRANCH  22  24
ATOM     24  N   UNL     1      -1.257  10.794  19.318  0.00  0.00    +0.000 NA
ATOM     25  C   UNL     1      -1.418  10.076  18.018  0.00  0.00    +0.000 C 
ATOM     26  C   UNL     1      -2.898   9.857  17.722  0.00  0.00    +0.000 C 
ATOM     27  C   UNL     1      -3.680  11.167  17.722  0.00  0.00    +0.000 C 
ATOM     28  C   UNL     1      -3.432  11.959  19.000  0.00  0.00    +0.000 C 
ATOM     29  C   UNL     1      -1.946  12.122  19.300  0.00  0.00    +0.000 C 
BRANCH  27  30
ATOM     30  O   UNL     1      -3.365  11.945  16.568  0.00  0.00    +0.000 OA
ATOM     31  H   UNL     1      -3.503  11.420  15.763  0.00  0.00    +0.000 HD
ENDBRANCH  27  30
ENDBRANCH  22  24
ENDBRANCH   1  22
BRANCH  10  32
ATOM     32  C   UNL     1       2.124   4.349  21.432  0.00  0.00    +0.000 C 
ATOM     33  C   UNL     1       1.240   3.120  21.262  0.00  0.00    +0.000 C 
ATOM     34  C   UNL     1       2.719   2.971  21.176  0.00  0.00    +0.000 C 
ENDBRANCH  10  32
TORSDOF 5
ENDMDL
MODEL 2
REMARK VINA RESULT:      -8.6      0.125      1.454
REMARK  Name = 
REMARK  5 active torsions:
REMARK  status: ('A' for Active; 'I' for Inactive)
REMARK    1  A    between atoms: S_2  and  C_4
REMARK    2  A    between atoms: S_2  and  N_26
REMARK    3  A    between atoms: N_11  and  C_12
REMARK    4  A    between atoms: N_22  and  C_23
REMARK    5  A    between atoms: C_29  and  O_30
REMARK                            x       y       z     vdW  Elec       q    Type
REMARK                         _______ _______ _______ _____ _____    ______ ____
ROOT
ATOM      1  C   UNL     1       0.880   9.335  20.100  0.00  0.00    +0.000 A 
ATOM      2  C   UNL     1       0.515   8.671  21.272  0.00  0.00    +0.000 A 
ATOM      3  C   UNL     1       0.900   7.342  21.488  0.00  0.00    +0.000 A 
ATOM      4  C   UNL     1       1.670   6.714  20.493  0.00  0.00    +0.000 A 
ATOM      5  C   UNL     1       2.035   7.363  19.312  0.00  0.00    +0.000 A 
ATOM      6  C   UNL     1       1.626   8.695  19.100  0.00  0.00    +0.000 A 
ATOM      7  C   UNL     1       2.829   6.420  18.601  0.00  0.00    +0.000 A 
ATOM      8  N   UNL     1       3.387   6.681  17.393  0.00  0.00    +0.000 N 
ATOM      9  N   UNL     1       2.961   5.280  19.277  0.00  0.00    +0.000 NA
ATOM     10  N   UNL     1       2.240   5.463  20.393  0.00  0.00    +0.000 N 
ATOM     11  H   UNL     1       3.031   7.461  16.850  0.00  0.00    +0.000 HD
ENDROOT
BRANCH   8  12
ATOM     12  C   UNL     1       4.623   6.208  16.903  0.00  0.00    +0.000 A 
ATOM     13  C   UNL     1       4.645   5.106  16.039  0.00  0.00    +0.000 A 
ATOM     14  C   UNL     1       5.859   4.610  15.563  0.00  0.00    +0.000 A 
ATOM     15  F   UNL     1       5.855   3.553  14.740  0.00  0.00    +0.000 F 
ATOM     16  C   UNL     1       7.059   5.202  15.930  0.00  0.00    +0.000 A 
ATOM     17  F   UNL     1       8.219   4.733  15.448  0.00  0.00    +0.000 F 
ATOM     18  C   UNL     1       7.047   6.283  16.797  0.00  0.00    +0.000 A 
ATOM     19  F   UNL     1       8.196   6.874  17.154  0.00  0.00    +0.000 F 
ATOM     20  C   UNL     1       5.846   6.774  17.296  0.00  0.00    +0.000 A 
ENDBRANCH   8  12
BRANCH   1  22
ATOM     21  O   UNL     1       0.324  11.654  21.100  0.00  0.00    +0.000 OA
ATOM     22  S   UNL     1       0.332  10.999  19.809  0.00  0.00    +0.000 S 
ATOM     23  O   UNL     1       1.075  11.543  18.691  0.00  0.00    +0.000 OA
BRANCH  22  24
ATOM     24  N   UNL     1      -1.306  10.824  19.290  0.00  0.00    +0.000 NA
ATOM     25  C   UNL     1      -1.454  10.118  17.982  0.00  0.00    +0.000 C 
ATOM     26  C   UNL     1      -2.930   9.875  17.684  0.00  0.00    +0.000 C 
ATOM     27  C   UNL     1      -3.736  11.171  17.698  0.00  0.00    +0.000 C 
ATOM     28  C   UNL     1      -3.502  11.952  18.985  0.00  0.00    +0.000 C 
ATOM     29  C   UNL     1      -2.019  12.140  19.287  0.00  0.00    +0.000 C 
BRANCH  27  30
ATOM     30  O   UNL     1      -3.435  11.967  16.553  0.00  0.00    +0.000 OA
ATOM     31  H   UNL     1      -4.023  12.739  16.519  0.00  0.00    +0.000 HD
ENDBRANCH  27  30
ENDBRANCH  22  24
ENDBRANCH   1  22
BRANCH  10  32
ATOM     32  C   UNL     1       2.165   4.431  21.413  0.00  0.00    +0.000 C 
ATOM     33  C   UNL     1       1.249   3.221  21.271  0.00  0.00    +0.000 C 
ATOM     34  C   UNL     1       2.721   3.040  21.133  0.00  0.00    +0.000 C 
ENDBRANCH  10  32
TORSDOF 5
ENDMDL
MODEL 3
REMARK VINA RESULT:      -8.6      5.097      8.516
REMARK  Name = 
REMARK  5 active torsions:
REMARK  status: ('A' for Active; 'I' for Inactive)
REMARK    1  A    between atoms: S_2  and  C_4
REMARK    2  A    between atoms: S_2  and  N_26
REMARK    3  A    between atoms: N_11  and  C_12
REMARK    4  A    between atoms: N_22  and  C_23
REMARK    5  A    between atoms: C_29  and  O_30
REMARK                            x       y       z     vdW  Elec       q    Type
REMARK                         _______ _______ _______ _____ _____    ______ ____
ROOT
ATOM      1  C   UNL     1       5.433   5.048  17.154  0.00  0.00    +0.000 A 
ATOM      2  C   UNL     1       5.049   3.718  17.328  0.00  0.00    +0.000 A 
ATOM      3  C   UNL     1       3.919   3.395  18.090  0.00  0.00    +0.000 A 
ATOM      4  C   UNL     1       3.189   4.454  18.658  0.00  0.00    +0.000 A 
ATOM      5  C   UNL     1       3.565   5.789  18.499  0.00  0.00    +0.000 A 
ATOM      6  C   UNL     1       4.715   6.099  17.744  0.00  0.00    +0.000 A 
ATOM      7  C   UNL     1       2.565   6.540  19.177  0.00  0.00    +0.000 A 
ATOM      8  N   UNL     1       2.571   7.894  19.244  0.00  0.00    +0.000 N 
ATOM      9  N   UNL     1       1.634   5.750  19.709  0.00  0.00    +0.000 NA
ATOM     10  N   UNL     1       2.036   4.506  19.412  0.00  0.00    +0.000 N 
ATOM     11  H   UNL     1       3.433   8.388  19.037  0.00  0.00    +0.000 HD
ENDROOT
BRANCH   8  12
ATOM     12  C   UNL     1       1.452   8.754  19.259  0.00  0.00    +0.000 A 
ATOM     13  C   UNL     1       0.981   9.250  20.481  0.00  0.00    +0.000 A 
ATOM     14  C   UNL     1      -0.137  10.083  20.518  0.00  0.00    +0.000 A 
ATOM     15  F   UNL     1      -0.572  10.543  21.699  0.00  0.00    +0.000 F 
ATOM     16  C   UNL     1      -0.796  10.437  19.349  0.00  0.00    +0.000 A 
ATOM     17  F   UNL     1      -1.856  11.257  19.392  0.00  0.00    +0.000 F 
ATOM     18  C   UNL     1      -0.346   9.938  18.137  0.00  0.00    +0.000 A 
ATOM     19  F   UNL     1      -0.962  10.278  16.997  0.00  0.00    +0.000 F 
ATOM     20  C   UNL     1       0.755   9.090  18.087  0.00  0.00    +0.000 A 
ENDBRANCH   8  12
BRANCH   1  22
ATOM     21  O   UNL     1       7.100   6.868  16.386  0.00  0.00    +0.000 OA
ATOM     22  S   UNL     1       6.903   5.441  16.239  0.00  0.00    +0.000 S 
ATOM     23  O   UNL     1       7.939   4.495  16.598  0.00  0.00    +0.000 OA
BRANCH  22  24
ATOM     24  N   UNL     1       6.479   5.129  14.595  0.00  0.00    +0.000 NA
ATOM     25  C   UNL     1       5.565   3.960  14.418  0.00  0.00    +0.000 C 
ATOM     26  C   UNL     1       5.126   3.856  12.961  0.00  0.00    +0.000 C 
ATOM     27  C   UNL     1       6.316   3.766  12.011  0.00  0.00    +0.000 C 
ATOM     28  C   UNL     1       7.309   4.894  12.261  0.00  0.00    +0.000 C 
ATOM     29  C   UNL     1       7.696   5.008  13.732  0.00  0.00    +0.000 C 
BRANCH  27  30
ATOM     30  O   UNL     1       6.951   2.493  12.113  0.00  0.00    +0.000 OA
ATOM     31  H   UNL     1       6.519   1.957  12.798  0.00  0.00    +0.000 HD
ENDBRANCH  27  30
ENDBRANCH  22  24
ENDBRANCH   1  22
BRANCH  10  32
ATOM     32  C   UNL     1       1.247   3.350  19.805  0.00  0.00    +0.000 C 
ATOM     33  C   UNL     1       1.890   2.084  20.355  0.00  0.00    +0.000 C 
ATOM     34  C   UNL     1       1.129   2.972  21.275  0.00  0.00    +0.000 C 
ENDBRANCH  10  32
TORSDOF 5
ENDMDL
MODEL 4
REMARK VINA RESULT:      -8.5      5.087      8.572
REMARK  Name = 
REMARK  5 active torsions:
REMARK  status: ('A' for Active; 'I' for Inactive)
REMARK    1  A    between atoms: S_2  and  C_4
REMARK    2  A    between atoms: S_2  and  N_26
REMARK    3  A    between atoms: N_11  and  C_12
REMARK    4  A    between atoms: N_22  and  C_23
REMARK    5  A    between atoms: C_29  and  O_30
REMARK                            x       y       z     vdW  Elec       q    Type
REMARK                         _______ _______ _______ _____ _____    ______ ____
ROOT
ATOM      1  C   UNL     1       5.442   5.047  17.169  0.00  0.00    +0.000 A 
ATOM      2  C   UNL     1       5.069   3.713  17.331  0.00  0.00    +0.000 A 
ATOM      3  C   UNL     1       3.948   3.374  18.100  0.00  0.00    +0.000 A 
ATOM      4  C   UNL     1       3.215   4.420  18.686  0.00  0.00    +0.000 A 
ATOM      5  C   UNL     1       3.582   5.760  18.539  0.00  0.00    +0.000 A 
ATOM      6  C   UNL     1       4.722   6.086  17.778  0.00  0.00    +0.000 A 
ATOM      7  C   UNL     1       2.582   6.497  19.235  0.00  0.00    +0.000 A 
ATOM      8  N   UNL     1       2.580   7.849  19.317  0.00  0.00    +0.000 N 
ATOM      9  N   UNL     1       1.661   5.693  19.765  0.00  0.00    +0.000 NA
ATOM     10  N   UNL     1       2.069   4.456  19.451  0.00  0.00    +0.000 N 
ATOM     11  H   UNL     1       3.436   8.352  19.108  0.00  0.00    +0.000 HD
ENDROOT
BRANCH   8  12
ATOM     12  C   UNL     1       1.455   8.702  19.352  0.00  0.00    +0.000 A 
ATOM     13  C   UNL     1       0.823   9.057  18.154  0.00  0.00    +0.000 A 
ATOM     14  C   UNL     1      -0.276   9.916  18.167  0.00  0.00    +0.000 A 
ATOM     15  F   UNL     1      -0.862  10.245  17.007  0.00  0.00    +0.000 F 
ATOM     16  C   UNL     1      -0.763  10.426  19.361  0.00  0.00    +0.000 A 
ATOM     17  F   UNL     1      -1.834  11.233  19.366  0.00  0.00    +0.000 F 
ATOM     18  C   UNL     1      -0.133  10.093  20.551  0.00  0.00    +0.000 A 
ATOM     19  F   UNL     1      -0.596  10.567  21.715  0.00  0.00    +0.000 F 
ATOM     20  C   UNL     1       0.976   9.254  20.551  0.00  0.00    +0.000 A 
ENDBRANCH   8  12
BRANCH   1  22
ATOM     21  O   UNL     1       7.073   6.892  16.382  0.00  0.00    +0.000 OA
ATOM     22  S   UNL     1       6.901   5.461  16.246  0.00  0.00    +0.000 S 
ATOM     23  O   UNL     1       7.956   4.536  16.606  0.00  0.00    +0.000 OA
BRANCH  22  24
ATOM     24  N   UNL     1       6.476   5.130  14.605  0.00  0.00    +0.000 NA
ATOM     25  C   UNL     1       5.575   3.950  14.441  0.00  0.00    +0.000 C 
ATOM     26  C   UNL     1       5.133   3.829  12.986  0.00  0.00    +0.000 C 
ATOM     27  C   UNL     1       6.321   3.744  12.033  0.00  0.00    +0.000 C 
ATOM     28  C   UNL     1       7.304   4.885  12.272  0.00  0.00    +0.000 C 
ATOM     29  C   UNL     1       7.692   5.015  13.741  0.00  0.00    +0.000 C 
BRANCH  27  30
ATOM     30  O   UNL     1       6.970   2.478  12.144  0.00  0.00    +0.000 OA
ATOM     31  H   UNL     1       7.932   2.588  12.074  0.00  0.00    +0.000 HD
ENDBRANCH  27  30
ENDBRANCH  22  24
ENDBRANCH   1  22
BRANCH  10  32
ATOM     32  C   UNL     1       1.291   3.290  19.837  0.00  0.00    +0.000 C 
ATOM     33  C   UNL     1       1.946   2.035  20.400  0.00  0.00    +0.000 C 
ATOM     34  C   UNL     1       1.160   2.915  21.307  0.00  0.00    +0.000 C 
ENDBRANCH  10  32
TORSDOF 5
ENDMDL
MODEL 5
REMARK VINA RESULT:      -8.0      3.474      6.033
REMARK  Name = 
REMARK  5 active torsions:
REMARK  status: ('A' for Active; 'I' for Inactive)
REMARK    1  A    between atoms: S_2  and  C_4
REMARK    2  A    between atoms: S_2  and  N_26
REMARK    3  A    between atoms: N_11  and  C_12
REMARK    4  A    between atoms: N_22  and  C_23
REMARK    5  A    between atoms: C_29  and  O_30
REMARK                            x       y       z     vdW  Elec       q    Type
REMARK                         _______ _______ _______ _____ _____    ______ ____
ROOT
ATOM      1  C   UNL     1      -1.636  12.888  20.838  0.00  0.00    +0.000 A 
ATOM      2  C   UNL     1      -2.861  12.892  20.169  0.00  0.00    +0.000 A 
ATOM      3  C   UNL     1      -3.072  12.061  19.061  0.00  0.00    +0.000 A 
ATOM      4  C   UNL     1      -2.015  11.225  18.660  0.00  0.00    +0.000 A 
ATOM      5  C   UNL     1      -0.781  11.216  19.314  0.00  0.00    +0.000 A 
ATOM      6  C   UNL     1      -0.577  12.069  20.417  0.00  0.00    +0.000 A 
ATOM      7  C   UNL     1      -0.013  10.223  18.644  0.00  0.00    +0.000 A 
ATOM      8  N   UNL     1       1.257   9.907  18.994  0.00  0.00    +0.000 N 
ATOM      9  N   UNL     1      -0.704   9.650  17.660  0.00  0.00    +0.000 NA
ATOM     10  N   UNL     1      -1.889  10.278  17.667  0.00  0.00    +0.000 N 
ATOM     11  H   UNL     1       1.779  10.556  19.574  0.00  0.00    +0.000 HD
ENDROOT
BRANCH   8  12
ATOM     12  C   UNL     1       1.871   8.637  18.928  0.00  0.00    +0.000 A 
ATOM     13  C   UNL     1       1.666   7.719  19.965  0.00  0.00    +0.000 A 
ATOM     14  C   UNL     1       2.282   6.467  19.928  0.00  0.00    +0.000 A 
ATOM     15  F   UNL     1       2.075   5.607  20.934  0.00  0.00    +0.000 F 
ATOM     16  C   UNL     1       3.100   6.111  18.865  0.00  0.00    +0.000 A 
ATOM     17  F   UNL     1       3.669   4.898  18.827  0.00  0.00    +0.000 F 
ATOM     18  C   UNL     1       3.321   7.020  17.842  0.00  0.00    +0.000 A 
ATOM     19  F   UNL     1       4.097   6.690  16.802  0.00  0.00    +0.000 F 
ATOM     20  C   UNL     1       2.729   8.279  17.876  0.00  0.00    +0.000 A 
ENDBRANCH   8  12
BRANCH   1  22
ATOM     21  O   UNL     1      -0.213  13.469  22.917  0.00  0.00    +0.000 OA
ATOM     22  S   UNL     1      -1.359  13.991  22.201  0.00  0.00    +0.000 S 
ATOM     23  O   UNL     1      -1.385  15.353  21.709  0.00  0.00    +0.000 OA
BRANCH  22  24
ATOM     24  N   UNL     1      -2.750  13.788  23.204  0.00  0.00    +0.000 NA
ATOM     25  C   UNL     1      -3.085  12.361  23.492  0.00  0.00    +0.000 C 
ATOM     26  C   UNL     1      -4.225  12.285  24.501  0.00  0.00    +0.000 C 
ATOM     27  C   UNL     1      -5.458  13.049  24.029  0.00  0.00    +0.000 C 
ATOM     28  C   UNL     1      -5.103  14.476  23.627  0.00  0.00    +0.000 C 
ATOM     29  C   UNL     1      -3.929  14.527  22.655  0.00  0.00    +0.000 C 
BRANCH  27  30
ATOM     30  O   UNL     1      -6.101  12.360  22.958  0.00  0.00    +0.000 OA
ATOM     31  H   UNL     1      -5.517  11.670  22.605  0.00  0.00    +0.000 HD
ENDBRANCH  27  30
ENDBRANCH  22  24
ENDBRANCH   1  22
BRANCH  10  32
ATOM     32  C   UNL     1      -2.941   9.900  16.738  0.00  0.00    +0.000 C 
ATOM     33  C   UNL     1      -3.500  10.878  15.713  0.00  0.00    +0.000 C 
ATOM     34  C   UNL     1      -2.633   9.759  15.254  0.00  0.00    +0.000 C 
ENDBRANCH  10  32
TORSDOF 5
ENDMDL
MODEL 6
REMARK VINA RESULT:      -8.0      1.206      1.994
REMARK  Name = 
REMARK  5 active torsions:
REMARK  status: ('A' for Active; 'I' for Inactive)
REMARK    1  A    between atoms: S_2  and  C_4
REMARK    2  A    between atoms: S_2  and  N_26
REMARK    3  A    between atoms: N_11  and  C_12
REMARK    4  A    between atoms: N_22  and  C_23
REMARK    5  A    between atoms: C_29  and  O_30
REMARK                            x       y       z     vdW  Elec       q    Type
REMARK                         _______ _______ _______ _____ _____    ______ ____
ROOT
ATOM      1  C   UNL     1       1.090   9.770  20.208  0.00  0.00    +0.000 A 
ATOM      2  C   UNL     1       0.574   9.055  21.289  0.00  0.00    +0.000 A 
ATOM      3  C   UNL     1       0.788   7.676  21.400  0.00  0.00    +0.000 A 
ATOM      4  C   UNL     1       1.545   7.048  20.396  0.00  0.00    +0.000 A 
ATOM      5  C   UNL     1       2.062   7.749  19.304  0.00  0.00    +0.000 A 
ATOM      6  C   UNL     1       1.824   9.134  19.195  0.00  0.00    +0.000 A 
ATOM      7  C   UNL     1       2.788   6.782  18.552  0.00  0.00    +0.000 A 
ATOM      8  N   UNL     1       3.451   7.078  17.408  0.00  0.00    +0.000 N 
ATOM      9  N   UNL     1       2.741   5.581  19.124  0.00  0.00    +0.000 NA
ATOM     10  N   UNL     1       1.973   5.751  20.210  0.00  0.00    +0.000 N 
ATOM     11  H   UNL     1       3.225   7.940  16.922  0.00  0.00    +0.000 HD
ENDROOT
BRANCH   8  12
ATOM     12  C   UNL     1       4.655   6.504  16.945  0.00  0.00    +0.000 A 
ATOM     13  C   UNL     1       4.629   5.652  15.834  0.00  0.00    +0.000 A 
ATOM     14  C   UNL     1       5.805   5.058  15.377  0.00  0.00    +0.000 A 
ATOM     15  F   UNL     1       5.755   4.243  14.315  0.00  0.00    +0.000 F 
ATOM     16  C   UNL     1       7.016   5.304  16.009  0.00  0.00    +0.000 A 
ATOM     17  F   UNL     1       8.145   4.746  15.548  0.00  0.00    +0.000 F 
ATOM     18  C   UNL     1       7.048   6.133  17.119  0.00  0.00    +0.000 A 
ATOM     19  F   UNL     1       8.209   6.391  17.735  0.00  0.00    +0.000 F 
ATOM     20  C   UNL     1       5.880   6.716  17.598  0.00  0.00    +0.000 A 
ENDBRANCH   8  12
BRANCH   1  22
ATOM     21  O   UNL     1       1.403  12.149  21.170  0.00  0.00    +0.000 OA
ATOM     22  S   UNL     1       0.759  11.507  20.044  0.00  0.00    +0.000 S 
ATOM     23  O   UNL     1       1.044  11.907  18.682  0.00  0.00    +0.000 OA
BRANCH  22  24
ATOM     24  N   UNL     1      -0.949  11.637  20.263  0.00  0.00    +0.000 NA
ATOM     25  C   UNL     1      -1.681  12.104  19.047  0.00  0.00    +0.000 C 
ATOM     26  C   UNL     1      -3.186  12.041  19.286  0.00  0.00    +0.000 C 
ATOM     27  C   UNL     1      -3.603  12.843  20.515  0.00  0.00    +0.000 C 
ATOM     28  C   UNL     1      -2.782  12.450  21.737  0.00  0.00    +0.000 C 
ATOM     29  C   UNL     1      -1.282  12.474  21.458  0.00  0.00    +0.000 C 
BRANCH  27  30
ATOM     30  O   UNL     1      -3.506  14.244  20.261  0.00  0.00    +0.000 OA
ATOM     31  H   UNL     1      -2.809  14.419  19.608  0.00  0.00    +0.000 HD
ENDBRANCH  27  30
ENDBRANCH  22  24
ENDBRANCH   1  22
BRANCH  10  32
ATOM     32  C   UNL     1       1.712   4.650  21.122  0.00  0.00    +0.000 C 
ATOM     33  C   UNL     1       1.002   3.380  20.670  0.00  0.00    +0.000 C 
ATOM     34  C   UNL     1       2.461   3.334  20.963  0.00  0.00    +0.000 C 
ENDBRANCH  10  32
TORSDOF 5
ENDMDL
MODEL 7
REMARK VINA RESULT:      -7.9      1.200      1.449
REMARK  Name = 
REMARK  5 active torsions:
REMARK  status: ('A' for Active; 'I' for Inactive)
REMARK    1  A    between atoms: S_2  and  C_4
REMARK    2  A    between atoms: S_2  and  N_26
REMARK    3  A    between atoms: N_11  and  C_12
REMARK    4  A    between atoms: N_22  and  C_23
REMARK    5  A    between atoms: C_29  and  O_30
REMARK                            x       y       z     vdW  Elec       q    Type
REMARK                         _______ _______ _______ _____ _____    ______ ____
ROOT
ATOM      1  C   UNL     1       1.132   9.719  20.239  0.00  0.00    +0.000 A 
ATOM      2  C   UNL     1       0.620   9.020  21.332  0.00  0.00    +0.000 A 
ATOM      3  C   UNL     1       0.818   7.638  21.451  0.00  0.00    +0.000 A 
ATOM      4  C   UNL     1       1.554   6.993  20.442  0.00  0.00    +0.000 A 
ATOM      5  C   UNL     1       2.065   7.678  19.338  0.00  0.00    +0.000 A 
ATOM      6  C   UNL     1       1.843   9.065  19.221  0.00  0.00    +0.000 A 
ATOM      7  C   UNL     1       2.768   6.697  18.585  0.00  0.00    +0.000 A 
ATOM      8  N   UNL     1       3.420   6.975  17.429  0.00  0.00    +0.000 N 
ATOM      9  N   UNL     1       2.714   5.500  19.167  0.00  0.00    +0.000 NA
ATOM     10  N   UNL     1       1.963   5.689  20.261  0.00  0.00    +0.000 N 
ATOM     11  H   UNL     1       3.199   7.836  16.940  0.00  0.00    +0.000 HD
ENDROOT
BRANCH   8  12
ATOM     12  C   UNL     1       4.610   6.382  16.956  0.00  0.00    +0.000 A 
ATOM     13  C   UNL     1       5.827   6.689  17.577  0.00  0.00    +0.000 A 
ATOM     14  C   UNL     1       7.017   6.130  17.109  0.00  0.00    +0.000 A 
ATOM     15  F   UNL     1       8.169   6.442  17.717  0.00  0.00    +0.000 F 
ATOM     16  C   UNL     1       7.013   5.260  16.028  0.00  0.00    +0.000 A 
ATOM     17  F   UNL     1       8.158   4.710  15.599  0.00  0.00    +0.000 F 
ATOM     18  C   UNL     1       5.815   4.964  15.397  0.00  0.00    +0.000 A 
ATOM     19  F   UNL     1       5.791   4.117  14.359  0.00  0.00    +0.000 F 
ATOM     20  C   UNL     1       4.625   5.530  15.840  0.00  0.00    +0.000 A 
ENDBRANCH   8  12
BRANCH   1  22
ATOM     21  O   UNL     1       1.487  12.102  21.178  0.00  0.00    +0.000 OA
ATOM     22  S   UNL     1       0.820  11.459  20.065  0.00  0.00    +0.000 S 
ATOM     23  O   UNL     1       1.092  11.844  18.696  0.00  0.00    +0.000 OA
BRANCH  22  24
ATOM     24  N   UNL     1      -0.883  11.613  20.305  0.00  0.00    +0.000 NA
ATOM     25  C   UNL     1      -1.624  12.081  19.096  0.00  0.00    +0.000 C 
ATOM     26  C   UNL     1      -3.127  12.039  19.354  0.00  0.00    +0.000 C 
ATOM     27  C   UNL     1      -3.517  12.855  20.583  0.00  0.00    +0.000 C 
ATOM     28  C   UNL     1      -2.686  12.459  21.797  0.00  0.00    +0.000 C 
ATOM     29  C   UNL     1      -1.190  12.462  21.499  0.00  0.00    +0.000 C 
BRANCH  27  30
ATOM     30  O   UNL     1      -3.406  14.253  20.319  0.00  0.00    +0.000 OA
ATOM     31  H   UNL     1      -4.263  14.688  20.453  0.00  0.00    +0.000 HD
ENDBRANCH  27  30
ENDBRANCH  22  24
ENDBRANCH   1  22
BRANCH  10  32
ATOM     32  C   UNL     1       1.700   4.599  21.186  0.00  0.00    +0.000 C 
ATOM     33  C   UNL     1       1.055   3.296  20.732  0.00  0.00    +0.000 C 
ATOM     34  C   UNL     1       2.500   3.307  21.088  0.00  0.00    +0.000 C 
ENDBRANCH  10  32
TORSDOF 5
ENDMDL
MODEL 8
REMARK VINA RESULT:      -7.8      0.892      1.792
REMARK  Name = 
REMARK  5 active torsions:
REMARK  status: ('A' for Active; 'I' for Inactive)
REMARK    1  A    between atoms: S_2  and  C_4
REMARK    2  A    between atoms: S_2  and  N_26
REMARK    3  A    between atoms: N_11  and  C_12
REMARK    4  A    between atoms: N_22  and  C_23
REMARK    5  A    between atoms: C_29  and  O_30
REMARK                            x       y       z     vdW  Elec       q    Type
REMARK                         _______ _______ _______ _____ _____    ______ ____
ROOT
ATOM      1  C   UNL     1       1.023   9.666  19.905  0.00  0.00    +0.000 A 
ATOM      2  C   UNL     1       0.553   9.012  21.045  0.00  0.00    +0.000 A 
ATOM      3  C   UNL     1       0.832   7.656  21.255  0.00  0.00    +0.000 A 
ATOM      4  C   UNL     1       1.605   6.989  20.289  0.00  0.00    +0.000 A 
ATOM      5  C   UNL     1       2.075   7.628  19.139  0.00  0.00    +0.000 A 
ATOM      6  C   UNL     1       1.772   8.989  18.931  0.00  0.00    +0.000 A 
ATOM      7  C   UNL     1       2.835   6.641  18.451  0.00  0.00    +0.000 A 
ATOM      8  N   UNL     1       3.470   6.880  17.277  0.00  0.00    +0.000 N 
ATOM      9  N   UNL     1       2.851   5.485  19.112  0.00  0.00    +0.000 NA
ATOM     10  N   UNL     1       2.090   5.703  20.194  0.00  0.00    +0.000 N 
ATOM     11  H   UNL     1       3.198   7.691  16.732  0.00  0.00    +0.000 HD
ENDROOT
BRANCH   8  12
ATOM     12  C   UNL     1       4.693   6.327  16.840  0.00  0.00    +0.000 A 
ATOM     13  C   UNL     1       4.746   5.661  15.609  0.00  0.00    +0.000 A 
ATOM     14  C   UNL     1       5.941   5.089  15.171  0.00  0.00    +0.000 A 
ATOM     15  F   UNL     1       5.967   4.454  13.991  0.00  0.00    +0.000 F 
ATOM     16  C   UNL     1       7.092   5.174  15.941  0.00  0.00    +0.000 A 
ATOM     17  F   UNL     1       8.241   4.641  15.500  0.00  0.00    +0.000 F 
ATOM     18  C   UNL     1       7.044   5.818  17.168  0.00  0.00    +0.000 A 
ATOM     19  F   UNL     1       8.148   5.920  17.919  0.00  0.00    +0.000 F 
ATOM     20  C   UNL     1       5.855   6.375  17.626  0.00  0.00    +0.000 A 
ENDBRANCH   8  12
BRANCH   1  22
ATOM     21  O   UNL     1       0.195  11.906  20.897  0.00  0.00    +0.000 OA
ATOM     22  S   UNL     1       0.610  11.369  19.618  0.00  0.00    +0.000 S 
ATOM     23  O   UNL     1       1.675  11.982  18.851  0.00  0.00    +0.000 OA
BRANCH  22  24
ATOM     24  N   UNL     1      -0.779  11.304  18.593  0.00  0.00    +0.000 NA
ATOM     25  C   UNL     1      -2.074  11.471  19.318  0.00  0.00    +0.000 C 
ATOM     26  C   UNL     1      -3.225  11.553  18.321  0.00  0.00    +0.000 C 
ATOM     27  C   UNL     1      -3.269  10.339  17.398  0.00  0.00    +0.000 C 
ATOM     28  C   UNL     1      -1.916  10.096  16.739  0.00  0.00    +0.000 C 
ATOM     29  C   UNL     1      -0.777  10.066  17.752  0.00  0.00    +0.000 C 
BRANCH  27  30
ATOM     30  O   UNL     1      -3.709   9.181  18.106  0.00  0.00    +0.000 OA
ATOM     31  H   UNL     1      -4.607   8.939  17.826  0.00  0.00    +0.000 HD
ENDBRANCH  27  30
ENDBRANCH  22  24
ENDBRANCH   1  22
BRANCH  10  32
ATOM     32  C   UNL     1       1.891   4.663  21.190  0.00  0.00    +0.000 C 
ATOM     33  C   UNL     1       1.149   3.371  20.869  0.00  0.00    +0.000 C 
ATOM     34  C   UNL     1       2.624   3.335  21.062  0.00  0.00    +0.000 C 
ENDBRANCH  10  32
TORSDOF 5
ENDMDL
MODEL 9
REMARK VINA RESULT:      -7.8      4.164      6.451
REMARK  Name = 
REMARK  5 active torsions:
REMARK  status: ('A' for Active; 'I' for Inactive)
REMARK    1  A    between atoms: S_2  and  C_4
REMARK    2  A    between atoms: S_2  and  N_26
REMARK    3  A    between atoms: N_11  and  C_12
REMARK    4  A    between atoms: N_22  and  C_23
REMARK    5  A    between atoms: C_29  and  O_30
REMARK                            x       y       z     vdW  Elec       q    Type
REMARK                         _______ _______ _______ _____ _____    ______ ____
ROOT
ATOM      1  C   UNL     1       0.656  13.430  19.917  0.00  0.00    +0.000 A 
ATOM      2  C   UNL     1      -0.693  13.615  19.615  0.00  0.00    +0.000 A 
ATOM      3  C   UNL     1      -1.406  12.641  18.906  0.00  0.00    +0.000 A 
ATOM      4  C   UNL     1      -0.718  11.476  18.524  0.00  0.00    +0.000 A 
ATOM      5  C   UNL     1       0.634  11.280  18.812  0.00  0.00    +0.000 A 
ATOM      6  C   UNL     1       1.344  12.277  19.511  0.00  0.00    +0.000 A 
ATOM      7  C   UNL     1       0.938   9.986  18.304  0.00  0.00    +0.000 A 
ATOM      8  N   UNL     1       2.167   9.422  18.398  0.00  0.00    +0.000 N 
ATOM      9  N   UNL     1      -0.130   9.412  17.753  0.00  0.00    +0.000 NA
ATOM     10  N   UNL     1      -1.104  10.326  17.869  0.00  0.00    +0.000 N 
ATOM     11  H   UNL     1       2.963  10.019  18.598  0.00  0.00    +0.000 HD
ENDROOT
BRANCH   8  12
ATOM     12  C   UNL     1       2.469   8.053  18.568  0.00  0.00    +0.000 A 
ATOM     13  C   UNL     1       2.055   7.398  19.735  0.00  0.00    +0.000 A 
ATOM     14  C   UNL     1       2.364   6.051  19.931  0.00  0.00    +0.000 A 
ATOM     15  F   UNL     1       1.962   5.446  21.056  0.00  0.00    +0.000 F 
ATOM     16  C   UNL     1       3.077   5.341  18.976  0.00  0.00    +0.000 A 
ATOM     17  F   UNL     1       3.349   4.041  19.163  0.00  0.00    +0.000 F 
ATOM     18  C   UNL     1       3.504   5.987  17.826  0.00  0.00    +0.000 A 
ATOM     19  F   UNL     1       4.184   5.314  16.887  0.00  0.00    +0.000 F 
ATOM     20  C   UNL     1       3.221   7.334  17.627  0.00  0.00    +0.000 A 
ENDBRANCH   8  12
BRANCH   1  22
ATOM     21  O   UNL     1       0.797  15.918  20.606  0.00  0.00    +0.000 OA
ATOM     22  S   UNL     1       1.566  14.701  20.761  0.00  0.00    +0.000 S 
ATOM     23  O   UNL     1       1.946  14.209  22.069  0.00  0.00    +0.000 OA
BRANCH  22  24
ATOM     24  N   UNL     1       3.018  14.868  19.841  0.00  0.00    +0.000 NA
ATOM     25  C   UNL     1       4.213  15.236  20.659  0.00  0.00    +0.000 C 
ATOM     26  C   UNL     1       5.467  15.210  19.792  0.00  0.00    +0.000 C 
ATOM     27  C   UNL     1       5.339  16.120  18.575  0.00  0.00    +0.000 C 
ATOM     28  C   UNL     1       4.063  15.825  17.796  0.00  0.00    +0.000 C 
ATOM     29  C   UNL     1       2.829  15.809  18.693  0.00  0.00    +0.000 C 
BRANCH  27  30
ATOM     30  O   UNL     1       5.399  17.492  18.960  0.00  0.00    +0.000 OA
ATOM     31  H   UNL     1       6.301  17.833  18.848  0.00  0.00    +0.000 HD
ENDBRANCH  27  30
ENDBRANCH  22  24
ENDBRANCH   1  22
BRANCH  10  32
ATOM     32  C   UNL     1      -2.451  10.047  17.402  0.00  0.00    +0.000 C 
ATOM     33  C   UNL     1      -3.162  10.953  16.404  0.00  0.00    +0.000 C 
ATOM     34  C   UNL     1      -2.684   9.615  15.960  0.00  0.00    +0.000 C 
ENDBRANCH  10  32
TORSDOF 5
ENDMDL
