MODEL 1
REMARK VINA RESULT:      -7.7      0.000      0.000
REMARK  Name = 
REMARK  9 active torsions:
REMARK  status: ('A' for Active; 'I' for Inactive)
REMARK    1  A    between atoms: C_1  and  C_2
REMARK    2  A    between atoms: C_2  and  C_3
REMARK    3  A    between atoms: C_3  and  N_4
REMARK    4  A    between atoms: C_6  and  C_7
REMARK    5  A    between atoms: C_7  and  O_8
REMARK    6  A    between atoms: O_8  and  C_9
REMARK    7  A    between atoms: C_12  and  C_13
REMARK    8  A    between atoms: N_14  and  N_15
REMARK    9  A    between atoms: C_16  and  C_18
REMARK                            x       y       z     vdW  Elec       q    Type
REMARK                         _______ _______ _______ _____ _____    ______ ____
ROOT
ATOM      1  C   UNL     1       4.127   5.135  17.777  0.00  0.00    +0.000 A 
ATOM      2  C   UNL     1       3.072   4.992  18.676  0.00  0.00    +0.000 A 
ATOM      3  C   UNL     1       2.279   6.088  18.997  0.00  0.00    +0.000 A 
ATOM      4  C   UNL     1       2.553   7.343  18.445  0.00  0.00    +0.000 A 
ATOM      5  C   UNL     1       3.630   7.501  17.564  0.00  0.00    +0.000 A 
ATOM      6  C   UNL     1       4.420   6.392  17.236  0.00  0.00    +0.000 A 
ENDROOT
BRANCH   4   7
ATOM      7  C   UNL     1       1.703   8.490  18.815  0.00  0.00    +0.000 C 
ATOM      8  N   UNL     1       1.658   8.887  20.048  0.00  0.00    +0.000 NA
BRANCH   8   9
ATOM      9  N   UNL     1       0.868   9.951  20.346  0.00  0.00    +0.000 N 
ATOM     10  C   UNL     1      -0.148   9.771  21.280  0.00  0.00    +0.000 C 
ATOM     11  O   UNL     1      -0.378   8.722  21.877  0.00  0.00    +0.000 OA
ATOM     12  H   UNL     1       1.091  10.859  19.962  0.00  0.00    +0.000 HD
BRANCH  10  13
ATOM     13  C   UNL     1      -0.998  10.954  21.584  0.00  0.00    +0.000 A 
ATOM     14  C   UNL     1      -1.466  11.817  20.594  0.00  0.00    +0.000 A 
ATOM     15  C   UNL     1      -2.284  12.864  20.985  0.00  0.00    +0.000 A 
ATOM     16  N   UNL     1      -2.651  13.098  22.264  0.00  0.00    +0.000 NA
ATOM     17  C   UNL     1      -2.197  12.237  23.198  0.00  0.00    +0.000 A 
ATOM     18  C   UNL     1      -1.378  11.162  22.911  0.00  0.00    +0.000 A 
ENDBRANCH  10  13
ENDBRANCH   8   9
ENDBRANCH   4   7
BRANCH   1  19
ATOM     19  O   UNL     1       4.920   4.097  17.376  0.00  0.00    +0.000 OA
BRANCH  19  20
ATOM     20  C   UNL     1       6.306   4.446  17.193  0.00  0.00    +0.000 C 
BRANCH  20  23
ATOM     21  N   UNL     1       6.830   4.353  13.625  0.00  0.00    +0.000 N 
ATOM     22  C   UNL     1       6.191   3.817  14.694  0.00  0.00    +0.000 A 
ATOM     23  C   UNL     1       6.640   4.566  15.758  0.00  0.00    +0.000 A 
ATOM     24  N   UNL     1       7.522   5.512  15.301  0.00  0.00    +0.000 NA
ATOM     25  N   UNL     1       7.621   5.380  13.984  0.00  0.00    +0.000 NA
BRANCH  21  26
ATOM     26  C   UNL     1       6.703   3.956  12.241  0.00  0.00    +0.000 C 
BRANCH  26  28
ATOM     27  C   UNL     1       5.716   1.805  11.409  0.00  0.00    +0.000 C 
ATOM     28  C   UNL     1       5.417   3.182  11.975  0.00  0.00    +0.000 C 
ENDBRANCH  26  28
ENDBRANCH  21  26
ENDBRANCH  20  23
ENDBRANCH  19  20
ENDBRANCH   1  19
TORSDOF 8
ENDMDL
MODEL 2
REMARK VINA RESULT:      -7.7      0.703      1.473
REMARK  Name = 
REMARK  9 active torsions:
REMARK  status: ('A' for Active; 'I' for Inactive)
REMARK    1  A    between atoms: C_1  and  C_2
REMARK    2  A    between atoms: C_2  and  C_3
REMARK    3  A    between atoms: C_3  and  N_4
REMARK    4  A    between atoms: C_6  and  C_7
REMARK    5  A    between atoms: C_7  and  O_8
REMARK    6  A    between atoms: O_8  and  C_9
REMARK    7  A    between atoms: C_12  and  C_13
REMARK    8  A    between atoms: N_14  and  N_15
REMARK    9  A    between atoms: C_16  and  C_18
REMARK                            x       y       z     vdW  Elec       q    Type
REMARK                         _______ _______ _______ _____ _____    ______ ____
ROOT
ATOM      1  C   UNL     1       4.610   5.132  17.993  0.00  0.00    +0.000 A 
ATOM      2  C   UNL     1       4.631   6.403  17.419  0.00  0.00    +0.000 A 
ATOM      3  C   UNL     1       3.644   7.327  17.741  0.00  0.00    +0.000 A 
ATOM      4  C   UNL     1       2.611   6.980  18.616  0.00  0.00    +0.000 A 
ATOM      5  C   UNL     1       2.566   5.696  19.172  0.00  0.00    +0.000 A 
ATOM      6  C   UNL     1       3.568   4.771  18.853  0.00  0.00    +0.000 A 
ENDROOT
BRANCH   4   7
ATOM      7  C   UNL     1       1.570   7.978  18.928  0.00  0.00    +0.000 C 
ATOM      8  N   UNL     1       1.605   8.612  20.057  0.00  0.00    +0.000 NA
BRANCH   8   9
ATOM      9  N   UNL     1       0.632   9.527  20.304  0.00  0.00    +0.000 N 
ATOM     10  C   UNL     1       0.426   9.925  21.622  0.00  0.00    +0.000 C 
ATOM     11  O   UNL     1       1.073   9.526  22.587  0.00  0.00    +0.000 OA
ATOM     12  H   UNL     1       0.152   9.962  19.528  0.00  0.00    +0.000 HD
BRANCH  10  13
ATOM     13  C   UNL     1      -0.648  10.927  21.860  0.00  0.00    +0.000 A 
ATOM     14  C   UNL     1      -1.280  11.072  23.095  0.00  0.00    +0.000 A 
ATOM     15  C   UNL     1      -2.238  12.065  23.216  0.00  0.00    +0.000 A 
ATOM     16  N   UNL     1      -2.596  12.895  22.212  0.00  0.00    +0.000 NA
ATOM     17  C   UNL     1      -1.957  12.742  21.035  0.00  0.00    +0.000 A 
ATOM     18  C   UNL     1      -0.986  11.784  20.812  0.00  0.00    +0.000 A 
ENDBRANCH  10  13
ENDBRANCH   8   9
ENDBRANCH   4   7
BRANCH   1  19
ATOM     19  O   UNL     1       5.569   4.186  17.762  0.00  0.00    +0.000 OA
BRANCH  19  20
ATOM     20  C   UNL     1       6.802   4.709  17.232  0.00  0.00    +0.000 C 
BRANCH  20  23
ATOM     21  N   UNL     1       6.542   4.128  13.682  0.00  0.00    +0.000 N 
ATOM     22  C   UNL     1       6.111   3.792  14.923  0.00  0.00    +0.000 A 
ATOM     23  C   UNL     1       6.828   4.619  15.758  0.00  0.00    +0.000 A 
ATOM     24  N   UNL     1       7.656   5.412  15.002  0.00  0.00    +0.000 NA
ATOM     25  N   UNL     1       7.461   5.110  13.725  0.00  0.00    +0.000 NA
BRANCH  21  26
ATOM     26  C   UNL     1       6.095   3.579  12.422  0.00  0.00    +0.000 C 
BRANCH  26  28
ATOM     27  C   UNL     1       4.120   3.068  10.961  0.00  0.00    +0.000 C 
ATOM     28  C   UNL     1       4.580   3.413  12.366  0.00  0.00    +0.000 C 
ENDBRANCH  26  28
ENDBRANCH  21  26
ENDBRANCH  20  23
ENDBRANCH  19  20
ENDBRANCH   1  19
TORSDOF 8
ENDMDL
MODEL 3
REMARK VINA RESULT:      -7.6      6.345      8.559
REMARK  Name = 
REMARK  9 active torsions:
REMARK  status: ('A' for Active; 'I' for Inactive)
REMARK    1  A    between atoms: C_1  and  C_2
REMARK    2  A    between atoms: C_2  and  C_3
REMARK    3  A    between atoms: C_3  and  N_4
REMARK    4  A    between atoms: C_6  and  C_7
REMARK    5  A    between atoms: C_7  and  O_8
REMARK    6  A    between atoms: O_8  and  C_9
REMARK    7  A    between atoms: C_12  and  C_13
REMARK    8  A    between atoms: N_14  and  N_15
REMARK    9  A    between atoms: C_16  and  C_18
REMARK                            x       y       z     vdW  Elec       q    Type
REMARK                         _______ _______ _______ _____ _____    ______ ____
ROOT
ATOM      1  C   UNL     1       6.710   5.469  17.679  0.00  0.00    +0.000 A 
ATOM      2  C   UNL     1       6.245   6.524  16.895  0.00  0.00    +0.000 A 
ATOM      3  C   UNL     1       6.808   7.788  17.028  0.00  0.00    +0.000 A 
ATOM      4  C   UNL     1       7.818   8.016  17.968  0.00  0.00    +0.000 A 
ATOM      5  C   UNL     1       8.268   6.969  18.779  0.00  0.00    +0.000 A 
ATOM      6  C   UNL     1       7.706   5.694  18.635  0.00  0.00    +0.000 A 
ENDROOT
BRANCH   4   7
ATOM      7  C   UNL     1       8.386   9.372  18.095  0.00  0.00    +0.000 C 
ATOM      8  N   UNL     1       9.116   9.670  19.123  0.00  0.00    +0.000 NA
BRANCH   8   9
ATOM      9  N   UNL     1       9.626  10.926  19.200  0.00  0.00    +0.000 N 
ATOM     10  C   UNL     1       9.522  11.602  20.413  0.00  0.00    +0.000 C 
ATOM     11  O   UNL     1       9.019  11.141  21.434  0.00  0.00    +0.000 OA
ATOM     12  H   UNL     1      10.145  11.300  18.418  0.00  0.00    +0.000 HD
BRANCH  10  13
ATOM     13  C   UNL     1      10.087  12.977  20.465  0.00  0.00    +0.000 A 
ATOM     14  C   UNL     1       9.888  13.832  21.549  0.00  0.00    +0.000 A 
ATOM     15  C   UNL     1      10.495  15.076  21.510  0.00  0.00    +0.000 A 
ATOM     16  N   UNL     1      11.262  15.509  20.486  0.00  0.00    +0.000 NA
ATOM     17  C   UNL     1      11.451  14.656  19.459  0.00  0.00    +0.000 A 
ATOM     18  C   UNL     1      10.892  13.394  19.403  0.00  0.00    +0.000 A 
ENDBRANCH  10  13
ENDBRANCH   8   9
ENDBRANCH   4   7
BRANCH   1  19
ATOM     19  O   UNL     1       6.241   4.190  17.573  0.00  0.00    +0.000 OA
BRANCH  19  20
ATOM     20  C   UNL     1       5.062   4.056  16.756  0.00  0.00    +0.000 C 
BRANCH  20  23
ATOM     21  N   UNL     1       2.183   3.216  18.760  0.00  0.00    +0.000 N 
ATOM     22  C   UNL     1       2.938   4.200  18.212  0.00  0.00    +0.000 A 
ATOM     23  C   UNL     1       3.930   3.521  17.540  0.00  0.00    +0.000 A 
ATOM     24  N   UNL     1       3.742   2.172  17.706  0.00  0.00    +0.000 NA
ATOM     25  N   UNL     1       2.656   1.996  18.448  0.00  0.00    +0.000 NA
BRANCH  21  26
ATOM     26  C   UNL     1       0.988   3.373  19.557  0.00  0.00    +0.000 C 
BRANCH  26  28
ATOM     27  C   UNL     1       2.228   3.582  21.728  0.00  0.00    +0.000 C 
ATOM     28  C   UNL     1       1.155   2.823  20.969  0.00  0.00    +0.000 C 
ENDBRANCH  26  28
ENDBRANCH  21  26
ENDBRANCH  20  23
ENDBRANCH  19  20
ENDBRANCH   1  19
TORSDOF 8
ENDMDL
MODEL 4
REMARK VINA RESULT:      -7.6      1.007      1.430
REMARK  Name = 
REMARK  9 active torsions:
REMARK  status: ('A' for Active; 'I' for Inactive)
REMARK    1  A    between atoms: C_1  and  C_2
REMARK    2  A    between atoms: C_2  and  C_3
REMARK    3  A    between atoms: C_3  and  N_4
REMARK    4  A    between atoms: C_6  and  C_7
REMARK    5  A    between atoms: C_7  and  O_8
REMARK    6  A    between atoms: O_8  and  C_9
REMARK    7  A    between atoms: C_12  and  C_13
REMARK    8  A    between atoms: N_14  and  N_15
REMARK    9  A    between atoms: C_16  and  C_18
REMARK                            x       y       z     vdW  Elec       q    Type
REMARK                         _______ _______ _______ _____ _____    ______ ____
ROOT
ATOM      1  C   UNL     1       4.587   4.741  17.985  0.00  0.00    +0.000 A 
ATOM      2  C   UNL     1       3.877   4.204  19.058  0.00  0.00    +0.000 A 
ATOM      3  C   UNL     1       2.890   4.957  19.683  0.00  0.00    +0.000 A 
ATOM      4  C   UNL     1       2.626   6.264  19.263  0.00  0.00    +0.000 A 
ATOM      5  C   UNL     1       3.356   6.820  18.206  0.00  0.00    +0.000 A 
ATOM      6  C   UNL     1       4.342   6.055  17.572  0.00  0.00    +0.000 A 
ENDROOT
BRANCH   4   7
ATOM      7  C   UNL     1       1.582   7.043  19.956  0.00  0.00    +0.000 C 
ATOM      8  N   UNL     1       1.896   8.143  20.563  0.00  0.00    +0.000 NA
BRANCH   8   9
ATOM      9  N   UNL     1       0.905   8.834  21.184  0.00  0.00    +0.000 N 
ATOM     10  C   UNL     1       0.551  10.077  20.668  0.00  0.00    +0.000 C 
ATOM     11  O   UNL     1       1.054  10.596  19.675  0.00  0.00    +0.000 OA
ATOM     12  H   UNL     1       0.391   8.396  21.936  0.00  0.00    +0.000 HD
BRANCH  10  13
ATOM     13  C   UNL     1      -0.536  10.810  21.371  0.00  0.00    +0.000 A 
ATOM     14  C   UNL     1      -0.858  10.576  22.708  0.00  0.00    +0.000 A 
ATOM     15  C   UNL     1      -1.861  11.346  23.275  0.00  0.00    +0.000 A 
ATOM     16  N   UNL     1      -2.544  12.303  22.610  0.00  0.00    +0.000 NA
ATOM     17  C   UNL     1      -2.200  12.519  21.324  0.00  0.00    +0.000 A 
ATOM     18  C   UNL     1      -1.213  11.808  20.668  0.00  0.00    +0.000 A 
ENDBRANCH  10  13
ENDBRANCH   8   9
ENDBRANCH   4   7
BRANCH   1  19
ATOM     19  O   UNL     1       5.538   4.048  17.290  0.00  0.00    +0.000 OA
BRANCH  19  20
ATOM     20  C   UNL     1       6.683   4.833  16.907  0.00  0.00    +0.000 C 
BRANCH  20  23
ATOM     21  N   UNL     1       6.930   4.290  13.350  0.00  0.00    +0.000 N 
ATOM     22  C   UNL     1       6.337   3.932  14.516  0.00  0.00    +0.000 A 
ATOM     23  C   UNL     1       6.916   4.761  15.450  0.00  0.00    +0.000 A 
ATOM     24  N   UNL     1       7.826   5.577  14.825  0.00  0.00    +0.000 NA
ATOM     25  N   UNL     1       7.816   5.286  13.530  0.00  0.00    +0.000 NA
BRANCH  21  26
ATOM     26  C   UNL     1       6.672   3.747  12.035  0.00  0.00    +0.000 C 
BRANCH  26  28
ATOM     27  C   UNL     1       4.260   3.324  11.490  0.00  0.00    +0.000 C 
ATOM     28  C   UNL     1       5.542   2.725  12.041  0.00  0.00    +0.000 C 
ENDBRANCH  26  28
ENDBRANCH  21  26
ENDBRANCH  20  23
ENDBRANCH  19  20
ENDBRANCH   1  19
TORSDOF 8
ENDMDL
MODEL 5
REMARK VINA RESULT:      -7.6      1.544      2.458
REMARK  Name = 
REMARK  9 active torsions:
REMARK  status: ('A' for Active; 'I' for Inactive)
REMARK    1  A    between atoms: C_1  and  C_2
REMARK    2  A    between atoms: C_2  and  C_3
REMARK    3  A    between atoms: C_3  and  N_4
REMARK    4  A    between atoms: C_6  and  C_7
REMARK    5  A    between atoms: C_7  and  O_8
REMARK    6  A    between atoms: O_8  and  C_9
REMARK    7  A    between atoms: C_12  and  C_13
REMARK    8  A    between atoms: N_14  and  N_15
REMARK    9  A    between atoms: C_16  and  C_18
REMARK                            x       y       z     vdW  Elec       q    Type
REMARK                         _______ _______ _______ _____ _____    ______ ____
ROOT
ATOM      1  C   UNL     1       2.939   6.639  18.704  0.00  0.00    +0.000 A 
ATOM      2  C   UNL     1       2.768   7.728  17.850  0.00  0.00    +0.000 A 
ATOM      3  C   UNL     1       2.035   8.832  18.269  0.00  0.00    +0.000 A 
ATOM      4  C   UNL     1       1.440   8.844  19.534  0.00  0.00    +0.000 A 
ATOM      5  C   UNL     1       1.581   7.742  20.386  0.00  0.00    +0.000 A 
ATOM      6  C   UNL     1       2.329   6.636  19.963  0.00  0.00    +0.000 A 
ENDROOT
BRANCH   4   7
ATOM      7  C   UNL     1       0.656  10.025  19.946  0.00  0.00    +0.000 C 
ATOM      8  N   UNL     1      -0.208   9.920  20.905  0.00  0.00    +0.000 NA
BRANCH   8   9
ATOM      9  N   UNL     1      -0.905  11.031  21.259  0.00  0.00    +0.000 N 
ATOM     10  C   UNL     1      -1.065  11.301  22.614  0.00  0.00    +0.000 C 
ATOM     11  O   UNL     1      -0.606  10.618  23.526  0.00  0.00    +0.000 OA
ATOM     12  H   UNL     1      -1.205  11.678  20.542  0.00  0.00    +0.000 HD
BRANCH  10  13
ATOM     13  C   UNL     1      -1.836  12.523  22.969  0.00  0.00    +0.000 A 
ATOM     14  C   UNL     1      -3.224  12.523  23.109  0.00  0.00    +0.000 A 
ATOM     15  C   UNL     1      -3.834  13.709  23.482  0.00  0.00    +0.000 A 
ATOM     16  N   UNL     1      -3.167  14.861  23.715  0.00  0.00    +0.000 NA
ATOM     17  C   UNL     1      -1.825  14.827  23.588  0.00  0.00    +0.000 A 
ATOM     18  C   UNL     1      -1.121  13.695  23.223  0.00  0.00    +0.000 A 
ENDBRANCH  10  13
ENDBRANCH   8   9
ENDBRANCH   4   7
BRANCH   1  19
ATOM     19  O   UNL     1       3.683   5.540  18.382  0.00  0.00    +0.000 OA
BRANCH  19  20
ATOM     20  C   UNL     1       5.089   5.671  18.667  0.00  0.00    +0.000 C 
BRANCH  20  23
ATOM     21  N   UNL     1       6.705   5.252  15.469  0.00  0.00    +0.000 N 
ATOM     22  C   UNL     1       5.639   4.952  16.252  0.00  0.00    +0.000 A 
ATOM     23  C   UNL     1       5.891   5.624  17.427  0.00  0.00    +0.000 A 
ATOM     24  N   UNL     1       7.083   6.295  17.314  0.00  0.00    +0.000 NA
ATOM     25  N   UNL     1       7.568   6.069  16.100  0.00  0.00    +0.000 NA
BRANCH  21  26
ATOM     26  C   UNL     1       6.939   4.823  14.110  0.00  0.00    +0.000 C 
BRANCH  26  28
ATOM     27  C   UNL     1       6.102   3.452  12.183  0.00  0.00    +0.000 C 
ATOM     28  C   UNL     1       5.968   3.734  13.669  0.00  0.00    +0.000 C 
ENDBRANCH  26  28
ENDBRANCH  21  26
ENDBRANCH  20  23
ENDBRANCH  19  20
ENDBRANCH   1  19
TORSDOF 8
ENDMDL
MODEL 6
REMARK VINA RESULT:      -7.6      0.717      1.165
REMARK  Name = 
REMARK  9 active torsions:
REMARK  status: ('A' for Active; 'I' for Inactive)
REMARK    1  A    between atoms: C_1  and  C_2
REMARK    2  A    between atoms: C_2  and  C_3
REMARK    3  A    between atoms: C_3  and  N_4
REMARK    4  A    between atoms: C_6  and  C_7
REMARK    5  A    between atoms: C_7  and  O_8
REMARK    6  A    between atoms: O_8  and  C_9
REMARK    7  A    between atoms: C_12  and  C_13
REMARK    8  A    between atoms: N_14  and  N_15
REMARK    9  A    between atoms: C_16  and  C_18
REMARK                            x       y       z     vdW  Elec       q    Type
REMARK                         _______ _______ _______ _____ _____    ______ ____
ROOT
ATOM      1  C   UNL     1       4.375   5.601  18.149  0.00  0.00    +0.000 A 
ATOM      2  C   UNL     1       3.677   5.639  19.355  0.00  0.00    +0.000 A 
ATOM      3  C   UNL     1       2.767   6.661  19.599  0.00  0.00    +0.000 A 
ATOM      4  C   UNL     1       2.570   7.671  18.653  0.00  0.00    +0.000 A 
ATOM      5  C   UNL     1       3.289   7.656  17.452  0.00  0.00    +0.000 A 
ATOM      6  C   UNL     1       4.197   6.619  17.206  0.00  0.00    +0.000 A 
ENDROOT
BRANCH   4   7
ATOM      7  C   UNL     1       1.607   8.750  18.946  0.00  0.00    +0.000 C 
ATOM      8  N   UNL     1       1.072   8.833  20.123  0.00  0.00    +0.000 NA
BRANCH   8   9
ATOM      9  N   UNL     1       0.195   9.844  20.354  0.00  0.00    +0.000 N 
ATOM     10  C   UNL     1       0.001  10.255  21.670  0.00  0.00    +0.000 C 
ATOM     11  O   UNL     1       0.579   9.785  22.646  0.00  0.00    +0.000 OA
ATOM     12  H   UNL     1      -0.218  10.332  19.571  0.00  0.00    +0.000 HD
BRANCH  10  13
ATOM     13  C   UNL     1      -0.967  11.363  21.891  0.00  0.00    +0.000 A 
ATOM     14  C   UNL     1      -1.588  11.585  23.120  0.00  0.00    +0.000 A 
ATOM     15  C   UNL     1      -2.442  12.671  23.225  0.00  0.00    +0.000 A 
ATOM     16  N   UNL     1      -2.708  13.522  22.210  0.00  0.00    +0.000 NA
ATOM     17  C   UNL     1      -2.080  13.293  21.039  0.00  0.00    +0.000 A 
ATOM     18  C   UNL     1      -1.210  12.239  20.832  0.00  0.00    +0.000 A 
ENDBRANCH  10  13
ENDBRANCH   8   9
ENDBRANCH   4   7
BRANCH   1  19
ATOM     19  O   UNL     1       5.249   4.605  17.817  0.00  0.00    +0.000 OA
BRANCH  19  20
ATOM     20  C   UNL     1       6.559   5.068  17.436  0.00  0.00    +0.000 C 
BRANCH  20  23
ATOM     21  N   UNL     1       6.763   4.364  13.904  0.00  0.00    +0.000 N 
ATOM     22  C   UNL     1       6.210   4.037  15.097  0.00  0.00    +0.000 A 
ATOM     23  C   UNL     1       6.767   4.936  15.979  0.00  0.00    +0.000 A 
ATOM     24  N   UNL     1       7.626   5.760  15.296  0.00  0.00    +0.000 NA
ATOM     25  N   UNL     1       7.606   5.407  14.017  0.00  0.00    +0.000 NA
BRANCH  21  26
ATOM     26  C   UNL     1       6.506   3.747  12.623  0.00  0.00    +0.000 C 
BRANCH  26  28
ATOM     27  C   UNL     1       4.374   3.310  11.374  0.00  0.00    +0.000 C 
ATOM     28  C   UNL     1       5.196   2.969  12.605  0.00  0.00    +0.000 C 
ENDBRANCH  26  28
ENDBRANCH  21  26
ENDBRANCH  20  23
ENDBRANCH  19  20
ENDBRANCH   1  19
TORSDOF 8
ENDMDL
MODEL 7
REMARK VINA RESULT:      -7.5      6.185      8.675
REMARK  Name = 
REMARK  9 active torsions:
REMARK  status: ('A' for Active; 'I' for Inactive)
REMARK    1  A    between atoms: C_1  and  C_2
REMARK    2  A    between atoms: C_2  and  C_3
REMARK    3  A    between atoms: C_3  and  N_4
REMARK    4  A    between atoms: C_6  and  C_7
REMARK    5  A    between atoms: C_7  and  O_8
REMARK    6  A    between atoms: O_8  and  C_9
REMARK    7  A    between atoms: C_12  and  C_13
REMARK    8  A    between atoms: N_14  and  N_15
REMARK    9  A    between atoms: C_16  and  C_18
REMARK                            x       y       z     vdW  Elec       q    Type
REMARK                         _______ _______ _______ _____ _____    ______ ____
ROOT
ATOM      1  C   UNL     1       6.543   5.382  17.479  0.00  0.00    +0.000 A 
ATOM      2  C   UNL     1       6.398   6.592  16.802  0.00  0.00    +0.000 A 
ATOM      3  C   UNL     1       7.147   7.698  17.188  0.00  0.00    +0.000 A 
ATOM      4  C   UNL     1       8.024   7.613  18.273  0.00  0.00    +0.000 A 
ATOM      5  C   UNL     1       8.152   6.409  18.976  0.00  0.00    +0.000 A 
ATOM      6  C   UNL     1       7.404   5.295  18.578  0.00  0.00    +0.000 A 
ENDROOT
BRANCH   4   7
ATOM      7  C   UNL     1       8.795   8.807  18.667  0.00  0.00    +0.000 C 
ATOM      8  N   UNL     1       8.477   9.966  18.184  0.00  0.00    +0.000 NA
BRANCH   8   9
ATOM      9  N   UNL     1       9.208  11.042  18.576  0.00  0.00    +0.000 N 
ATOM     10  C   UNL     1       8.912  12.278  18.009  0.00  0.00    +0.000 C 
ATOM     11  O   UNL     1       8.021  12.479  17.188  0.00  0.00    +0.000 OA
ATOM     12  H   UNL     1       9.875  10.941  19.329  0.00  0.00    +0.000 HD
BRANCH  10  13
ATOM     13  C   UNL     1       9.731  13.436  18.457  0.00  0.00    +0.000 A 
ATOM     14  C   UNL     1      10.776  13.308  19.373  0.00  0.00    +0.000 A 
ATOM     15  C   UNL     1      11.499  14.446  19.688  0.00  0.00    +0.000 A 
ATOM     16  N   UNL     1      11.252  15.667  19.165  0.00  0.00    +0.000 NA
ATOM     17  C   UNL     1      10.247  15.757  18.270  0.00  0.00    +0.000 A 
ATOM     18  C   UNL     1       9.467  14.682  17.887  0.00  0.00    +0.000 A 
ENDBRANCH  10  13
ENDBRANCH   8   9
ENDBRANCH   4   7
BRANCH   1  19
ATOM     19  O   UNL     1       5.878   4.240  17.131  0.00  0.00    +0.000 OA
BRANCH  19  20
ATOM     20  C   UNL     1       4.540   4.458  16.643  0.00  0.00    +0.000 C 
BRANCH  20  23
ATOM     21  N   UNL     1       1.964   3.175  18.817  0.00  0.00    +0.000 N 
ATOM     22  C   UNL     1       2.558   4.270  18.283  0.00  0.00    +0.000 A 
ATOM     23  C   UNL     1       3.547   3.751  17.478  0.00  0.00    +0.000 A 
ATOM     24  N   UNL     1       3.516   2.381  17.556  0.00  0.00    +0.000 NA
ATOM     25  N   UNL     1       2.529   2.038  18.373  0.00  0.00    +0.000 NA
BRANCH  21  26
ATOM     26  C   UNL     1       0.839   3.146  19.724  0.00  0.00    +0.000 C 
BRANCH  26  28
ATOM     27  C   UNL     1       2.268   3.682  21.715  0.00  0.00    +0.000 C 
ATOM     28  C   UNL     1       1.240   2.728  21.134  0.00  0.00    +0.000 C 
ENDBRANCH  26  28
ENDBRANCH  21  26
ENDBRANCH  20  23
ENDBRANCH  19  20
ENDBRANCH   1  19
TORSDOF 8
ENDMDL
MODEL 8
REMARK VINA RESULT:      -7.4      0.909      1.315
REMARK  Name = 
REMARK  9 active torsions:
REMARK  status: ('A' for Active; 'I' for Inactive)
REMARK    1  A    between atoms: C_1  and  C_2
REMARK    2  A    between atoms: C_2  and  C_3
REMARK    3  A    between atoms: C_3  and  N_4
REMARK    4  A    between atoms: C_6  and  C_7
REMARK    5  A    between atoms: C_7  and  O_8
REMARK    6  A    between atoms: O_8  and  C_9
REMARK    7  A    between atoms: C_12  and  C_13
REMARK    8  A    between atoms: N_14  and  N_15
REMARK    9  A    between atoms: C_16  and  C_18
REMARK                            x       y       z     vdW  Elec       q    Type
REMARK                         _______ _______ _______ _____ _____    ______ ____
ROOT
ATOM      1  C   UNL     1       4.636   6.071  18.219  0.00  0.00    +0.000 A 
ATOM      2  C   UNL     1       4.346   7.148  17.382  0.00  0.00    +0.000 A 
ATOM      3  C   UNL     1       3.237   7.946  17.638  0.00  0.00    +0.000 A 
ATOM      4  C   UNL     1       2.391   7.657  18.712  0.00  0.00    +0.000 A 
ATOM      5  C   UNL     1       2.659   6.559  19.539  0.00  0.00    +0.000 A 
ATOM      6  C   UNL     1       3.783   5.763  19.284  0.00  0.00    +0.000 A 
ENDROOT
BRANCH   4   7
ATOM      7  C   UNL     1       1.214   8.514  18.950  0.00  0.00    +0.000 C 
ATOM      8  N   UNL     1       1.091   9.141  20.077  0.00  0.00    +0.000 NA
BRANCH   8   9
ATOM      9  N   UNL     1      -0.003   9.925  20.254  0.00  0.00    +0.000 N 
ATOM     10  C   UNL     1      -0.078  10.694  21.412  0.00  0.00    +0.000 C 
ATOM     11  O   UNL     1       0.784  10.736  22.286  0.00  0.00    +0.000 OA
ATOM     12  H   UNL     1      -0.683  10.004  19.510  0.00  0.00    +0.000 HD
BRANCH  10  13
ATOM     13  C   UNL     1      -1.291  11.540  21.578  0.00  0.00    +0.000 A 
ATOM     14  C   UNL     1      -1.887  12.217  20.514  0.00  0.00    +0.000 A 
ATOM     15  C   UNL     1      -3.037  12.943  20.775  0.00  0.00    +0.000 A 
ATOM     16  N   UNL     1      -3.610  13.036  21.995  0.00  0.00    +0.000 NA
ATOM     17  C   UNL     1      -3.021  12.359  23.001  0.00  0.00    +0.000 A 
ATOM     18  C   UNL     1      -1.874  11.604  22.845  0.00  0.00    +0.000 A 
ENDBRANCH  10  13
ENDBRANCH   8   9
ENDBRANCH   4   7
BRANCH   1  19
ATOM     19  O   UNL     1       5.732   5.270  18.061  0.00  0.00    +0.000 OA
BRANCH  19  20
ATOM     20  C   UNL     1       5.505   4.109  17.239  0.00  0.00    +0.000 C 
BRANCH  20  23
ATOM     21  N   UNL     1       6.597   4.233  13.803  0.00  0.00    +0.000 N 
ATOM     22  C   UNL     1       5.693   3.751  14.691  0.00  0.00    +0.000 A 
ATOM     23  C   UNL     1       6.093   4.286  15.895  0.00  0.00    +0.000 A 
ATOM     24  N   UNL     1       7.209   5.059  15.694  0.00  0.00    +0.000 NA
ATOM     25  N   UNL     1       7.502   5.029  14.400  0.00  0.00    +0.000 NA
BRANCH  21  26
ATOM     26  C   UNL     1       6.630   4.001  12.377  0.00  0.00    +0.000 C 
BRANCH  26  28
ATOM     27  C   UNL     1       4.442   3.278  11.385  0.00  0.00    +0.000 C 
ATOM     28  C   UNL     1       5.768   2.815  11.961  0.00  0.00    +0.000 C 
ENDBRANCH  26  28
ENDBRANCH  21  26
ENDBRANCH  20  23
ENDBRANCH  19  20
ENDBRANCH   1  19
TORSDOF 8
ENDMDL
MODEL 9
REMARK VINA RESULT:      -7.4      1.912      2.174
REMARK  Name = 
REMARK  9 active torsions:
REMARK  status: ('A' for Active; 'I' for Inactive)
REMARK    1  A    between atoms: C_1  and  C_2
REMARK    2  A    between atoms: C_2  and  C_3
REMARK    3  A    between atoms: C_3  and  N_4
REMARK    4  A    between atoms: C_6  and  C_7
REMARK    5  A    between atoms: C_7  and  O_8
REMARK    6  A    between atoms: O_8  and  C_9
REMARK    7  A    between atoms: C_12  and  C_13
REMARK    8  A    between atoms: N_14  and  N_15
REMARK    9  A    between atoms: C_16  and  C_18
REMARK                            x       y       z     vdW  Elec       q    Type
REMARK                         _______ _______ _______ _____ _____    ______ ____
ROOT
ATOM      1  C   UNL     1       4.495   5.986  18.169  0.00  0.00    +0.000 A 
ATOM      2  C   UNL     1       3.752   5.718  19.318  0.00  0.00    +0.000 A 
ATOM      3  C   UNL     1       2.680   6.534  19.659  0.00  0.00    +0.000 A 
ATOM      4  C   UNL     1       2.361   7.644  18.872  0.00  0.00    +0.000 A 
ATOM      5  C   UNL     1       3.121   7.938  17.734  0.00  0.00    +0.000 A 
ATOM      6  C   UNL     1       4.194   7.107  17.388  0.00  0.00    +0.000 A 
ENDROOT
BRANCH   4   7
ATOM      7  C   UNL     1       1.226   8.501  19.267  0.00  0.00    +0.000 C 
ATOM      8  N   UNL     1       0.877   9.495  18.514  0.00  0.00    +0.000 NA
BRANCH   8   9
ATOM      9  N   UNL     1      -0.177  10.255  18.909  0.00  0.00    +0.000 N 
ATOM     10  C   UNL     1      -1.304  10.288  18.093  0.00  0.00    +0.000 C 
ATOM     11  O   UNL     1      -1.431   9.663  17.044  0.00  0.00    +0.000 OA
ATOM     12  H   UNL     1      -0.156  10.697  19.818  0.00  0.00    +0.000 HD
BRANCH  10  13
ATOM     13  C   UNL     1      -2.440  11.132  18.552  0.00  0.00    +0.000 A 
ATOM     14  C   UNL     1      -3.712  11.053  17.987  0.00  0.00    +0.000 A 
ATOM     15  C   UNL     1      -4.707  11.857  18.519  0.00  0.00    +0.000 A 
ATOM     16  N   UNL     1      -4.516  12.711  19.549  0.00  0.00    +0.000 NA
ATOM     17  C   UNL     1      -3.280  12.754  20.087  0.00  0.00    +0.000 A 
ATOM     18  C   UNL     1      -2.221  11.992  19.630  0.00  0.00    +0.000 A 
ENDBRANCH  10  13
ENDBRANCH   8   9
ENDBRANCH   4   7
BRANCH   1  19
ATOM     19  O   UNL     1       5.532   5.205  17.743  0.00  0.00    +0.000 OA
BRANCH  19  20
ATOM     20  C   UNL     1       5.168   4.229  16.748  0.00  0.00    +0.000 C 
BRANCH  20  23
ATOM     21  N   UNL     1       6.808   4.328  13.536  0.00  0.00    +0.000 N 
ATOM     22  C   UNL     1       5.830   3.777  14.296  0.00  0.00    +0.000 A 
ATOM     23  C   UNL     1       5.953   4.415  15.509  0.00  0.00    +0.000 A 
ATOM     24  N   UNL     1       6.988   5.314  15.441  0.00  0.00    +0.000 NA
ATOM     25  N   UNL     1       7.499   5.260  14.217  0.00  0.00    +0.000 NA
BRANCH  21  26
ATOM     26  C   UNL     1       7.112   4.035  12.154  0.00  0.00    +0.000 C 
BRANCH  26  28
ATOM     27  C   UNL     1       7.181   1.740  11.142  0.00  0.00    +0.000 C 
ATOM     28  C   UNL     1       6.287   2.874  11.612  0.00  0.00    +0.000 C 
ENDBRANCH  26  28
ENDBRANCH  21  26
ENDBRANCH  20  23
ENDBRANCH  19  20
ENDBRANCH   1  19
TORSDOF 8
ENDMDL
