MODEL 1
REMARK VINA RESULT:      -7.1      0.000      0.000
REMARK  Name = 
REMARK  5 active torsions:
REMARK  status: ('A' for Active; 'I' for Inactive)
REMARK    1  A    between atoms: N_1  and  C_2
REMARK    2  A    between atoms: N_11  and  C1*_12
REMARK    3  A    between atoms: C3*_14  and  O3*_15
REMARK    4  A    between atoms: C4*_16  and  C5*_17
REMARK    5  A    between atoms: C5*_17  and  O5*_18
REMARK                            x       y       z     vdW  Elec       q    Type
REMARK                         _______ _______ _______ _____ _____    ______ ____
ROOT
ATOM      1  C   UNL     1       1.564   9.424  18.899  0.00  0.00    +0.000 A 
ATOM      2  C   UNL     1       0.894   9.815  20.060  0.00  0.00    +0.000 A 
ATOM      3  C   UNL     1       0.782   8.912  21.114  0.00  0.00    +0.000 A 
ATOM      4 CL   UNL     1      -0.028   9.383  22.557  0.00  0.00    +0.000 Cl
ATOM      5  N   UNL     1       1.255   7.641  21.148  0.00  0.00    +0.000 NA
ATOM      6  C   UNL     1       1.887   7.315  20.005  0.00  0.00    +0.000 A 
ATOM      7  C   UNL     1       2.078   8.111  18.883  0.00  0.00    +0.000 A 
ATOM      8  N   UNL     1       2.775   7.430  17.911  0.00  0.00    +0.000 NA
ATOM      9  C   UNL     1       3.000   6.241  18.429  0.00  0.00    +0.000 A 
ATOM     10  N   UNL     1       2.470   6.119  19.686  0.00  0.00    +0.000 N 
ENDROOT
BRANCH  10  11
ATOM     11  C1* UNL     1       2.463   4.934  20.517  0.00  0.00    +0.000 C 
ATOM     12  C2* UNL     1       1.131   4.202  20.517  0.00  0.00    +0.000 C 
ATOM     13  C3* UNL     1       1.548   2.773  20.769  0.00  0.00    +0.000 C 
ATOM     14  C4* UNL     1       2.889   2.667  20.050  0.00  0.00    +0.000 C 
ATOM     15  O4* UNL     1       3.458   4.001  20.040  0.00  0.00    +0.000 OA
BRANCH  13  16
ATOM     16  O3* UNL     1       1.689   2.572  22.175  0.00  0.00    +0.000 OA
ATOM     17  H3* UNL     1       1.189   1.781  22.449  0.00  0.00    +0.000 HD
ENDBRANCH  13  16
BRANCH  14  18
ATOM     18  C5* UNL     1       2.745   2.200  18.599  0.00  0.00    +0.000 C 
BRANCH  18  19
ATOM     19  O5* UNL     1       3.947   1.567  18.165  0.00  0.00    +0.000 OA
ATOM     20  H5* UNL     1       4.680   2.174  18.380  0.00  0.00    +0.000 HD
ENDBRANCH  18  19
ENDBRANCH  14  18
ENDBRANCH  10  11
BRANCH   1  21
ATOM     21  N   UNL     1       1.649  10.282  17.790  0.00  0.00    +0.000 N 
ATOM     22  H   UNL     1       0.916  10.983  17.760  0.00  0.00    +0.000 HD
ATOM     23  H   UNL     1       2.579  10.705  17.740  0.00  0.00    +0.000 HD
ENDBRANCH   1  21
TORSDOF 5
ENDMDL
MODEL 2
REMARK VINA RESULT:      -7.0      3.535      5.336
REMARK  Name = 
REMARK  5 active torsions:
REMARK  status: ('A' for Active; 'I' for Inactive)
REMARK    1  A    between atoms: N_1  and  C_2
REMARK    2  A    between atoms: N_11  and  C1*_12
REMARK    3  A    between atoms: C3*_14  and  O3*_15
REMARK    4  A    between atoms: C4*_16  and  C5*_17
REMARK    5  A    between atoms: C5*_17  and  O5*_18
REMARK                            x       y       z     vdW  Elec       q    Type
REMARK                         _______ _______ _______ _____ _____    ______ ____
ROOT
ATOM      1  C   UNL     1       1.658   3.955  20.494  0.00  0.00    +0.000 A 
ATOM      2  C   UNL     1       1.335   5.273  20.822  0.00  0.00    +0.000 A 
ATOM      3  C   UNL     1       2.032   6.313  20.212  0.00  0.00    +0.000 A 
ATOM      4 CL   UNL     1       1.636   7.943  20.594  0.00  0.00    +0.000 Cl
ATOM      5  N   UNL     1       3.037   6.196  19.309  0.00  0.00    +0.000 NA
ATOM      6  C   UNL     1       3.311   4.908  19.033  0.00  0.00    +0.000 A 
ATOM      7  C   UNL     1       2.696   3.778  19.557  0.00  0.00    +0.000 A 
ATOM      8  N   UNL     1       3.247   2.631  19.031  0.00  0.00    +0.000 NA
ATOM      9  C   UNL     1       4.182   3.054  18.207  0.00  0.00    +0.000 A 
ATOM     10  N   UNL     1       4.268   4.420  18.185  0.00  0.00    +0.000 N 
ENDROOT
BRANCH  10  11
ATOM     11  C1* UNL     1       5.226   5.222  17.454  0.00  0.00    +0.000 C 
ATOM     12  C2* UNL     1       6.569   4.534  17.260  0.00  0.00    +0.000 C 
ATOM     13  C3* UNL     1       7.057   5.140  15.966  0.00  0.00    +0.000 C 
ATOM     14  C4* UNL     1       5.774   5.346  15.168  0.00  0.00    +0.000 C 
ATOM     15  O4* UNL     1       4.708   5.516  16.137  0.00  0.00    +0.000 OA
BRANCH  13  16
ATOM     16  O3* UNL     1       7.703   6.381  16.250  0.00  0.00    +0.000 OA
ATOM     17  H3* UNL     1       7.040   7.047  16.509  0.00  0.00    +0.000 HD
ENDBRANCH  13  16
BRANCH  14  18
ATOM     18  C5* UNL     1       5.428   4.141  14.287  0.00  0.00    +0.000 C 
BRANCH  18  19
ATOM     19  O5* UNL     1       6.611   3.608  13.697  0.00  0.00    +0.000 OA
ATOM     20  H5* UNL     1       6.761   4.102  12.869  0.00  0.00    +0.000 HD
ENDBRANCH  18  19
ENDBRANCH  14  18
ENDBRANCH  10  11
BRANCH   1  21
ATOM     21  N   UNL     1       1.021   2.875  21.129  0.00  0.00    +0.000 N 
ATOM     22  H   UNL     1       0.344   2.399  20.542  0.00  0.00    +0.000 HD
ATOM     23  H   UNL     1       1.716   2.227  21.508  0.00  0.00    +0.000 HD
ENDBRANCH   1  21
TORSDOF 5
ENDMDL
MODEL 3
REMARK VINA RESULT:      -6.9      4.204      5.055
REMARK  Name = 
REMARK  5 active torsions:
REMARK  status: ('A' for Active; 'I' for Inactive)
REMARK    1  A    between atoms: N_1  and  C_2
REMARK    2  A    between atoms: N_11  and  C1*_12
REMARK    3  A    between atoms: C3*_14  and  O3*_15
REMARK    4  A    between atoms: C4*_16  and  C5*_17
REMARK    5  A    between atoms: C5*_17  and  O5*_18
REMARK                            x       y       z     vdW  Elec       q    Type
REMARK                         _______ _______ _______ _____ _____    ______ ____
ROOT
ATOM      1  C   UNL     1       6.657   5.296  16.509  0.00  0.00    +0.000 A 
ATOM      2  C   UNL     1       7.576   5.694  17.483  0.00  0.00    +0.000 A 
ATOM      3  C   UNL     1       7.332   5.372  18.815  0.00  0.00    +0.000 A 
ATOM      4 CL   UNL     1       8.460   5.841  20.026  0.00  0.00    +0.000 Cl
ATOM      5  N   UNL     1       6.259   4.701  19.305  0.00  0.00    +0.000 NA
ATOM      6  C   UNL     1       5.406   4.346  18.327  0.00  0.00    +0.000 A 
ATOM      7  C   UNL     1       5.524   4.593  16.965  0.00  0.00    +0.000 A 
ATOM      8  N   UNL     1       4.452   4.072  16.277  0.00  0.00    +0.000 NA
ATOM      9  C   UNL     1       3.693   3.523  17.202  0.00  0.00    +0.000 A 
ATOM     10  N   UNL     1       4.220   3.676  18.456  0.00  0.00    +0.000 N 
ENDROOT
BRANCH  10  11
ATOM     11  C1* UNL     1       3.621   3.266  19.709  0.00  0.00    +0.000 C 
ATOM     12  C2* UNL     1       2.858   4.379  20.409  0.00  0.00    +0.000 C 
ATOM     13  C3* UNL     1       1.801   3.616  21.171  0.00  0.00    +0.000 C 
ATOM     14  C4* UNL     1       1.483   2.443  20.250  0.00  0.00    +0.000 C 
ATOM     15  O4* UNL     1       2.680   2.195  19.469  0.00  0.00    +0.000 OA
BRANCH  13  16
ATOM     16  O3* UNL     1       2.351   3.175  22.411  0.00  0.00    +0.000 OA
ATOM     17  H3* UNL     1       1.785   3.471  23.148  0.00  0.00    +0.000 HD
ENDBRANCH  13  16
BRANCH  14  18
ATOM     18  C5* UNL     1       0.337   2.747  19.280  0.00  0.00    +0.000 C 
BRANCH  18  19
ATOM     19  O5* UNL     1       0.296   1.768  18.245  0.00  0.00    +0.000 OA
ATOM     20  H5* UNL     1       1.039   1.156  18.405  0.00  0.00    +0.000 HD
ENDBRANCH  18  19
ENDBRANCH  14  18
ENDBRANCH  10  11
BRANCH   1  21
ATOM     21  N   UNL     1       6.835   5.651  15.161  0.00  0.00    +0.000 N 
ATOM     22  H   UNL     1       7.533   6.373  15.018  0.00  0.00    +0.000 HD
ATOM     23  H   UNL     1       7.031   4.819  14.599  0.00  0.00    +0.000 HD
ENDBRANCH   1  21
TORSDOF 5
ENDMDL
MODEL 4
REMARK VINA RESULT:      -6.9      4.289      5.571
REMARK  Name = 
REMARK  5 active torsions:
REMARK  status: ('A' for Active; 'I' for Inactive)
REMARK    1  A    between atoms: N_1  and  C_2
REMARK    2  A    between atoms: N_11  and  C1*_12
REMARK    3  A    between atoms: C3*_14  and  O3*_15
REMARK    4  A    between atoms: C4*_16  and  C5*_17
REMARK    5  A    between atoms: C5*_17  and  O5*_18
REMARK                            x       y       z     vdW  Elec       q    Type
REMARK                         _______ _______ _______ _____ _____    ______ ____
ROOT
ATOM      1  C   UNL     1       6.762   5.967  16.528  0.00  0.00    +0.000 A 
ATOM      2  C   UNL     1       6.689   5.341  15.281  0.00  0.00    +0.000 A 
ATOM      3  C   UNL     1       5.626   4.483  15.015  0.00  0.00    +0.000 A 
ATOM      4 CL   UNL     1       5.512   3.716  13.480  0.00  0.00    +0.000 Cl
ATOM      5  N   UNL     1       4.615   4.157  15.860  0.00  0.00    +0.000 NA
ATOM      6  C   UNL     1       4.737   4.782  17.046  0.00  0.00    +0.000 A 
ATOM      7  C   UNL     1       5.734   5.663  17.443  0.00  0.00    +0.000 A 
ATOM      8  N   UNL     1       5.518   6.102  18.730  0.00  0.00    +0.000 NA
ATOM      9  C   UNL     1       4.413   5.496  19.110  0.00  0.00    +0.000 A 
ATOM     10  N   UNL     1       3.913   4.677  18.133  0.00  0.00    +0.000 N 
ENDROOT
BRANCH  10  11
ATOM     11  C1* UNL     1       2.761   3.807  18.231  0.00  0.00    +0.000 C 
ATOM     12  C2* UNL     1       3.100   2.402  18.704  0.00  0.00    +0.000 C 
ATOM     13  C3* UNL     1       1.829   1.981  19.402  0.00  0.00    +0.000 C 
ATOM     14  C4* UNL     1       1.318   3.280  20.016  0.00  0.00    +0.000 C 
ATOM     15  O4* UNL     1       1.817   4.355  19.179  0.00  0.00    +0.000 OA
BRANCH  13  16
ATOM     16  O3* UNL     1       0.919   1.464  18.434  0.00  0.00    +0.000 OA
ATOM     17  H3* UNL     1       0.711   2.151  17.774  0.00  0.00    +0.000 HD
ENDBRANCH  13  16
BRANCH  14  18
ATOM     18  C5* UNL     1       1.836   3.505  21.439  0.00  0.00    +0.000 C 
BRANCH  18  19
ATOM     19  O5* UNL     1       1.473   2.406  22.273  0.00  0.00    +0.000 OA
ATOM     20  H5* UNL     1       1.676   2.668  23.190  0.00  0.00    +0.000 HD
ENDBRANCH  18  19
ENDBRANCH  14  18
ENDBRANCH  10  11
BRANCH   1  21
ATOM     21  N   UNL     1       7.849   6.794  16.858  0.00  0.00    +0.000 N 
ATOM     22  H   UNL     1       7.597   7.769  16.981  0.00  0.00    +0.000 HD
ATOM     23  H   UNL     1       8.339   6.424  17.676  0.00  0.00    +0.000 HD
ENDBRANCH   1  21
TORSDOF 5
ENDMDL
MODEL 5
REMARK VINA RESULT:      -6.8      3.637      4.492
REMARK  Name = 
REMARK  5 active torsions:
REMARK  status: ('A' for Active; 'I' for Inactive)
REMARK    1  A    between atoms: N_1  and  C_2
REMARK    2  A    between atoms: N_11  and  C1*_12
REMARK    3  A    between atoms: C3*_14  and  O3*_15
REMARK    4  A    between atoms: C4*_16  and  C5*_17
REMARK    5  A    between atoms: C5*_17  and  O5*_18
REMARK                            x       y       z     vdW  Elec       q    Type
REMARK                         _______ _______ _______ _____ _____    ______ ____
ROOT
ATOM      1  C   UNL     1       6.689   6.697  17.596  0.00  0.00    +0.000 A 
ATOM      2  C   UNL     1       7.738   6.392  18.466  0.00  0.00    +0.000 A 
ATOM      3  C   UNL     1       7.502   5.535  19.537  0.00  0.00    +0.000 A 
ATOM      4 CL   UNL     1       8.786   5.136  20.610  0.00  0.00    +0.000 Cl
ATOM      5  N   UNL     1       6.323   4.945  19.861  0.00  0.00    +0.000 NA
ATOM      6  C   UNL     1       5.348   5.276  18.995  0.00  0.00    +0.000 A 
ATOM      7  C   UNL     1       5.441   6.107  17.886  0.00  0.00    +0.000 A 
ATOM      8  N   UNL     1       4.230   6.203  17.240  0.00  0.00    +0.000 NA
ATOM      9  C   UNL     1       3.413   5.449  17.944  0.00  0.00    +0.000 A 
ATOM     10  N   UNL     1       4.038   4.880  19.022  0.00  0.00    +0.000 N 
ENDROOT
BRANCH  10  11
ATOM     11  C1* UNL     1       3.432   4.058  20.047  0.00  0.00    +0.000 C 
ATOM     12  C2* UNL     1       2.084   4.577  20.523  0.00  0.00    +0.000 C 
ATOM     13  C3* UNL     1       1.379   3.309  20.942  0.00  0.00    +0.000 C 
ATOM     14  C4* UNL     1       1.898   2.275  19.948  0.00  0.00    +0.000 C 
ATOM     15  O4* UNL     1       3.213   2.724  19.532  0.00  0.00    +0.000 OA
BRANCH  13  16
ATOM     16  O3* UNL     1       1.759   2.988  22.279  0.00  0.00    +0.000 OA
ATOM     17  H3* UNL     1       2.387   3.654  22.614  0.00  0.00    +0.000 HD
ENDBRANCH  13  16
BRANCH  14  18
ATOM     18  C5* UNL     1       1.017   2.162  18.700  0.00  0.00    +0.000 C 
BRANCH  18  19
ATOM     19  O5* UNL     1       1.828   2.003  17.539  0.00  0.00    +0.000 OA
ATOM     20  H5* UNL     1       1.222   1.899  16.782  0.00  0.00    +0.000 HD
ENDBRANCH  18  19
ENDBRANCH  14  18
ENDBRANCH  10  11
BRANCH   1  21
ATOM     21  N   UNL     1       6.869   7.603  16.537  0.00  0.00    +0.000 N 
ATOM     22  H   UNL     1       6.163   7.528  15.812  0.00  0.00    +0.000 HD
ATOM     23  H   UNL     1       6.941   8.558  16.897  0.00  0.00    +0.000 HD
ENDBRANCH   1  21
TORSDOF 5
ENDMDL
MODEL 6
REMARK VINA RESULT:      -6.7      4.160      6.200
REMARK  Name = 
REMARK  5 active torsions:
REMARK  status: ('A' for Active; 'I' for Inactive)
REMARK    1  A    between atoms: N_1  and  C_2
REMARK    2  A    between atoms: N_11  and  C1*_12
REMARK    3  A    between atoms: C3*_14  and  O3*_15
REMARK    4  A    between atoms: C4*_16  and  C5*_17
REMARK    5  A    between atoms: C5*_17  and  O5*_18
REMARK                            x       y       z     vdW  Elec       q    Type
REMARK                         _______ _______ _______ _____ _____    ______ ____
ROOT
ATOM      1  C   UNL     1       2.112   3.195  20.435  0.00  0.00    +0.000 A 
ATOM      2  C   UNL     1       3.014   2.301  21.015  0.00  0.00    +0.000 A 
ATOM      3  C   UNL     1       4.319   2.246  20.534  0.00  0.00    +0.000 A 
ATOM      4 CL   UNL     1       5.446   1.160  21.246  0.00  0.00    +0.000 Cl
ATOM      5  N   UNL     1       4.840   2.978  19.518  0.00  0.00    +0.000 NA
ATOM      6  C   UNL     1       3.930   3.819  18.993  0.00  0.00    +0.000 A 
ATOM      7  C   UNL     1       2.605   3.983  19.375  0.00  0.00    +0.000 A 
ATOM      8  N   UNL     1       1.986   4.941  18.605  0.00  0.00    +0.000 NA
ATOM      9  C   UNL     1       2.915   5.350  17.766  0.00  0.00    +0.000 A 
ATOM     10  N   UNL     1       4.101   4.691  17.951  0.00  0.00    +0.000 N 
ENDROOT
BRANCH  10  11
ATOM     11  C1* UNL     1       5.308   4.830  17.165  0.00  0.00    +0.000 C 
ATOM     12  C2* UNL     1       5.626   6.270  16.792  0.00  0.00    +0.000 C 
ATOM     13  C3* UNL     1       7.132   6.250  16.684  0.00  0.00    +0.000 C 
ATOM     14  C4* UNL     1       7.547   5.249  17.757  0.00  0.00    +0.000 C 
ATOM     15  O4* UNL     1       6.437   4.329  17.916  0.00  0.00    +0.000 OA
BRANCH  13  16
ATOM     16  O3* UNL     1       7.497   5.802  15.380  0.00  0.00    +0.000 OA
ATOM     17  H3* UNL     1       8.434   6.010  15.209  0.00  0.00    +0.000 HD
ENDBRANCH  13  16
BRANCH  14  18
ATOM     18  C5* UNL     1       7.812   5.912  19.112  0.00  0.00    +0.000 C 
BRANCH  18  19
ATOM     19  O5* UNL     1       7.118   5.216  20.144  0.00  0.00    +0.000 OA
ATOM     20  H5* UNL     1       7.795   4.850  20.743  0.00  0.00    +0.000 HD
ENDBRANCH  18  19
ENDBRANCH  14  18
ENDBRANCH  10  11
BRANCH   1  21
ATOM     21  N   UNL     1       0.771   3.241  20.851  0.00  0.00    +0.000 N 
ATOM     22  H   UNL     1       0.212   2.465  20.511  0.00  0.00    +0.000 HD
ATOM     23  H   UNL     1       0.719   3.327  21.869  0.00  0.00    +0.000 HD
ENDBRANCH   1  21
TORSDOF 5
ENDMDL
MODEL 7
REMARK VINA RESULT:      -6.7      5.648      7.254
REMARK  Name = 
REMARK  5 active torsions:
REMARK  status: ('A' for Active; 'I' for Inactive)
REMARK    1  A    between atoms: N_1  and  C_2
REMARK    2  A    between atoms: N_11  and  C1*_12
REMARK    3  A    between atoms: C3*_14  and  O3*_15
REMARK    4  A    between atoms: C4*_16  and  C5*_17
REMARK    5  A    between atoms: C5*_17  and  O5*_18
REMARK                            x       y       z     vdW  Elec       q    Type
REMARK                         _______ _______ _______ _____ _____    ______ ____
ROOT
ATOM      1  C   UNL     1       7.715   5.197  13.378  0.00  0.00    +0.000 A 
ATOM      2  C   UNL     1       7.100   4.375  12.432  0.00  0.00    +0.000 A 
ATOM      3  C   UNL     1       5.998   3.612  12.810  0.00  0.00    +0.000 A 
ATOM      4 CL   UNL     1       5.220   2.605  11.653  0.00  0.00    +0.000 Cl
ATOM      5  N   UNL     1       5.433   3.559  14.042  0.00  0.00    +0.000 NA
ATOM      6  C   UNL     1       6.066   4.364  14.915  0.00  0.00    +0.000 A 
ATOM      7  C   UNL     1       7.164   5.180  14.676  0.00  0.00    +0.000 A 
ATOM      8  N   UNL     1       7.528   5.860  15.816  0.00  0.00    +0.000 NA
ATOM      9  C   UNL     1       6.672   5.463  16.733  0.00  0.00    +0.000 A 
ATOM     10  N   UNL     1       5.779   4.548  16.241  0.00  0.00    +0.000 N 
ENDROOT
BRANCH  10  11
ATOM     11  C1* UNL     1       4.751   3.848  16.981  0.00  0.00    +0.000 C 
ATOM     12  C2* UNL     1       5.106   3.618  18.441  0.00  0.00    +0.000 C 
ATOM     13  C3* UNL     1       3.749   3.596  19.104  0.00  0.00    +0.000 C 
ATOM     14  C4* UNL     1       2.945   4.603  18.288  0.00  0.00    +0.000 C 
ATOM     15  O4* UNL     1       3.528   4.617  16.960  0.00  0.00    +0.000 OA
BRANCH  13  16
ATOM     16  O3* UNL     1       3.204   2.282  19.001  0.00  0.00    +0.000 OA
ATOM     17  H3* UNL     1       3.208   1.994  18.069  0.00  0.00    +0.000 HD
ENDBRANCH  13  16
BRANCH  14  18
ATOM     18  C5* UNL     1       3.023   6.022  18.858  0.00  0.00    +0.000 C 
BRANCH  18  19
ATOM     19  O5* UNL     1       2.874   5.990  20.276  0.00  0.00    +0.000 OA
ATOM     20  H5* UNL     1       2.827   6.917  20.576  0.00  0.00    +0.000 HD
ENDBRANCH  18  19
ENDBRANCH  14  18
ENDBRANCH  10  11
BRANCH   1  21
ATOM     21  N   UNL     1       8.864   5.938  13.054  0.00  0.00    +0.000 N 
ATOM     22  H   UNL     1       8.914   6.837  13.522  0.00  0.00    +0.000 HD
ATOM     23  H   UNL     1       9.704   5.378  13.220  0.00  0.00    +0.000 HD
ENDBRANCH   1  21
TORSDOF 5
ENDMDL
MODEL 8
REMARK VINA RESULT:      -6.7      3.231      5.410
REMARK  Name = 
REMARK  5 active torsions:
REMARK  status: ('A' for Active; 'I' for Inactive)
REMARK    1  A    between atoms: N_1  and  C_2
REMARK    2  A    between atoms: N_11  and  C1*_12
REMARK    3  A    between atoms: C3*_14  and  O3*_15
REMARK    4  A    between atoms: C4*_16  and  C5*_17
REMARK    5  A    between atoms: C5*_17  and  O5*_18
REMARK                            x       y       z     vdW  Elec       q    Type
REMARK                         _______ _______ _______ _____ _____    ______ ____
ROOT
ATOM      1  C   UNL     1       1.599   3.701  20.340  0.00  0.00    +0.000 A 
ATOM      2  C   UNL     1       1.521   5.082  20.534  0.00  0.00    +0.000 A 
ATOM      3  C   UNL     1       2.317   5.921  19.759  0.00  0.00    +0.000 A 
ATOM      4 CL   UNL     1       2.223   7.624  19.974  0.00  0.00    +0.000 Cl
ATOM      5  N   UNL     1       3.206   5.543  18.806  0.00  0.00    +0.000 NA
ATOM      6  C   UNL     1       3.245   4.206  18.664  0.00  0.00    +0.000 A 
ATOM      7  C   UNL     1       2.508   3.255  19.359  0.00  0.00    +0.000 A 
ATOM      8  N   UNL     1       2.819   1.984  18.933  0.00  0.00    +0.000 NA
ATOM      9  C   UNL     1       3.731   2.156  18.000  0.00  0.00    +0.000 A 
ATOM     10  N   UNL     1       4.032   3.479  17.812  0.00  0.00    +0.000 N 
ENDROOT
BRANCH  10  11
ATOM     11  C1* UNL     1       5.037   4.027  16.926  0.00  0.00    +0.000 C 
ATOM     12  C2* UNL     1       4.762   5.464  16.513  0.00  0.00    +0.000 C 
ATOM     13  C3* UNL     1       6.153   6.004  16.280  0.00  0.00    +0.000 C 
ATOM     14  C4* UNL     1       6.992   5.277  17.326  0.00  0.00    +0.000 C 
ATOM     15  O4* UNL     1       6.323   4.016  17.586  0.00  0.00    +0.000 OA
BRANCH  13  16
ATOM     16  O3* UNL     1       6.563   5.673  14.955  0.00  0.00    +0.000 OA
ATOM     17  H3* UNL     1       7.506   5.889  14.836  0.00  0.00    +0.000 HD
ENDBRANCH  13  16
BRANCH  14  18
ATOM     18  C5* UNL     1       7.086   6.046  18.646  0.00  0.00    +0.000 C 
BRANCH  18  19
ATOM     19  O5* UNL     1       6.669   5.217  19.729  0.00  0.00    +0.000 OA
ATOM     20  H5* UNL     1       7.386   4.574  19.886  0.00  0.00    +0.000 HD
ENDBRANCH  18  19
ENDBRANCH  14  18
ENDBRANCH  10  11
BRANCH   1  21
ATOM     21  N   UNL     1       0.857   2.816  21.141  0.00  0.00    +0.000 N 
ATOM     22  H   UNL     1       0.090   2.369  20.650  0.00  0.00    +0.000 HD
ATOM     23  H   UNL     1       1.478   2.130  21.578  0.00  0.00    +0.000 HD
ENDBRANCH   1  21
TORSDOF 5
ENDMDL
MODEL 9
REMARK VINA RESULT:      -6.5      1.643      1.841
REMARK  Name = 
REMARK  5 active torsions:
REMARK  status: ('A' for Active; 'I' for Inactive)
REMARK    1  A    between atoms: N_1  and  C_2
REMARK    2  A    between atoms: N_11  and  C1*_12
REMARK    3  A    between atoms: C3*_14  and  O3*_15
REMARK    4  A    between atoms: C4*_16  and  C5*_17
REMARK    5  A    between atoms: C5*_17  and  O5*_18
REMARK                            x       y       z     vdW  Elec       q    Type
REMARK                         _______ _______ _______ _____ _____    ______ ____
ROOT
ATOM      1  C   UNL     1       0.986  10.243  19.105  0.00  0.00    +0.000 A 
ATOM      2  C   UNL     1       0.454  10.281  20.396  0.00  0.00    +0.000 A 
ATOM      3  C   UNL     1       0.652   9.194  21.242  0.00  0.00    +0.000 A 
ATOM      4 CL   UNL     1       0.016   9.230  22.840  0.00  0.00    +0.000 Cl
ATOM      5  N   UNL     1       1.317   8.048  20.950  0.00  0.00    +0.000 NA
ATOM      6  C   UNL     1       1.805   8.063  19.696  0.00  0.00    +0.000 A 
ATOM      7  C   UNL     1       1.689   9.074  18.751  0.00  0.00    +0.000 A 
ATOM      8  N   UNL     1       2.322   8.726  17.579  0.00  0.00    +0.000 NA
ATOM      9  C   UNL     1       2.809   7.524  17.804  0.00  0.00    +0.000 A 
ATOM     10  N   UNL     1       2.510   7.075  19.062  0.00  0.00    +0.000 N 
ENDROOT
BRANCH  10  11
ATOM     11  C1* UNL     1       2.819   5.776  19.621  0.00  0.00    +0.000 C 
ATOM     12  C2* UNL     1       2.279   4.618  18.797  0.00  0.00    +0.000 C 
ATOM     13  C3* UNL     1       3.273   3.520  19.095  0.00  0.00    +0.000 C 
ATOM     14  C4* UNL     1       4.591   4.271  19.248  0.00  0.00    +0.000 C 
ATOM     15  O4* UNL     1       4.253   5.609  19.695  0.00  0.00    +0.000 OA
BRANCH  13  16
ATOM     16  O3* UNL     1       2.895   2.870  20.307  0.00  0.00    +0.000 OA
ATOM     17  H3* UNL     1       2.735   1.923  20.140  0.00  0.00    +0.000 HD
ENDBRANCH  13  16
BRANCH  14  18
ATOM     18  C5* UNL     1       5.360   4.390  17.929  0.00  0.00    +0.000 C 
BRANCH  18  19
ATOM     19  O5* UNL     1       6.742   4.110  18.140  0.00  0.00    +0.000 OA
ATOM     20  H5* UNL     1       7.083   4.802  18.737  0.00  0.00    +0.000 HD
ENDBRANCH  18  19
ENDBRANCH  14  18
ENDBRANCH  10  11
BRANCH   1  21
ATOM     21  N   UNL     1       0.759  11.293  18.199  0.00  0.00    +0.000 N 
ATOM     22  H   UNL     1       1.372  12.089  18.336  0.00  0.00    +0.000 HD
ATOM     23  H   UNL     1       0.800  10.945  17.238  0.00  0.00    +0.000 HD
ENDBRANCH   1  21
TORSDOF 5
ENDMDL
