MODEL 1
REMARK VINA RESULT:      -8.1      0.000      0.000
REMARK  Name = 
REMARK  4 active torsions:
REMARK  status: ('A' for Active; 'I' for Inactive)
REMARK    1  A    between atoms: C_1  and  C_2
REMARK    2  A    between atoms: C_5  and  S_6
REMARK    3  A    between atoms: S_6  and  N_9
REMARK    4  A    between atoms: N_12  and  C_13
REMARK                            x       y       z     vdW  Elec       q    Type
REMARK                         _______ _______ _______ _____ _____    ______ ____
ROOT
ATOM      1  N   UNL     1       7.207   5.753  16.013  0.00  0.00    +0.000 N 
ATOM      2  C   UNL     1       6.658   4.748  15.231  0.00  0.00    +0.000 C 
ATOM      3  O   UNL     1       6.210   3.737  15.749  0.00  0.00    +0.000 OA
ATOM      4  N   UNL     1       6.730   4.977  13.875  0.00  0.00    +0.000 N 
ATOM      5  H   UNL     1       7.630   6.594  15.645  0.00  0.00    +0.000 HD
ATOM      6  H   UNL     1       7.246   5.789  13.569  0.00  0.00    +0.000 HD
ENDROOT
BRANCH   4   7
ATOM      7  C   UNL     1       6.298   4.062  12.883  0.00  0.00    +0.000 A 
ATOM      8  C   UNL     1       4.957   3.932  12.505  0.00  0.00    +0.000 A 
ATOM      9  C   UNL     1       4.565   2.953  11.596  0.00  0.00    +0.000 A 
ATOM     10  F   UNL     1       3.270   2.835  11.280  0.00  0.00    +0.000 F 
ATOM     11  C   UNL     1       5.491   2.098  11.026  0.00  0.00    +0.000 A 
ATOM     12  C   UNL     1       6.827   2.257  11.360  0.00  0.00    +0.000 A 
ATOM     13  F   UNL     1       7.737   1.441  10.813  0.00  0.00    +0.000 F 
ATOM     14  C   UNL     1       7.245   3.233  12.270  0.00  0.00    +0.000 A 
ENDBRANCH   4   7
BRANCH   1  15
ATOM     15  S   UNL     1       7.345   5.608  17.672  0.00  0.00    +0.000 S 
ATOM     16  O   UNL     1       7.844   6.858  18.204  0.00  0.00    +0.000 OA
ATOM     17  O   UNL     1       8.060   4.372  17.893  0.00  0.00    +0.000 OA
BRANCH  15  22
ATOM     18  C   UNL     1       1.654   4.703  19.619  0.00  0.00    +0.000 C 
ATOM     19  C   UNL     1       3.056   4.919  19.130  0.00  0.00    +0.000 A 
ATOM     20  C   UNL     1       4.081   4.024  19.471  0.00  0.00    +0.000 A 
ATOM     21  C   UNL     1       5.388   4.237  19.026  0.00  0.00    +0.000 A 
ATOM     22  C   UNL     1       5.674   5.348  18.228  0.00  0.00    +0.000 A 
ATOM     23  C   UNL     1       4.662   6.247  17.876  0.00  0.00    +0.000 A 
ATOM     24  C   UNL     1       3.357   6.028  18.329  0.00  0.00    +0.000 A 
ENDBRANCH  15  22
ENDBRANCH   1  15
TORSDOF 3
ENDMDL
MODEL 2
REMARK VINA RESULT:      -8.1      3.400      7.021
REMARK  Name = 
REMARK  4 active torsions:
REMARK  status: ('A' for Active; 'I' for Inactive)
REMARK    1  A    between atoms: C_1  and  C_2
REMARK    2  A    between atoms: C_5  and  S_6
REMARK    3  A    between atoms: S_6  and  N_9
REMARK    4  A    between atoms: N_12  and  C_13
REMARK                            x       y       z     vdW  Elec       q    Type
REMARK                         _______ _______ _______ _____ _____    ______ ____
ROOT
ATOM      1  N   UNL     1       5.658   6.039  17.511  0.00  0.00    +0.000 N 
ATOM      2  C   UNL     1       4.973   5.072  18.231  0.00  0.00    +0.000 C 
ATOM      3  O   UNL     1       5.479   3.979  18.433  0.00  0.00    +0.000 OA
ATOM      4  N   UNL     1       3.703   5.440  18.616  0.00  0.00    +0.000 N 
ATOM      5  H   UNL     1       5.281   6.947  17.275  0.00  0.00    +0.000 HD
ATOM      6  H   UNL     1       3.351   6.321  18.271  0.00  0.00    +0.000 HD
ENDROOT
BRANCH   4   7
ATOM      7  C   UNL     1       2.796   4.593  19.299  0.00  0.00    +0.000 A 
ATOM      8  C   UNL     1       2.804   4.437  20.690  0.00  0.00    +0.000 A 
ATOM      9  C   UNL     1       1.958   3.522  21.309  0.00  0.00    +0.000 A 
ATOM     10  F   UNL     1       2.015   3.375  22.638  0.00  0.00    +0.000 F 
ATOM     11  C   UNL     1       1.072   2.758  20.571  0.00  0.00    +0.000 A 
ATOM     12  C   UNL     1       1.025   2.945  19.199  0.00  0.00    +0.000 A 
ATOM     13  F   UNL     1       0.169   2.218  18.470  0.00  0.00    +0.000 F 
ATOM     14  C   UNL     1       1.865   3.859  18.554  0.00  0.00    +0.000 A 
ENDBRANCH   4   7
BRANCH   1  15
ATOM     15  S   UNL     1       7.156   5.743  16.833  0.00  0.00    +0.000 S 
ATOM     16  O   UNL     1       7.871   4.816  17.684  0.00  0.00    +0.000 OA
ATOM     17  O   UNL     1       7.706   7.044  16.529  0.00  0.00    +0.000 OA
BRANCH  15  22
ATOM     18  C   UNL     1       5.836   3.076  11.528  0.00  0.00    +0.000 C 
ATOM     19  C   UNL     1       6.166   3.724  12.841  0.00  0.00    +0.000 A 
ATOM     20  C   UNL     1       5.326   3.564  13.952  0.00  0.00    +0.000 A 
ATOM     21  C   UNL     1       5.629   4.182  15.168  0.00  0.00    +0.000 A 
ATOM     22  C   UNL     1       6.784   4.960  15.278  0.00  0.00    +0.000 A 
ATOM     23  C   UNL     1       7.635   5.126  14.181  0.00  0.00    +0.000 A 
ATOM     24  C   UNL     1       7.321   4.507  12.966  0.00  0.00    +0.000 A 
ENDBRANCH  15  22
ENDBRANCH   1  15
TORSDOF 3
ENDMDL
MODEL 3
REMARK VINA RESULT:      -8.1      3.401      7.068
REMARK  Name = 
REMARK  4 active torsions:
REMARK  status: ('A' for Active; 'I' for Inactive)
REMARK    1  A    between atoms: C_1  and  C_2
REMARK    2  A    between atoms: C_5  and  S_6
REMARK    3  A    between atoms: S_6  and  N_9
REMARK    4  A    between atoms: N_12  and  C_13
REMARK                            x       y       z     vdW  Elec       q    Type
REMARK                         _______ _______ _______ _____ _____    ______ ____
ROOT
ATOM      1  N   UNL     1       5.649   6.040  17.485  0.00  0.00    +0.000 N 
ATOM      2  C   UNL     1       4.971   5.082  18.223  0.00  0.00    +0.000 C 
ATOM      3  O   UNL     1       5.489   4.000  18.456  0.00  0.00    +0.000 OA
ATOM      4  N   UNL     1       3.694   5.442  18.589  0.00  0.00    +0.000 N 
ATOM      5  H   UNL     1       5.262   6.936  17.224  0.00  0.00    +0.000 HD
ATOM      6  H   UNL     1       3.333   6.309  18.220  0.00  0.00    +0.000 HD
ENDROOT
BRANCH   4   7
ATOM      7  C   UNL     1       2.792   4.600  19.286  0.00  0.00    +0.000 A 
ATOM      8  C   UNL     1       2.833   4.429  20.675  0.00  0.00    +0.000 A 
ATOM      9  C   UNL     1       1.990   3.518  21.305  0.00  0.00    +0.000 A 
ATOM     10  F   UNL     1       2.078   3.356  22.631  0.00  0.00    +0.000 F 
ATOM     11  C   UNL     1       1.075   2.775  20.582  0.00  0.00    +0.000 A 
ATOM     12  C   UNL     1       0.997   2.978  19.213  0.00  0.00    +0.000 A 
ATOM     13  F   UNL     1       0.112   2.270  18.499  0.00  0.00    +0.000 F 
ATOM     14  C   UNL     1       1.832   3.887  18.557  0.00  0.00    +0.000 A 
ENDBRANCH   4   7
BRANCH   1  15
ATOM     15  S   UNL     1       7.156   5.747  16.826  0.00  0.00    +0.000 S 
ATOM     16  O   UNL     1       7.862   4.820  17.685  0.00  0.00    +0.000 OA
ATOM     17  O   UNL     1       7.708   7.049  16.530  0.00  0.00    +0.000 OA
BRANCH  15  22
ATOM     18  C   UNL     1       6.011   3.068  11.486  0.00  0.00    +0.000 C 
ATOM     19  C   UNL     1       6.288   3.739  12.800  0.00  0.00    +0.000 A 
ATOM     20  C   UNL     1       7.366   4.624  12.940  0.00  0.00    +0.000 A 
ATOM     21  C   UNL     1       7.629   5.234  14.170  0.00  0.00    +0.000 A 
ATOM     22  C   UNL     1       6.805   4.964  15.265  0.00  0.00    +0.000 A 
ATOM     23  C   UNL     1       5.724   4.086  15.140  0.00  0.00    +0.000 A 
ATOM     24  C   UNL     1       5.470   3.477  13.907  0.00  0.00    +0.000 A 
ENDBRANCH  15  22
ENDBRANCH   1  15
TORSDOF 3
ENDMDL
MODEL 4
REMARK VINA RESULT:      -8.1      0.088      1.036
REMARK  Name = 
REMARK  4 active torsions:
REMARK  status: ('A' for Active; 'I' for Inactive)
REMARK    1  A    between atoms: C_1  and  C_2
REMARK    2  A    between atoms: C_5  and  S_6
REMARK    3  A    between atoms: S_6  and  N_9
REMARK    4  A    between atoms: N_12  and  C_13
REMARK                            x       y       z     vdW  Elec       q    Type
REMARK                         _______ _______ _______ _____ _____    ______ ____
ROOT
ATOM      1  N   UNL     1       7.170   5.784  16.089  0.00  0.00    +0.000 N 
ATOM      2  C   UNL     1       6.656   4.770  15.296  0.00  0.00    +0.000 C 
ATOM      3  O   UNL     1       6.262   3.730  15.801  0.00  0.00    +0.000 OA
ATOM      4  N   UNL     1       6.696   5.027  13.944  0.00  0.00    +0.000 N 
ATOM      5  H   UNL     1       7.548   6.650  15.731  0.00  0.00    +0.000 HD
ATOM      6  H   UNL     1       7.169   5.867  13.645  0.00  0.00    +0.000 HD
ENDROOT
BRANCH   4   7
ATOM      7  C   UNL     1       6.290   4.112  12.941  0.00  0.00    +0.000 A 
ATOM      8  C   UNL     1       4.954   3.956  12.552  0.00  0.00    +0.000 A 
ATOM      9  C   UNL     1       4.590   2.977  11.632  0.00  0.00    +0.000 A 
ATOM     10  F   UNL     1       3.300   2.833  11.308  0.00  0.00    +0.000 F 
ATOM     11  C   UNL     1       5.538   2.148  11.061  0.00  0.00    +0.000 A 
ATOM     12  C   UNL     1       6.868   2.333  11.405  0.00  0.00    +0.000 A 
ATOM     13  F   UNL     1       7.800   1.543  10.856  0.00  0.00    +0.000 F 
ATOM     14  C   UNL     1       7.259   3.310  12.326  0.00  0.00    +0.000 A 
ENDBRANCH   4   7
BRANCH   1  15
ATOM     15  S   UNL     1       7.341   5.614  17.742  0.00  0.00    +0.000 S 
ATOM     16  O   UNL     1       7.858   6.854  18.282  0.00  0.00    +0.000 OA
ATOM     17  O   UNL     1       8.053   4.371  17.932  0.00  0.00    +0.000 OA
BRANCH  15  22
ATOM     18  C   UNL     1       1.647   4.750  19.700  0.00  0.00    +0.000 C 
ATOM     19  C   UNL     1       3.053   4.970  19.225  0.00  0.00    +0.000 A 
ATOM     20  C   UNL     1       3.376   6.075  18.425  0.00  0.00    +0.000 A 
ATOM     21  C   UNL     1       4.684   6.268  17.973  0.00  0.00    +0.000 A 
ATOM     22  C   UNL     1       5.680   5.356  18.329  0.00  0.00    +0.000 A 
ATOM     23  C   UNL     1       5.375   4.251  19.130  0.00  0.00    +0.000 A 
ATOM     24  C   UNL     1       4.062   4.063  19.575  0.00  0.00    +0.000 A 
ENDBRANCH  15  22
ENDBRANCH   1  15
TORSDOF 3
ENDMDL
MODEL 5
REMARK VINA RESULT:      -7.9      0.130      1.750
REMARK  Name = 
REMARK  4 active torsions:
REMARK  status: ('A' for Active; 'I' for Inactive)
REMARK    1  A    between atoms: C_1  and  C_2
REMARK    2  A    between atoms: C_5  and  S_6
REMARK    3  A    between atoms: S_6  and  N_9
REMARK    4  A    between atoms: N_12  and  C_13
REMARK                            x       y       z     vdW  Elec       q    Type
REMARK                         _______ _______ _______ _____ _____    ______ ____
ROOT
ATOM      1  N   UNL     1       7.149   5.711  16.043  0.00  0.00    +0.000 N 
ATOM      2  C   UNL     1       6.619   4.670  15.296  0.00  0.00    +0.000 C 
ATOM      3  O   UNL     1       6.182   3.673  15.848  0.00  0.00    +0.000 OA
ATOM      4  N   UNL     1       6.696   4.851  13.933  0.00  0.00    +0.000 N 
ATOM      5  H   UNL     1       7.562   6.544  15.647  0.00  0.00    +0.000 HD
ATOM      6  H   UNL     1       7.202   5.658  13.599  0.00  0.00    +0.000 HD
ENDROOT
BRANCH   4   7
ATOM      7  C   UNL     1       6.282   3.894  12.973  0.00  0.00    +0.000 A 
ATOM      8  C   UNL     1       7.174   3.016  12.343  0.00  0.00    +0.000 A 
ATOM      9  C   UNL     1       6.738   2.159  11.337  0.00  0.00    +0.000 A 
ATOM     10  F   UNL     1       7.623   1.357  10.734  0.00  0.00    +0.000 F 
ATOM     11  C   UNL     1       5.412   2.135  10.947  0.00  0.00    +0.000 A 
ATOM     12  C   UNL     1       4.516   2.966  11.602  0.00  0.00    +0.000 A 
ATOM     13  F   UNL     1       3.227   2.949  11.240  0.00  0.00    +0.000 F 
ATOM     14  C   UNL     1       4.930   3.835  12.616  0.00  0.00    +0.000 A 
ENDBRANCH   4   7
BRANCH   1  15
ATOM     15  S   UNL     1       7.281   5.628  17.706  0.00  0.00    +0.000 S 
ATOM     16  O   UNL     1       7.781   6.896  18.193  0.00  0.00    +0.000 OA
ATOM     17  O   UNL     1       7.990   4.399  17.978  0.00  0.00    +0.000 OA
BRANCH  15  22
ATOM     18  C   UNL     1       1.579   4.817  19.663  0.00  0.00    +0.000 C 
ATOM     19  C   UNL     1       2.984   5.009  19.173  0.00  0.00    +0.000 A 
ATOM     20  C   UNL     1       4.006   4.132  19.561  0.00  0.00    +0.000 A 
ATOM     21  C   UNL     1       5.316   4.324  19.114  0.00  0.00    +0.000 A 
ATOM     22  C   UNL     1       5.606   5.395  18.265  0.00  0.00    +0.000 A 
ATOM     23  C   UNL     1       4.597   6.276  17.865  0.00  0.00    +0.000 A 
ATOM     24  C   UNL     1       3.289   6.079  18.321  0.00  0.00    +0.000 A 
ENDBRANCH  15  22
ENDBRANCH   1  15
TORSDOF 3
ENDMDL
MODEL 6
REMARK VINA RESULT:      -7.9      0.125      2.032
REMARK  Name = 
REMARK  4 active torsions:
REMARK  status: ('A' for Active; 'I' for Inactive)
REMARK    1  A    between atoms: C_1  and  C_2
REMARK    2  A    between atoms: C_5  and  S_6
REMARK    3  A    between atoms: S_6  and  N_9
REMARK    4  A    between atoms: N_12  and  C_13
REMARK                            x       y       z     vdW  Elec       q    Type
REMARK                         _______ _______ _______ _____ _____    ______ ____
ROOT
ATOM      1  N   UNL     1       7.180   5.702  16.057  0.00  0.00    +0.000 N 
ATOM      2  C   UNL     1       6.645   4.670  15.301  0.00  0.00    +0.000 C 
ATOM      3  O   UNL     1       6.218   3.663  15.843  0.00  0.00    +0.000 OA
ATOM      4  N   UNL     1       6.707   4.870  13.940  0.00  0.00    +0.000 N 
ATOM      5  H   UNL     1       7.585   6.542  15.668  0.00  0.00    +0.000 HD
ATOM      6  H   UNL     1       7.206   5.684  13.612  0.00  0.00    +0.000 HD
ENDROOT
BRANCH   4   7
ATOM      7  C   UNL     1       6.287   3.926  12.970  0.00  0.00    +0.000 A 
ATOM      8  C   UNL     1       7.172   3.049  12.332  0.00  0.00    +0.000 A 
ATOM      9  C   UNL     1       6.730   2.204  11.318  0.00  0.00    +0.000 A 
ATOM     10  F   UNL     1       7.610   1.402  10.706  0.00  0.00    +0.000 F 
ATOM     11  C   UNL     1       5.404   2.192  10.927  0.00  0.00    +0.000 A 
ATOM     12  C   UNL     1       4.514   3.022  11.591  0.00  0.00    +0.000 A 
ATOM     13  F   UNL     1       3.225   3.018  11.230  0.00  0.00    +0.000 F 
ATOM     14  C   UNL     1       4.934   3.879  12.614  0.00  0.00    +0.000 A 
ENDBRANCH   4   7
BRANCH   1  15
ATOM     15  S   UNL     1       7.329   5.596  17.718  0.00  0.00    +0.000 S 
ATOM     16  O   UNL     1       7.780   6.876  18.222  0.00  0.00    +0.000 OA
ATOM     17  O   UNL     1       8.092   4.394  17.962  0.00  0.00    +0.000 OA
BRANCH  15  22
ATOM     18  C   UNL     1       1.645   4.541  19.612  0.00  0.00    +0.000 C 
ATOM     19  C   UNL     1       3.049   4.809  19.152  0.00  0.00    +0.000 A 
ATOM     20  C   UNL     1       3.341   5.918  18.346  0.00  0.00    +0.000 A 
ATOM     21  C   UNL     1       4.646   6.155  17.908  0.00  0.00    +0.000 A 
ATOM     22  C   UNL     1       5.670   5.283  18.286  0.00  0.00    +0.000 A 
ATOM     23  C   UNL     1       5.396   4.175  19.094  0.00  0.00    +0.000 A 
ATOM     24  C   UNL     1       4.085   3.943  19.524  0.00  0.00    +0.000 A 
ENDBRANCH  15  22
ENDBRANCH   1  15
TORSDOF 3
ENDMDL
MODEL 7
REMARK VINA RESULT:      -7.8      6.051      8.008
REMARK  Name = 
REMARK  4 active torsions:
REMARK  status: ('A' for Active; 'I' for Inactive)
REMARK    1  A    between atoms: C_1  and  C_2
REMARK    2  A    between atoms: C_5  and  S_6
REMARK    3  A    between atoms: S_6  and  N_9
REMARK    4  A    between atoms: N_12  and  C_13
REMARK                            x       y       z     vdW  Elec       q    Type
REMARK                         _______ _______ _______ _____ _____    ______ ____
ROOT
ATOM      1  N   UNL     1       8.071   6.725  18.433  0.00  0.00    +0.000 N 
ATOM      2  C   UNL     1       8.127   8.103  18.297  0.00  0.00    +0.000 C 
ATOM      3  O   UNL     1       7.500   8.663  17.411  0.00  0.00    +0.000 OA
ATOM      4  N   UNL     1       8.974   8.730  19.183  0.00  0.00    +0.000 N 
ATOM      5  H   UNL     1       8.596   6.198  19.118  0.00  0.00    +0.000 HD
ATOM      6  H   UNL     1       9.539   8.143  19.779  0.00  0.00    +0.000 HD
ENDROOT
BRANCH   4   7
ATOM      7  C   UNL     1       9.244  10.121  19.188  0.00  0.00    +0.000 A 
ATOM      8  C   UNL     1       9.493  10.849  18.018  0.00  0.00    +0.000 A 
ATOM      9  C   UNL     1       9.848  12.193  18.077  0.00  0.00    +0.000 A 
ATOM     10  F   UNL     1      10.111  12.850  16.941  0.00  0.00    +0.000 F 
ATOM     11  C   UNL     1       9.944  12.852  19.289  0.00  0.00    +0.000 A 
ATOM     12  C   UNL     1       9.650  12.148  20.447  0.00  0.00    +0.000 A 
ATOM     13  F   UNL     1       9.732  12.773  21.628  0.00  0.00    +0.000 F 
ATOM     14  C   UNL     1       9.290  10.797  20.412  0.00  0.00    +0.000 A 
ENDBRANCH   4   7
BRANCH   1  15
ATOM     15  S   UNL     1       7.213   5.764  17.369  0.00  0.00    +0.000 S 
ATOM     16  O   UNL     1       7.845   4.464  17.309  0.00  0.00    +0.000 OA
ATOM     17  O   UNL     1       7.047   6.562  16.176  0.00  0.00    +0.000 OA
BRANCH  15  22
ATOM     18  C   UNL     1       1.743   5.230  19.975  0.00  0.00    +0.000 C 
ATOM     19  C   UNL     1       3.090   5.354  19.325  0.00  0.00    +0.000 A 
ATOM     20  C   UNL     1       4.142   4.502  19.688  0.00  0.00    +0.000 A 
ATOM     21  C   UNL     1       5.399   4.630  19.091  0.00  0.00    +0.000 A 
ATOM     22  C   UNL     1       5.605   5.611  18.118  0.00  0.00    +0.000 A 
ATOM     23  C   UNL     1       4.564   6.466  17.742  0.00  0.00    +0.000 A 
ATOM     24  C   UNL     1       3.310   6.334  18.348  0.00  0.00    +0.000 A 
ENDBRANCH  15  22
ENDBRANCH   1  15
TORSDOF 3
ENDMDL
MODEL 8
REMARK VINA RESULT:      -7.8      6.067      8.084
REMARK  Name = 
REMARK  4 active torsions:
REMARK  status: ('A' for Active; 'I' for Inactive)
REMARK    1  A    between atoms: C_1  and  C_2
REMARK    2  A    between atoms: C_5  and  S_6
REMARK    3  A    between atoms: S_6  and  N_9
REMARK    4  A    between atoms: N_12  and  C_13
REMARK                            x       y       z     vdW  Elec       q    Type
REMARK                         _______ _______ _______ _____ _____    ______ ____
ROOT
ATOM      1  N   UNL     1       8.041   6.748  18.486  0.00  0.00    +0.000 N 
ATOM      2  C   UNL     1       8.133   8.122  18.320  0.00  0.00    +0.000 C 
ATOM      3  O   UNL     1       7.572   8.670  17.384  0.00  0.00    +0.000 OA
ATOM      4  N   UNL     1       8.936   8.755  19.242  0.00  0.00    +0.000 N 
ATOM      5  H   UNL     1       8.513   6.230  19.215  0.00  0.00    +0.000 HD
ATOM      6  H   UNL     1       9.452   8.173  19.886  0.00  0.00    +0.000 HD
ENDROOT
BRANCH   4   7
ATOM      7  C   UNL     1       9.234  10.140  19.229  0.00  0.00    +0.000 A 
ATOM      8  C   UNL     1       9.430  10.863  18.046  0.00  0.00    +0.000 A 
ATOM      9  C   UNL     1       9.815  12.200  18.084  0.00  0.00    +0.000 A 
ATOM     10  F   UNL     1      10.025  12.852  16.934  0.00  0.00    +0.000 F 
ATOM     11  C   UNL     1       9.992  12.857  19.287  0.00  0.00    +0.000 A 
ATOM     12  C   UNL     1       9.750  12.159  20.461  0.00  0.00    +0.000 A 
ATOM     13  F   UNL     1       9.911  12.782  21.635  0.00  0.00    +0.000 F 
ATOM     14  C   UNL     1       9.362  10.816  20.448  0.00  0.00    +0.000 A 
ENDBRANCH   4   7
BRANCH   1  15
ATOM     15  S   UNL     1       7.231   5.777  17.395  0.00  0.00    +0.000 S 
ATOM     16  O   UNL     1       7.907   4.499  17.324  0.00  0.00    +0.000 OA
ATOM     17  O   UNL     1       7.055   6.588  16.212  0.00  0.00    +0.000 OA
BRANCH  15  22
ATOM     18  C   UNL     1       1.701   5.042  19.819  0.00  0.00    +0.000 C 
ATOM     19  C   UNL     1       3.067   5.232  19.228  0.00  0.00    +0.000 A 
ATOM     20  C   UNL     1       3.308   6.243  18.287  0.00  0.00    +0.000 A 
ATOM     21  C   UNL     1       4.578   6.406  17.729  0.00  0.00    +0.000 A 
ATOM     22  C   UNL     1       5.619   5.559  18.118  0.00  0.00    +0.000 A 
ATOM     23  C   UNL     1       5.395   4.548  19.059  0.00  0.00    +0.000 A 
ATOM     24  C   UNL     1       4.120   4.389  19.610  0.00  0.00    +0.000 A 
ENDBRANCH  15  22
ENDBRANCH   1  15
TORSDOF 3
ENDMDL
MODEL 9
REMARK VINA RESULT:      -7.8      3.419      7.050
REMARK  Name = 
REMARK  4 active torsions:
REMARK  status: ('A' for Active; 'I' for Inactive)
REMARK    1  A    between atoms: C_1  and  C_2
REMARK    2  A    between atoms: C_5  and  S_6
REMARK    3  A    between atoms: S_6  and  N_9
REMARK    4  A    between atoms: N_12  and  C_13
REMARK                            x       y       z     vdW  Elec       q    Type
REMARK                         _______ _______ _______ _____ _____    ______ ____
ROOT
ATOM      1  N   UNL     1       5.615   5.969  17.426  0.00  0.00    +0.000 N 
ATOM      2  C   UNL     1       4.978   4.982  18.162  0.00  0.00    +0.000 C 
ATOM      3  O   UNL     1       5.555   3.937  18.424  0.00  0.00    +0.000 OA
ATOM      4  N   UNL     1       3.672   5.268  18.491  0.00  0.00    +0.000 N 
ATOM      5  H   UNL     1       5.181   6.837  17.143  0.00  0.00    +0.000 HD
ATOM      6  H   UNL     1       3.269   6.107  18.101  0.00  0.00    +0.000 HD
ENDROOT
BRANCH   4   7
ATOM      7  C   UNL     1       2.805   4.382  19.178  0.00  0.00    +0.000 A 
ATOM      8  C   UNL     1       1.839   3.608  18.525  0.00  0.00    +0.000 A 
ATOM      9  C   UNL     1       0.945   2.824  19.249  0.00  0.00    +0.000 A 
ATOM     10  F   UNL     1       0.013   2.122  18.594  0.00  0.00    +0.000 F 
ATOM     11  C   UNL     1       1.001   2.771  20.630  0.00  0.00    +0.000 A 
ATOM     12  C   UNL     1       1.989   3.496  21.278  0.00  0.00    +0.000 A 
ATOM     13  F   UNL     1       2.061   3.451  22.614  0.00  0.00    +0.000 F 
ATOM     14  C   UNL     1       2.898   4.290  20.572  0.00  0.00    +0.000 A 
ENDBRANCH   4   7
BRANCH   1  15
ATOM     15  S   UNL     1       7.153   5.760  16.809  0.00  0.00    +0.000 S 
ATOM     16  O   UNL     1       7.875   4.848  17.670  0.00  0.00    +0.000 OA
ATOM     17  O   UNL     1       7.653   7.092  16.557  0.00  0.00    +0.000 OA
BRANCH  15  22
ATOM     18  C   UNL     1       6.296   3.153  11.381  0.00  0.00    +0.000 C 
ATOM     19  C   UNL     1       6.501   3.805  12.717  0.00  0.00    +0.000 A 
ATOM     20  C   UNL     1       7.481   4.793  12.890  0.00  0.00    +0.000 A 
ATOM     21  C   UNL     1       7.679   5.386  14.140  0.00  0.00    +0.000 A 
ATOM     22  C   UNL     1       6.887   4.997  15.223  0.00  0.00    +0.000 A 
ATOM     23  C   UNL     1       5.902   4.017  15.065  0.00  0.00    +0.000 A 
ATOM     24  C   UNL     1       5.714   3.425  13.811  0.00  0.00    +0.000 A 
ENDBRANCH  15  22
ENDBRANCH   1  15
TORSDOF 3
ENDMDL
