MODEL 1
REMARK VINA RESULT:      -7.8      0.000      0.000
REMARK  Name = 
REMARK  11 active torsions:
REMARK  status: ('A' for Active; 'I' for Inactive)
REMARK    1  A    between atoms: C_1  and  C_2
REMARK    2  A    between atoms: C_5  and  N_6
REMARK    3  A    between atoms: N_6  and  C_7
REMARK    4  A    between atoms: C_7  and  C_8
REMARK    5  A    between atoms: C_8  and  N_9
REMARK    6  A    between atoms: C_12  and  O_13
REMARK    7  A    between atoms: O_13  and  C_14
REMARK    8  A    between atoms: C_14  and  C_15
REMARK    9  A    between atoms: C_15  and  O_17
REMARK   10  A    between atoms: C_20  and  C_22
REMARK   11  A    between atoms: C_26  and  C_27
REMARK                            x       y       z     vdW  Elec       q    Type
REMARK                         _______ _______ _______ _____ _____    ______ ____
ROOT
ATOM      1  N   UNL     1       2.869   7.636  18.018  0.00  0.00    +0.000 N 
ATOM      2  C   UNL     1       2.351   8.946  18.062  0.00  0.00    +0.000 C 
ATOM      3  O   UNL     1       2.861   9.858  17.401  0.00  0.00    +0.000 OA
ENDROOT
BRANCH   1   8
ATOM      4  C   UNL     1       0.971   3.045  20.898  0.00  0.00    +0.000 C 
ATOM      5  C   UNL     1       1.428   4.257  20.136  0.00  0.00    +0.000 A 
ATOM      6  C   UNL     1       1.365   4.298  18.741  0.00  0.00    +0.000 A 
ATOM      7  C   UNL     1       1.838   5.415  18.044  0.00  0.00    +0.000 A 
ATOM      8  C   UNL     1       2.369   6.514  18.733  0.00  0.00    +0.000 A 
ATOM      9  C   UNL     1       2.430   6.475  20.129  0.00  0.00    +0.000 A 
ATOM     10  C   UNL     1       1.959   5.356  20.824  0.00  0.00    +0.000 A 
ENDBRANCH   1   8
BRANCH   2  11
ATOM     11  C   UNL     1       1.154   9.338  18.864  0.00  0.00    +0.000 A 
ATOM     12  C   UNL     1       0.021   9.768  18.151  0.00  0.00    +0.000 A 
ATOM     13  C   UNL     1      -1.141  10.160  18.817  0.00  0.00    +0.000 A 
ATOM     14  C   UNL     1      -1.181  10.145  20.209  0.00  0.00    +0.000 A 
ATOM     15  C   UNL     1      -0.078   9.686  20.943  0.00  0.00    +0.000 A 
ATOM     16  C   UNL     1       1.067   9.242  20.255  0.00  0.00    +0.000 A 
BRANCH  15  17
ATOM     17  C   UNL     1      -0.079   9.683  22.451  0.00  0.00    +0.000 C 
ATOM     18  F   UNL     1       1.105   9.293  22.997  0.00  0.00    +0.000 F 
ATOM     19  F   UNL     1      -0.349  10.910  22.977  0.00  0.00    +0.000 F 
ATOM     20  F   UNL     1      -1.020   8.841  22.964  0.00  0.00    +0.000 F 
ENDBRANCH  15  17
ENDBRANCH   2  11
BRANCH   1  21
ATOM     21  C   UNL     1       3.981   7.414  17.072  0.00  0.00    +0.000 C 
BRANCH  21  22
ATOM     22  C   UNL     1       5.304   6.895  17.684  0.00  0.00    +0.000 C 
BRANCH  22  23
ATOM     23  N   UNL     1       5.753   5.578  17.167  0.00  0.00    +0.000 NA
ATOM     24  C   UNL     1       4.668   4.973  16.377  0.00  0.00    +0.000 C 
ATOM     25  C   UNL     1       5.064   3.611  15.801  0.00  0.00    +0.000 C 
ATOM     26  C   UNL     1       6.341   3.713  14.965  0.00  0.00    +0.000 C 
ATOM     27  C   UNL     1       7.431   4.336  15.838  0.00  0.00    +0.000 C 
ATOM     28  C   UNL     1       6.986   5.696  16.375  0.00  0.00    +0.000 C 
BRANCH  26  29
ATOM     29  O   UNL     1       6.058   4.499  13.790  0.00  0.00    +0.000 OA
BRANCH  29  30
ATOM     30  C   UNL     1       6.561   3.902  12.581  0.00  0.00    +0.000 C 
BRANCH  30  31
ATOM     31  C   UNL     1       5.516   2.986  11.966  0.00  0.00    +0.000 C 
ATOM     32  O   UNL     1       4.393   3.335  11.638  0.00  0.00    +0.000 OA
BRANCH  31  33
ATOM     33  O   UNL     1       5.965   1.710  11.827  0.00  0.00    +0.000 OA
ATOM     34  H   UNL     1       5.177   1.117  11.831  0.00  0.00    +0.000 HD
ENDBRANCH  31  33
ENDBRANCH  30  31
ENDBRANCH  29  30
ENDBRANCH  26  29
ENDBRANCH  22  23
ENDBRANCH  21  22
ENDBRANCH   1  21
TORSDOF 10
ENDMDL
MODEL 2
REMARK VINA RESULT:      -7.8      4.458      8.832
REMARK  Name = 
REMARK  11 active torsions:
REMARK  status: ('A' for Active; 'I' for Inactive)
REMARK    1  A    between atoms: C_1  and  C_2
REMARK    2  A    between atoms: C_5  and  N_6
REMARK    3  A    between atoms: N_6  and  C_7
REMARK    4  A    between atoms: C_7  and  C_8
REMARK    5  A    between atoms: C_8  and  N_9
REMARK    6  A    between atoms: C_12  and  O_13
REMARK    7  A    between atoms: O_13  and  C_14
REMARK    8  A    between atoms: C_14  and  C_15
REMARK    9  A    between atoms: C_15  and  O_17
REMARK   10  A    between atoms: C_20  and  C_22
REMARK   11  A    between atoms: C_26  and  C_27
REMARK                            x       y       z     vdW  Elec       q    Type
REMARK                         _______ _______ _______ _____ _____    ______ ____
ROOT
ATOM      1  N   UNL     1       2.896   7.105  18.411  0.00  0.00    +0.000 N 
ATOM      2  C   UNL     1       4.090   7.403  17.723  0.00  0.00    +0.000 C 
ATOM      3  O   UNL     1       4.409   8.571  17.474  0.00  0.00    +0.000 OA
ENDROOT
BRANCH   1   8
ATOM      4  C   UNL     1       1.117   1.810  19.739  0.00  0.00    +0.000 C 
ATOM      5  C   UNL     1       1.543   3.208  19.390  0.00  0.00    +0.000 A 
ATOM      6  C   UNL     1       1.382   3.709  18.095  0.00  0.00    +0.000 A 
ATOM      7  C   UNL     1       1.827   4.996  17.775  0.00  0.00    +0.000 A 
ATOM      8  C   UNL     1       2.426   5.807  18.748  0.00  0.00    +0.000 A 
ATOM      9  C   UNL     1       2.584   5.308  20.045  0.00  0.00    +0.000 A 
ATOM     10  C   UNL     1       2.142   4.019  20.362  0.00  0.00    +0.000 A 
ENDBRANCH   1   8
BRANCH   2  11
ATOM     11  C   UNL     1       5.065   6.368  17.268  0.00  0.00    +0.000 A 
ATOM     12  C   UNL     1       6.011   5.927  18.209  0.00  0.00    +0.000 A 
ATOM     13  C   UNL     1       6.966   4.967  17.872  0.00  0.00    +0.000 A 
ATOM     14  C   UNL     1       7.001   4.447  16.581  0.00  0.00    +0.000 A 
ATOM     15  C   UNL     1       6.046   4.843  15.633  0.00  0.00    +0.000 A 
ATOM     16  C   UNL     1       5.055   5.771  16.005  0.00  0.00    +0.000 A 
BRANCH  15  17
ATOM     17  C   UNL     1       6.073   4.320  14.220  0.00  0.00    +0.000 C 
ATOM     18  F   UNL     1       6.414   3.005  14.130  0.00  0.00    +0.000 F 
ATOM     19  F   UNL     1       4.869   4.438  13.595  0.00  0.00    +0.000 F 
ATOM     20  F   UNL     1       6.967   4.989  13.440  0.00  0.00    +0.000 F 
ENDBRANCH  15  17
ENDBRANCH   2  11
BRANCH   1  21
ATOM     21  C   UNL     1       2.121   8.267  18.889  0.00  0.00    +0.000 C 
BRANCH  21  22
ATOM     22  C   UNL     1       1.233   8.974  17.837  0.00  0.00    +0.000 C 
BRANCH  22  23
ATOM     23  N   UNL     1       0.626  10.249  18.293  0.00  0.00    +0.000 NA
ATOM     24  C   UNL     1      -0.476   9.955  19.225  0.00  0.00    +0.000 C 
ATOM     25  C   UNL     1      -1.146  11.230  19.746  0.00  0.00    +0.000 C 
ATOM     26  C   UNL     1      -0.128  12.165  20.400  0.00  0.00    +0.000 C 
ATOM     27  C   UNL     1       0.982  12.441  19.384  0.00  0.00    +0.000 C 
ATOM     28  C   UNL     1       1.622  11.138  18.909  0.00  0.00    +0.000 C 
BRANCH  26  29
ATOM     29  O   UNL     1       0.367  11.537  21.600  0.00  0.00    +0.000 OA
BRANCH  29  30
ATOM     30  C   UNL     1      -0.685  11.029  22.441  0.00  0.00    +0.000 C 
BRANCH  30  31
ATOM     31  C   UNL     1      -0.356   9.623  22.913  0.00  0.00    +0.000 C 
ATOM     32  O   UNL     1      -0.870   8.605  22.476  0.00  0.00    +0.000 OA
BRANCH  31  33
ATOM     33  O   UNL     1       0.580   9.614  23.900  0.00  0.00    +0.000 OA
ATOM     34  H   UNL     1       1.321  10.196  23.611  0.00  0.00    +0.000 HD
ENDBRANCH  31  33
ENDBRANCH  30  31
ENDBRANCH  29  30
ENDBRANCH  26  29
ENDBRANCH  22  23
ENDBRANCH  21  22
ENDBRANCH   1  21
TORSDOF 10
ENDMDL
MODEL 3
REMARK VINA RESULT:      -7.8      0.125      1.082
REMARK  Name = 
REMARK  11 active torsions:
REMARK  status: ('A' for Active; 'I' for Inactive)
REMARK    1  A    between atoms: C_1  and  C_2
REMARK    2  A    between atoms: C_5  and  N_6
REMARK    3  A    between atoms: N_6  and  C_7
REMARK    4  A    between atoms: C_7  and  C_8
REMARK    5  A    between atoms: C_8  and  N_9
REMARK    6  A    between atoms: C_12  and  O_13
REMARK    7  A    between atoms: O_13  and  C_14
REMARK    8  A    between atoms: C_14  and  C_15
REMARK    9  A    between atoms: C_15  and  O_17
REMARK   10  A    between atoms: C_20  and  C_22
REMARK   11  A    between atoms: C_26  and  C_27
REMARK                            x       y       z     vdW  Elec       q    Type
REMARK                         _______ _______ _______ _____ _____    ______ ____
ROOT
ATOM      1  N   UNL     1       2.879   7.716  17.940  0.00  0.00    +0.000 N 
ATOM      2  C   UNL     1       2.319   9.008  18.000  0.00  0.00    +0.000 C 
ATOM      3  O   UNL     1       2.795   9.942  17.344  0.00  0.00    +0.000 OA
ENDROOT
BRANCH   1   8
ATOM      4  C   UNL     1       0.911   3.149  20.810  0.00  0.00    +0.000 C 
ATOM      5  C   UNL     1       1.465   4.332  20.067  0.00  0.00    +0.000 A 
ATOM      6  C   UNL     1       2.008   5.423  20.752  0.00  0.00    +0.000 A 
ATOM      7  C   UNL     1       2.476   6.538  20.048  0.00  0.00    +0.000 A 
ATOM      8  C   UNL     1       2.422   6.572  18.648  0.00  0.00    +0.000 A 
ATOM      9  C   UNL     1       1.884   5.479  17.962  0.00  0.00    +0.000 A 
ATOM     10  C   UNL     1       1.412   4.367  18.668  0.00  0.00    +0.000 A 
ENDBRANCH   1   8
BRANCH   2  11
ATOM     11  C   UNL     1       1.117   9.354  18.816  0.00  0.00    +0.000 A 
ATOM     12  C   UNL     1      -0.023   9.788  18.118  0.00  0.00    +0.000 A 
ATOM     13  C   UNL     1      -1.191  10.139  18.797  0.00  0.00    +0.000 A 
ATOM     14  C   UNL     1      -1.229  10.077  20.188  0.00  0.00    +0.000 A 
ATOM     15  C   UNL     1      -0.118   9.613  20.906  0.00  0.00    +0.000 A 
ATOM     16  C   UNL     1       1.034   9.211  20.203  0.00  0.00    +0.000 A 
BRANCH  15  17
ATOM     17  C   UNL     1      -0.116   9.561  22.413  0.00  0.00    +0.000 C 
ATOM     18  F   UNL     1      -0.478  10.734  23.001  0.00  0.00    +0.000 F 
ATOM     19  F   UNL     1      -0.966   8.617  22.905  0.00  0.00    +0.000 F 
ATOM     20  F   UNL     1       1.113   9.258  22.917  0.00  0.00    +0.000 F 
ENDBRANCH  15  17
ENDBRANCH   2  11
BRANCH   1  21
ATOM     21  C   UNL     1       3.990   7.539  16.983  0.00  0.00    +0.000 C 
BRANCH  21  22
ATOM     22  C   UNL     1       5.339   7.074  17.581  0.00  0.00    +0.000 C 
BRANCH  22  23
ATOM     23  N   UNL     1       5.775   5.722  17.153  0.00  0.00    +0.000 NA
ATOM     24  C   UNL     1       4.680   5.072  16.412  0.00  0.00    +0.000 C 
ATOM     25  C   UNL     1       5.063   3.671  15.929  0.00  0.00    +0.000 C 
ATOM     26  C   UNL     1       6.336   3.705  15.081  0.00  0.00    +0.000 C 
ATOM     27  C   UNL     1       7.435   4.379  15.903  0.00  0.00    +0.000 C 
ATOM     28  C   UNL     1       7.004   5.775  16.347  0.00  0.00    +0.000 C 
BRANCH  26  29
ATOM     29  O   UNL     1       6.051   4.411  13.856  0.00  0.00    +0.000 OA
BRANCH  29  30
ATOM     30  C   UNL     1       6.596   3.761  12.694  0.00  0.00    +0.000 C 
BRANCH  30  31
ATOM     31  C   UNL     1       5.520   2.957  11.982  0.00  0.00    +0.000 C 
ATOM     32  O   UNL     1       4.405   3.375  11.713  0.00  0.00    +0.000 OA
BRANCH  31  33
ATOM     33  O   UNL     1       5.931   1.697  11.680  0.00  0.00    +0.000 OA
ATOM     34  H   UNL     1       6.898   1.737  11.493  0.00  0.00    +0.000 HD
ENDBRANCH  31  33
ENDBRANCH  30  31
ENDBRANCH  29  30
ENDBRANCH  26  29
ENDBRANCH  22  23
ENDBRANCH  21  22
ENDBRANCH   1  21
TORSDOF 10
ENDMDL
MODEL 4
REMARK VINA RESULT:      -7.6      4.441      8.878
REMARK  Name = 
REMARK  11 active torsions:
REMARK  status: ('A' for Active; 'I' for Inactive)
REMARK    1  A    between atoms: C_1  and  C_2
REMARK    2  A    between atoms: C_5  and  N_6
REMARK    3  A    between atoms: N_6  and  C_7
REMARK    4  A    between atoms: C_7  and  C_8
REMARK    5  A    between atoms: C_8  and  N_9
REMARK    6  A    between atoms: C_12  and  O_13
REMARK    7  A    between atoms: O_13  and  C_14
REMARK    8  A    between atoms: C_14  and  C_15
REMARK    9  A    between atoms: C_15  and  O_17
REMARK   10  A    between atoms: C_20  and  C_22
REMARK   11  A    between atoms: C_26  and  C_27
REMARK                            x       y       z     vdW  Elec       q    Type
REMARK                         _______ _______ _______ _____ _____    ______ ____
ROOT
ATOM      1  N   UNL     1       2.818   7.146  18.609  0.00  0.00    +0.000 N 
ATOM      2  C   UNL     1       3.942   7.412  17.799  0.00  0.00    +0.000 C 
ATOM      3  O   UNL     1       4.192   8.558  17.409  0.00  0.00    +0.000 OA
ENDROOT
BRANCH   1   8
ATOM      4  C   UNL     1       1.127   2.055  20.654  0.00  0.00    +0.000 C 
ATOM      5  C   UNL     1       1.609   3.377  20.127  0.00  0.00    +0.000 A 
ATOM      6  C   UNL     1       2.053   4.379  20.993  0.00  0.00    +0.000 A 
ATOM      7  C   UNL     1       2.454   5.622  20.490  0.00  0.00    +0.000 A 
ATOM      8  C   UNL     1       2.431   5.875  19.112  0.00  0.00    +0.000 A 
ATOM      9  C   UNL     1       1.990   4.871  18.244  0.00  0.00    +0.000 A 
ATOM     10  C   UNL     1       1.586   3.631  18.750  0.00  0.00    +0.000 A 
ENDBRANCH   1   8
BRANCH   2  11
ATOM     11  C   UNL     1       4.921   6.368  17.372  0.00  0.00    +0.000 A 
ATOM     12  C   UNL     1       5.773   5.850  18.363  0.00  0.00    +0.000 A 
ATOM     13  C   UNL     1       6.724   4.877  18.055  0.00  0.00    +0.000 A 
ATOM     14  C   UNL     1       6.849   4.420  16.746  0.00  0.00    +0.000 A 
ATOM     15  C   UNL     1       5.988   4.893  15.746  0.00  0.00    +0.000 A 
ATOM     16  C   UNL     1       4.998   5.834  16.083  0.00  0.00    +0.000 A 
BRANCH  15  17
ATOM     17  C   UNL     1       6.116   4.439  14.314  0.00  0.00    +0.000 C 
ATOM     18  F   UNL     1       6.957   5.207  13.570  0.00  0.00    +0.000 F 
ATOM     19  F   UNL     1       6.580   3.163  14.209  0.00  0.00    +0.000 F 
ATOM     20  F   UNL     1       4.921   4.457  13.660  0.00  0.00    +0.000 F 
ENDBRANCH  15  17
ENDBRANCH   2  11
BRANCH   1  21
ATOM     21  C   UNL     1       2.035   8.325  19.030  0.00  0.00    +0.000 C 
BRANCH  21  22
ATOM     22  C   UNL     1       1.368   9.141  17.897  0.00  0.00    +0.000 C 
BRANCH  22  23
ATOM     23  N   UNL     1       0.578  10.311  18.355  0.00  0.00    +0.000 NA
ATOM     24  C   UNL     1      -0.422   9.863  19.340  0.00  0.00    +0.000 C 
ATOM     25  C   UNL     1      -1.272  11.022  19.866  0.00  0.00    +0.000 C 
ATOM     26  C   UNL     1      -0.396  12.127  20.459  0.00  0.00    +0.000 C 
ATOM     27  C   UNL     1       0.612  12.557  19.392  0.00  0.00    +0.000 C 
ATOM     28  C   UNL     1       1.438  11.365  18.913  0.00  0.00    +0.000 C 
BRANCH  26  29
ATOM     29  O   UNL     1       0.242  11.618  21.648  0.00  0.00    +0.000 OA
BRANCH  29  30
ATOM     30  C   UNL     1      -0.692  11.062  22.591  0.00  0.00    +0.000 C 
BRANCH  30  31
ATOM     31  C   UNL     1      -0.177   9.737  23.130  0.00  0.00    +0.000 C 
ATOM     32  O   UNL     1       0.834   9.606  23.802  0.00  0.00    +0.000 OA
BRANCH  31  33
ATOM     33  O   UNL     1      -0.967   8.691  22.769  0.00  0.00    +0.000 OA
ATOM     34  H   UNL     1      -0.711   7.920  23.328  0.00  0.00    +0.000 HD
ENDBRANCH  31  33
ENDBRANCH  30  31
ENDBRANCH  29  30
ENDBRANCH  26  29
ENDBRANCH  22  23
ENDBRANCH  21  22
ENDBRANCH   1  21
TORSDOF 10
ENDMDL
MODEL 5
REMARK VINA RESULT:      -7.5      4.490      8.604
REMARK  Name = 
REMARK  11 active torsions:
REMARK  status: ('A' for Active; 'I' for Inactive)
REMARK    1  A    between atoms: C_1  and  C_2
REMARK    2  A    between atoms: C_5  and  N_6
REMARK    3  A    between atoms: N_6  and  C_7
REMARK    4  A    between atoms: C_7  and  C_8
REMARK    5  A    between atoms: C_8  and  N_9
REMARK    6  A    between atoms: C_12  and  O_13
REMARK    7  A    between atoms: O_13  and  C_14
REMARK    8  A    between atoms: C_14  and  C_15
REMARK    9  A    between atoms: C_15  and  O_17
REMARK   10  A    between atoms: C_20  and  C_22
REMARK   11  A    between atoms: C_26  and  C_27
REMARK                            x       y       z     vdW  Elec       q    Type
REMARK                         _______ _______ _______ _____ _____    ______ ____
ROOT
ATOM      1  N   UNL     1       2.667   6.920  18.259  0.00  0.00    +0.000 N 
ATOM      2  C   UNL     1       3.792   7.369  17.537  0.00  0.00    +0.000 C 
ATOM      3  O   UNL     1       3.912   8.556  17.215  0.00  0.00    +0.000 OA
ENDROOT
BRANCH   1   8
ATOM      4  C   UNL     1       1.785   1.487  19.896  0.00  0.00    +0.000 C 
ATOM      5  C   UNL     1       1.976   2.917  19.476  0.00  0.00    +0.000 A 
ATOM      6  C   UNL     1       1.472   3.384  18.259  0.00  0.00    +0.000 A 
ATOM      7  C   UNL     1       1.699   4.706  17.861  0.00  0.00    +0.000 A 
ATOM      8  C   UNL     1       2.421   5.584  18.680  0.00  0.00    +0.000 A 
ATOM      9  C   UNL     1       2.922   5.119  19.899  0.00  0.00    +0.000 A 
ATOM     10  C   UNL     1       2.697   3.796  20.294  0.00  0.00    +0.000 A 
ENDBRANCH   1   8
BRANCH   2  11
ATOM     11  C   UNL     1       4.924   6.484  17.131  0.00  0.00    +0.000 A 
ATOM     12  C   UNL     1       5.971   6.324  18.055  0.00  0.00    +0.000 A 
ATOM     13  C   UNL     1       7.073   5.521  17.759  0.00  0.00    +0.000 A 
ATOM     14  C   UNL     1       7.153   4.880  16.526  0.00  0.00    +0.000 A 
ATOM     15  C   UNL     1       6.106   4.994  15.600  0.00  0.00    +0.000 A 
ATOM     16  C   UNL     1       4.976   5.763  15.935  0.00  0.00    +0.000 A 
BRANCH  15  17
ATOM     17  C   UNL     1       6.174   4.336  14.246  0.00  0.00    +0.000 C 
ATOM     18  F   UNL     1       5.008   4.403  13.547  0.00  0.00    +0.000 F 
ATOM     19  F   UNL     1       7.126   4.887  13.443  0.00  0.00    +0.000 F 
ATOM     20  F   UNL     1       6.479   3.010  14.332  0.00  0.00    +0.000 F 
ENDBRANCH  15  17
ENDBRANCH   2  11
BRANCH   1  21
ATOM     21  C   UNL     1       1.712   7.964  18.679  0.00  0.00    +0.000 C 
BRANCH  21  22
ATOM     22  C   UNL     1       1.717   8.329  20.183  0.00  0.00    +0.000 C 
BRANCH  22  23
ATOM     23  N   UNL     1       1.162   9.668  20.500  0.00  0.00    +0.000 NA
ATOM     24  C   UNL     1       0.950  10.412  19.247  0.00  0.00    +0.000 C 
ATOM     25  C   UNL     1       0.368  11.806  19.496  0.00  0.00    +0.000 C 
ATOM     26  C   UNL     1      -0.933  11.729  20.298  0.00  0.00    +0.000 C 
ATOM     27  C   UNL     1      -0.649  10.957  21.587  0.00  0.00    +0.000 C 
ATOM     28  C   UNL     1      -0.082   9.572  21.278  0.00  0.00    +0.000 C 
BRANCH  26  29
ATOM     29  O   UNL     1      -1.937  11.092  19.482  0.00  0.00    +0.000 OA
BRANCH  29  30
ATOM     30  C   UNL     1      -2.344  11.898  18.362  0.00  0.00    +0.000 C 
BRANCH  30  31
ATOM     31  C   UNL     1      -2.681  11.019  17.169  0.00  0.00    +0.000 C 
ATOM     32  O   UNL     1      -3.199   9.916  17.243  0.00  0.00    +0.000 OA
BRANCH  31  33
ATOM     33  O   UNL     1      -2.329  11.594  15.988  0.00  0.00    +0.000 OA
ATOM     34  H   UNL     1      -1.358  11.759  16.016  0.00  0.00    +0.000 HD
ENDBRANCH  31  33
ENDBRANCH  30  31
ENDBRANCH  29  30
ENDBRANCH  26  29
ENDBRANCH  22  23
ENDBRANCH  21  22
ENDBRANCH   1  21
TORSDOF 10
ENDMDL
MODEL 6
REMARK VINA RESULT:      -7.5      1.920      2.382
REMARK  Name = 
REMARK  11 active torsions:
REMARK  status: ('A' for Active; 'I' for Inactive)
REMARK    1  A    between atoms: C_1  and  C_2
REMARK    2  A    between atoms: C_5  and  N_6
REMARK    3  A    between atoms: N_6  and  C_7
REMARK    4  A    between atoms: C_7  and  C_8
REMARK    5  A    between atoms: C_8  and  N_9
REMARK    6  A    between atoms: C_12  and  O_13
REMARK    7  A    between atoms: O_13  and  C_14
REMARK    8  A    between atoms: C_14  and  C_15
REMARK    9  A    between atoms: C_15  and  O_17
REMARK   10  A    between atoms: C_20  and  C_22
REMARK   11  A    between atoms: C_26  and  C_27
REMARK                            x       y       z     vdW  Elec       q    Type
REMARK                         _______ _______ _______ _____ _____    ______ ____
ROOT
ATOM      1  N   UNL     1       2.886   7.730  17.914  0.00  0.00    +0.000 N 
ATOM      2  C   UNL     1       2.299   9.009  17.827  0.00  0.00    +0.000 C 
ATOM      3  O   UNL     1       2.843   9.919  17.191  0.00  0.00    +0.000 OA
ENDROOT
BRANCH   1   8
ATOM      4  C   UNL     1       0.870   3.161  20.748  0.00  0.00    +0.000 C 
ATOM      5  C   UNL     1       1.358   4.367  19.996  0.00  0.00    +0.000 A 
ATOM      6  C   UNL     1       1.358   4.395  18.599  0.00  0.00    +0.000 A 
ATOM      7  C   UNL     1       1.860   5.507  17.914  0.00  0.00    +0.000 A 
ATOM      8  C   UNL     1       2.357   6.613  18.616  0.00  0.00    +0.000 A 
ATOM      9  C   UNL     1       2.353   6.588  20.014  0.00  0.00    +0.000 A 
ATOM     10  C   UNL     1       1.854   5.474  20.697  0.00  0.00    +0.000 A 
ENDBRANCH   1   8
BRANCH   2  11
ATOM     11  C   UNL     1       0.991   9.366  18.452  0.00  0.00    +0.000 A 
ATOM     12  C   UNL     1       0.957   9.448  19.855  0.00  0.00    +0.000 A 
ATOM     13  C   UNL     1      -0.223   9.769  20.527  0.00  0.00    +0.000 A 
ATOM     14  C   UNL     1      -1.392   9.996  19.806  0.00  0.00    +0.000 A 
ATOM     15  C   UNL     1      -1.377   9.956  18.405  0.00  0.00    +0.000 A 
ATOM     16  C   UNL     1      -0.167   9.685  17.739  0.00  0.00    +0.000 A 
BRANCH  15  17
ATOM     17  C   UNL     1      -2.631  10.170  17.595  0.00  0.00    +0.000 C 
ATOM     18  F   UNL     1      -3.769   9.796  18.242  0.00  0.00    +0.000 F 
ATOM     19  F   UNL     1      -2.811  11.472  17.241  0.00  0.00    +0.000 F 
ATOM     20  F   UNL     1      -2.619   9.463  16.430  0.00  0.00    +0.000 F 
ENDBRANCH  15  17
ENDBRANCH   2  11
BRANCH   1  21
ATOM     21  C   UNL     1       4.119   7.532  17.127  0.00  0.00    +0.000 C 
BRANCH  21  22
ATOM     22  C   UNL     1       5.325   6.930  17.889  0.00  0.00    +0.000 C 
BRANCH  22  23
ATOM     23  N   UNL     1       5.791   5.618  17.377  0.00  0.00    +0.000 NA
ATOM     24  C   UNL     1       4.695   4.971  16.636  0.00  0.00    +0.000 C 
ATOM     25  C   UNL     1       5.108   3.610  16.068  0.00  0.00    +0.000 C 
ATOM     26  C   UNL     1       6.351   3.731  15.185  0.00  0.00    +0.000 C 
ATOM     27  C   UNL     1       7.454   4.398  16.009  0.00  0.00    +0.000 C 
ATOM     28  C   UNL     1       6.991   5.755  16.539  0.00  0.00    +0.000 C 
BRANCH  26  29
ATOM     29  O   UNL     1       6.005   4.490  14.008  0.00  0.00    +0.000 OA
BRANCH  29  30
ATOM     30  C   UNL     1       6.589   3.957  12.806  0.00  0.00    +0.000 C 
BRANCH  30  31
ATOM     31  C   UNL     1       5.590   3.072  12.078  0.00  0.00    +0.000 C 
ATOM     32  O   UNL     1       4.468   3.418  11.746  0.00  0.00    +0.000 OA
BRANCH  31  33
ATOM     33  O   UNL     1       6.081   1.826  11.841  0.00  0.00    +0.000 OA
ATOM     34  H   UNL     1       5.488   1.183  12.295  0.00  0.00    +0.000 HD
ENDBRANCH  31  33
ENDBRANCH  30  31
ENDBRANCH  29  30
ENDBRANCH  26  29
ENDBRANCH  22  23
ENDBRANCH  21  22
ENDBRANCH   1  21
TORSDOF 10
ENDMDL
MODEL 7
REMARK VINA RESULT:      -7.5      4.498      8.677
REMARK  Name = 
REMARK  11 active torsions:
REMARK  status: ('A' for Active; 'I' for Inactive)
REMARK    1  A    between atoms: C_1  and  C_2
REMARK    2  A    between atoms: C_5  and  N_6
REMARK    3  A    between atoms: N_6  and  C_7
REMARK    4  A    between atoms: C_7  and  C_8
REMARK    5  A    between atoms: C_8  and  N_9
REMARK    6  A    between atoms: C_12  and  O_13
REMARK    7  A    between atoms: O_13  and  C_14
REMARK    8  A    between atoms: C_14  and  C_15
REMARK    9  A    between atoms: C_15  and  O_17
REMARK   10  A    between atoms: C_20  and  C_22
REMARK   11  A    between atoms: C_26  and  C_27
REMARK                            x       y       z     vdW  Elec       q    Type
REMARK                         _______ _______ _______ _____ _____    ______ ____
ROOT
ATOM      1  N   UNL     1       2.761   6.888  18.207  0.00  0.00    +0.000 N 
ATOM      2  C   UNL     1       3.883   7.338  17.481  0.00  0.00    +0.000 C 
ATOM      3  O   UNL     1       4.010   8.529  17.175  0.00  0.00    +0.000 OA
ENDROOT
BRANCH   1   8
ATOM      4  C   UNL     1       1.629   1.521  19.907  0.00  0.00    +0.000 C 
ATOM      5  C   UNL     1       1.964   2.914  19.451  0.00  0.00    +0.000 A 
ATOM      6  C   UNL     1       2.795   3.741  20.212  0.00  0.00    +0.000 A 
ATOM      7  C   UNL     1       3.058   5.051  19.798  0.00  0.00    +0.000 A 
ATOM      8  C   UNL     1       2.507   5.549  18.610  0.00  0.00    +0.000 A 
ATOM      9  C   UNL     1       1.679   4.721  17.846  0.00  0.00    +0.000 A 
ATOM     10  C   UNL     1       1.414   3.412  18.264  0.00  0.00    +0.000 A 
ENDBRANCH   1   8
BRANCH   2  11
ATOM     11  C   UNL     1       5.003   6.449  17.051  0.00  0.00    +0.000 A 
ATOM     12  C   UNL     1       6.064   6.278  17.956  0.00  0.00    +0.000 A 
ATOM     13  C   UNL     1       7.157   5.472  17.638  0.00  0.00    +0.000 A 
ATOM     14  C   UNL     1       7.213   4.837  16.400  0.00  0.00    +0.000 A 
ATOM     15  C   UNL     1       6.151   4.961  15.493  0.00  0.00    +0.000 A 
ATOM     16  C   UNL     1       5.031   5.734  15.851  0.00  0.00    +0.000 A 
BRANCH  15  17
ATOM     17  C   UNL     1       6.193   4.309  14.134  0.00  0.00    +0.000 C 
ATOM     18  F   UNL     1       6.449   2.973  14.176  0.00  0.00    +0.000 F 
ATOM     19  F   UNL     1       5.022   4.446  13.452  0.00  0.00    +0.000 F 
ATOM     20  F   UNL     1       7.157   4.847  13.335  0.00  0.00    +0.000 F 
ENDBRANCH  15  17
ENDBRANCH   2  11
BRANCH   1  21
ATOM     21  C   UNL     1       1.819   7.935  18.651  0.00  0.00    +0.000 C 
BRANCH  21  22
ATOM     22  C   UNL     1       1.711   8.152  20.179  0.00  0.00    +0.000 C 
BRANCH  22  23
ATOM     23  N   UNL     1       1.198   9.484  20.583  0.00  0.00    +0.000 NA
ATOM     24  C   UNL     1       1.094  10.344  19.392  0.00  0.00    +0.000 C 
ATOM     25  C   UNL     1       0.561  11.738  19.732  0.00  0.00    +0.000 C 
ATOM     26  C   UNL     1      -0.787  11.656  20.451  0.00  0.00    +0.000 C 
ATOM     27  C   UNL     1      -0.615  10.762  21.680  0.00  0.00    +0.000 C 
ATOM     28  C   UNL     1      -0.092   9.383  21.280  0.00  0.00    +0.000 C 
BRANCH  26  29
ATOM     29  O   UNL     1      -1.769  11.142  19.527  0.00  0.00    +0.000 OA
BRANCH  29  30
ATOM     30  C   UNL     1      -2.011  12.025  18.418  0.00  0.00    +0.000 C 
BRANCH  30  31
ATOM     31  C   UNL     1      -2.467  11.237  17.201  0.00  0.00    +0.000 C 
ATOM     32  O   UNL     1      -1.958  10.196  16.818  0.00  0.00    +0.000 OA
BRANCH  31  33
ATOM     33  O   UNL     1      -3.513  11.828  16.564  0.00  0.00    +0.000 OA
ATOM     34  H   UNL     1      -4.000  11.124  16.077  0.00  0.00    +0.000 HD
ENDBRANCH  31  33
ENDBRANCH  30  31
ENDBRANCH  29  30
ENDBRANCH  26  29
ENDBRANCH  22  23
ENDBRANCH  21  22
ENDBRANCH   1  21
TORSDOF 10
ENDMDL
MODEL 8
REMARK VINA RESULT:      -7.4      4.487      9.149
REMARK  Name = 
REMARK  11 active torsions:
REMARK  status: ('A' for Active; 'I' for Inactive)
REMARK    1  A    between atoms: C_1  and  C_2
REMARK    2  A    between atoms: C_5  and  N_6
REMARK    3  A    between atoms: N_6  and  C_7
REMARK    4  A    between atoms: C_7  and  C_8
REMARK    5  A    between atoms: C_8  and  N_9
REMARK    6  A    between atoms: C_12  and  O_13
REMARK    7  A    between atoms: O_13  and  C_14
REMARK    8  A    between atoms: C_14  and  C_15
REMARK    9  A    between atoms: C_15  and  O_17
REMARK   10  A    between atoms: C_20  and  C_22
REMARK   11  A    between atoms: C_26  and  C_27
REMARK                            x       y       z     vdW  Elec       q    Type
REMARK                         _______ _______ _______ _____ _____    ______ ____
ROOT
ATOM      1  N   UNL     1       2.971   6.851  18.336  0.00  0.00    +0.000 N 
ATOM      2  C   UNL     1       4.122   7.216  17.607  0.00  0.00    +0.000 C 
ATOM      3  O   UNL     1       4.363   8.399  17.343  0.00  0.00    +0.000 OA
ENDROOT
BRANCH   1   8
ATOM      4  C   UNL     1       1.537   1.464  19.711  0.00  0.00    +0.000 C 
ATOM      5  C   UNL     1       1.874   2.886  19.361  0.00  0.00    +0.000 A 
ATOM      6  C   UNL     1       1.385   3.476  18.193  0.00  0.00    +0.000 A 
ATOM      7  C   UNL     1       1.746   4.786  17.858  0.00  0.00    +0.000 A 
ATOM      8  C   UNL     1       2.590   5.529  18.693  0.00  0.00    +0.000 A 
ATOM      9  C   UNL     1       3.077   4.941  19.864  0.00  0.00    +0.000 A 
ATOM     10  C   UNL     1       2.717   3.631  20.196  0.00  0.00    +0.000 A 
ENDBRANCH   1   8
BRANCH   2  11
ATOM     11  C   UNL     1       5.141   6.237  17.123  0.00  0.00    +0.000 A 
ATOM     12  C   UNL     1       6.152   5.871  18.028  0.00  0.00    +0.000 A 
ATOM     13  C   UNL     1       7.151   4.969  17.662  0.00  0.00    +0.000 A 
ATOM     14  C   UNL     1       7.164   4.431  16.378  0.00  0.00    +0.000 A 
ATOM     15  C   UNL     1       6.147   4.751  15.467  0.00  0.00    +0.000 A 
ATOM     16  C   UNL     1       5.115   5.621  15.870  0.00  0.00    +0.000 A 
BRANCH  15  17
ATOM     17  C   UNL     1       6.146   4.209  14.061  0.00  0.00    +0.000 C 
ATOM     18  F   UNL     1       4.939   4.304  13.439  0.00  0.00    +0.000 F 
ATOM     19  F   UNL     1       7.036   4.849  13.253  0.00  0.00    +0.000 F 
ATOM     20  F   UNL     1       6.482   2.889  14.017  0.00  0.00    +0.000 F 
ENDBRANCH  15  17
ENDBRANCH   2  11
BRANCH   1  21
ATOM     21  C   UNL     1       2.145   7.968  18.836  0.00  0.00    +0.000 C 
BRANCH  21  22
ATOM     22  C   UNL     1       1.807   7.944  20.346  0.00  0.00    +0.000 C 
BRANCH  22  23
ATOM     23  N   UNL     1       0.680   8.823  20.745  0.00  0.00    +0.000 NA
ATOM     24  C   UNL     1       0.935   9.352  22.096  0.00  0.00    +0.000 C 
ATOM     25  C   UNL     1      -0.187  10.279  22.572  0.00  0.00    +0.000 C 
ATOM     26  C   UNL     1      -0.417  11.425  21.584  0.00  0.00    +0.000 C 
ATOM     27  C   UNL     1      -0.685  10.815  20.207  0.00  0.00    +0.000 C 
ATOM     28  C   UNL     1       0.469   9.911  19.779  0.00  0.00    +0.000 C 
BRANCH  26  29
ATOM     29  O   UNL     1       0.745  12.279  21.594  0.00  0.00    +0.000 OA
BRANCH  29  30
ATOM     30  C   UNL     1       0.605  13.425  20.735  0.00  0.00    +0.000 C 
BRANCH  30  31
ATOM     31  C   UNL     1       1.754  14.395  20.952  0.00  0.00    +0.000 C 
ATOM     32  O   UNL     1       2.070  15.283  20.176  0.00  0.00    +0.000 OA
BRANCH  31  33
ATOM     33  O   UNL     1       2.415  14.161  22.117  0.00  0.00    +0.000 OA
ATOM     34  H   UNL     1       1.915  14.611  22.837  0.00  0.00    +0.000 HD
ENDBRANCH  31  33
ENDBRANCH  30  31
ENDBRANCH  29  30
ENDBRANCH  26  29
ENDBRANCH  22  23
ENDBRANCH  21  22
ENDBRANCH   1  21
TORSDOF 10
ENDMDL
MODEL 9
REMARK VINA RESULT:      -7.4      3.829      8.927
REMARK  Name = 
REMARK  11 active torsions:
REMARK  status: ('A' for Active; 'I' for Inactive)
REMARK    1  A    between atoms: C_1  and  C_2
REMARK    2  A    between atoms: C_5  and  N_6
REMARK    3  A    between atoms: N_6  and  C_7
REMARK    4  A    between atoms: C_7  and  C_8
REMARK    5  A    between atoms: C_8  and  N_9
REMARK    6  A    between atoms: C_12  and  O_13
REMARK    7  A    between atoms: O_13  and  C_14
REMARK    8  A    between atoms: C_14  and  C_15
REMARK    9  A    between atoms: C_15  and  O_17
REMARK   10  A    between atoms: C_20  and  C_22
REMARK   11  A    between atoms: C_26  and  C_27
REMARK                            x       y       z     vdW  Elec       q    Type
REMARK                         _______ _______ _______ _____ _____    ______ ____
ROOT
ATOM      1  N   UNL     1       2.382   7.003  17.991  0.00  0.00    +0.000 N 
ATOM      2  C   UNL     1       3.546   7.212  17.223  0.00  0.00    +0.000 C 
ATOM      3  O   UNL     1       3.660   8.200  16.490  0.00  0.00    +0.000 OA
ENDROOT
BRANCH   1   8
ATOM      4  C   UNL     1       1.525   2.531  21.489  0.00  0.00    +0.000 C 
ATOM      5  C   UNL     1       1.708   3.707  20.571  0.00  0.00    +0.000 A 
ATOM      6  C   UNL     1       1.438   3.603  19.204  0.00  0.00    +0.000 A 
ATOM      7  C   UNL     1       1.658   4.693  18.355  0.00  0.00    +0.000 A 
ATOM      8  C   UNL     1       2.139   5.907  18.862  0.00  0.00    +0.000 A 
ATOM      9  C   UNL     1       2.406   6.013  20.230  0.00  0.00    +0.000 A 
ATOM     10  C   UNL     1       2.189   4.921  21.077  0.00  0.00    +0.000 A 
ENDBRANCH   1   8
BRANCH   2  11
ATOM     11  C   UNL     1       4.728   6.299  17.245  0.00  0.00    +0.000 A 
ATOM     12  C   UNL     1       4.747   5.259  16.299  0.00  0.00    +0.000 A 
ATOM     13  C   UNL     1       5.807   4.353  16.249  0.00  0.00    +0.000 A 
ATOM     14  C   UNL     1       6.857   4.464  17.156  0.00  0.00    +0.000 A 
ATOM     15  C   UNL     1       6.881   5.513  18.086  0.00  0.00    +0.000 A 
ATOM     16  C   UNL     1       5.831   6.451  18.089  0.00  0.00    +0.000 A 
BRANCH  15  17
ATOM     17  C   UNL     1       7.989   5.645  19.101  0.00  0.00    +0.000 C 
ATOM     18  F   UNL     1       8.944   4.682  18.994  0.00  0.00    +0.000 F 
ATOM     19  F   UNL     1       8.643   6.835  19.009  0.00  0.00    +0.000 F 
ATOM     20  F   UNL     1       7.526   5.568  20.380  0.00  0.00    +0.000 F 
ENDBRANCH  15  17
ENDBRANCH   2  11
BRANCH   1  21
ATOM     21  C   UNL     1       1.371   8.078  17.933  0.00  0.00    +0.000 C 
BRANCH  21  22
ATOM     22  C   UNL     1       1.510   9.202  18.988  0.00  0.00    +0.000 C 
BRANCH  22  23
ATOM     23  N   UNL     1       0.729  10.429  18.694  0.00  0.00    +0.000 NA
ATOM     24  C   UNL     1      -0.708  10.115  18.757  0.00  0.00    +0.000 C 
ATOM     25  C   UNL     1      -1.579  11.342  18.472  0.00  0.00    +0.000 C 
ATOM     26  C   UNL     1      -1.242  12.494  19.420  0.00  0.00    +0.000 C 
ATOM     27  C   UNL     1       0.256  12.780  19.304  0.00  0.00    +0.000 C 
ATOM     28  C   UNL     1       1.075  11.527  19.610  0.00  0.00    +0.000 C 
BRANCH  26  29
ATOM     29  O   UNL     1      -1.629  12.116  20.757  0.00  0.00    +0.000 OA
BRANCH  29  30
ATOM     30  C   UNL     1      -1.794  13.245  21.634  0.00  0.00    +0.000 C 
BRANCH  30  31
ATOM     31  C   UNL     1      -1.055  13.014  22.942  0.00  0.00    +0.000 C 
ATOM     32  O   UNL     1      -0.893  13.861  23.807  0.00  0.00    +0.000 OA
BRANCH  31  33
ATOM     33  O   UNL     1      -0.575  11.747  23.048  0.00  0.00    +0.000 OA
ATOM     34  H   UNL     1       0.219  11.681  22.468  0.00  0.00    +0.000 HD
ENDBRANCH  31  33
ENDBRANCH  30  31
ENDBRANCH  29  30
ENDBRANCH  26  29
ENDBRANCH  22  23
ENDBRANCH  21  22
ENDBRANCH   1  21
TORSDOF 10
ENDMDL
