MODEL 1
REMARK VINA RESULT:      -6.8      0.000      0.000
REMARK  Name = 
REMARK  2 active torsions:
REMARK  status: ('A' for Active; 'I' for Inactive)
REMARK    1  A    between atoms: N_8  and  C_9
REMARK    2  A    between atoms: N_21  and  C_22
REMARK                            x       y       z     vdW  Elec       q    Type
REMARK                         _______ _______ _______ _____ _____    ______ ____
ROOT
ATOM      1  O   UNL     1      -2.437  14.270  20.537  0.00  0.00    +0.000 OA
ATOM      2  C   UNL     1      -3.358  13.526  20.845  0.00  0.00    +0.000 C 
ATOM      3  C   UNL     1      -4.012  12.460  19.981  0.00  0.00    +0.000 C 
ATOM      4  C   UNL     1      -3.442  11.792  18.942  0.00  0.00    +0.000 C 
ATOM      5  C   UNL     1      -4.318  10.942  18.017  0.00  0.00    +0.000 C 
ATOM      6  C   UNL     1      -3.368  10.034  17.268  0.00  0.00    +0.000 C 
ATOM      7  C   UNL     1      -2.069  10.806  17.224  0.00  0.00    +0.000 C 
ATOM      8  N   UNL     1      -2.148  11.709  18.384  0.00  0.00    +0.000 N 
ATOM      9  C   UNL     1      -5.370  12.292  20.578  0.00  0.00    +0.000 A 
ATOM     10  C   UNL     1      -6.557  11.708  20.148  0.00  0.00    +0.000 A 
ATOM     11  C   UNL     1      -7.703  11.786  20.953  0.00  0.00    +0.000 A 
ATOM     12  C   UNL     1      -7.677  12.467  22.172  0.00  0.00    +0.000 A 
ATOM     13  C   UNL     1      -6.497  13.059  22.616  0.00  0.00    +0.000 A 
ATOM     14  C   UNL     1      -5.358  12.952  21.819  0.00  0.00    +0.000 A 
ATOM     15  N   UNL     1      -4.112  13.568  22.023  0.00  0.00    +0.000 N 
ENDROOT
BRANCH  15  16
ATOM     16  C   UNL     1      -3.882  14.445  23.102  0.00  0.00    +0.000 A 
ATOM     17  C   UNL     1      -3.165  14.021  24.225  0.00  0.00    +0.000 A 
ATOM     18  C   UNL     1      -2.980  14.879  25.312  0.00  0.00    +0.000 A 
ATOM     19  C   UNL     1      -3.550  16.151  25.304  0.00  0.00    +0.000 A 
ATOM     20  C   UNL     1      -4.285  16.570  24.195  0.00  0.00    +0.000 A 
ATOM     21 CL   UNL     1      -5.034  18.119  24.209  0.00  0.00    +0.000 Cl
ATOM     22  C   UNL     1      -4.436  15.733  23.086  0.00  0.00    +0.000 A 
ENDBRANCH  15  16
BRANCH   8  23
ATOM     23  C   UNL     1      -0.884  12.211  18.788  0.00  0.00    +0.000 A 
ATOM     24  C   UNL     1      -0.185  11.603  19.855  0.00  0.00    +0.000 A 
ATOM     25  C   UNL     1       1.076  12.040  20.271  0.00  0.00    +0.000 A 
ATOM     26  C   UNL     1       1.690  13.093  19.610  0.00  0.00    +0.000 A 
ATOM     27  C   UNL     1       1.013  13.736  18.578  0.00  0.00    +0.000 A 
ATOM     28  C   UNL     1      -0.275  13.323  18.205  0.00  0.00    +0.000 A 
ENDBRANCH   8  23
TORSDOF 2
ENDMDL
MODEL 2
REMARK VINA RESULT:      -6.8      0.976      1.596
REMARK  Name = 
REMARK  2 active torsions:
REMARK  status: ('A' for Active; 'I' for Inactive)
REMARK    1  A    between atoms: N_8  and  C_9
REMARK    2  A    between atoms: N_21  and  C_22
REMARK                            x       y       z     vdW  Elec       q    Type
REMARK                         _______ _______ _______ _____ _____    ______ ____
ROOT
ATOM      1  O   UNL     1      -2.683  14.396  20.550  0.00  0.00    +0.000 OA
ATOM      2  C   UNL     1      -3.567  13.598  20.828  0.00  0.00    +0.000 C 
ATOM      3  C   UNL     1      -4.083  12.456  19.967  0.00  0.00    +0.000 C 
ATOM      4  C   UNL     1      -3.397  11.795  18.997  0.00  0.00    +0.000 C 
ATOM      5  C   UNL     1      -4.145  10.849  18.052  0.00  0.00    +0.000 C 
ATOM      6  C   UNL     1      -3.083   9.986  17.405  0.00  0.00    +0.000 C 
ATOM      7  C   UNL     1      -1.842  10.850  17.414  0.00  0.00    +0.000 C 
ATOM      8  N   UNL     1      -2.065  11.786  18.529  0.00  0.00    +0.000 N 
ATOM      9  C   UNL     1      -5.463  12.209  20.480  0.00  0.00    +0.000 A 
ATOM     10  C   UNL     1      -6.573  11.524  19.998  0.00  0.00    +0.000 A 
ATOM     11  C   UNL     1      -7.774  11.546  20.722  0.00  0.00    +0.000 A 
ATOM     12  C   UNL     1      -7.880  12.271  21.911  0.00  0.00    +0.000 A 
ATOM     13  C   UNL     1      -6.778  12.964  22.407  0.00  0.00    +0.000 A 
ATOM     14  C   UNL     1      -5.584  12.913  21.691  0.00  0.00    +0.000 A 
ATOM     15  N   UNL     1      -4.401  13.627  21.951  0.00  0.00    +0.000 N 
ENDROOT
BRANCH  15  16
ATOM     16  C   UNL     1      -4.309  14.557  23.005  0.00  0.00    +0.000 A 
ATOM     17  C   UNL     1      -5.182  15.647  23.073  0.00  0.00    +0.000 A 
ATOM     18  C   UNL     1      -5.057  16.592  24.093  0.00  0.00    +0.000 A 
ATOM     19  C   UNL     1      -4.029  16.480  25.029  0.00  0.00    +0.000 A 
ATOM     20  C   UNL     1      -3.143  15.405  24.953  0.00  0.00    +0.000 A 
ATOM     21 CL   UNL     1      -1.843  15.297  26.075  0.00  0.00    +0.000 Cl
ATOM     22  C   UNL     1      -3.290  14.433  23.960  0.00  0.00    +0.000 A 
ENDBRANCH  15  16
BRANCH   8  23
ATOM     23  C   UNL     1      -0.871  12.395  18.993  0.00  0.00    +0.000 A 
ATOM     24  C   UNL     1      -0.304  13.479  18.286  0.00  0.00    +0.000 A 
ATOM     25  C   UNL     1       0.853  14.134  18.719  0.00  0.00    +0.000 A 
ATOM     26  C   UNL     1       1.470  13.733  19.894  0.00  0.00    +0.000 A 
ATOM     27  C   UNL     1       0.956  12.646  20.595  0.00  0.00    +0.000 A 
ATOM     28  C   UNL     1      -0.175  11.963  20.123  0.00  0.00    +0.000 A 
ENDBRANCH   8  23
TORSDOF 2
ENDMDL
MODEL 3
REMARK VINA RESULT:      -6.6      2.094      6.069
REMARK  Name = 
REMARK  2 active torsions:
REMARK  status: ('A' for Active; 'I' for Inactive)
REMARK    1  A    between atoms: N_8  and  C_9
REMARK    2  A    between atoms: N_21  and  C_22
REMARK                            x       y       z     vdW  Elec       q    Type
REMARK                         _______ _______ _______ _____ _____    ______ ____
ROOT
ATOM      1  O   UNL     1      -2.153  12.409  21.218  0.00  0.00    +0.000 OA
ATOM      2  C   UNL     1      -2.595  12.378  20.078  0.00  0.00    +0.000 C 
ATOM      3  C   UNL     1      -4.035  12.145  19.652  0.00  0.00    +0.000 C 
ATOM      4  C   UNL     1      -5.152  12.405  20.383  0.00  0.00    +0.000 C 
ATOM      5  C   UNL     1      -6.508  11.872  19.910  0.00  0.00    +0.000 C 
ATOM      6  C   UNL     1      -7.551  12.662  20.671  0.00  0.00    +0.000 C 
ATOM      7  C   UNL     1      -6.860  13.053  21.957  0.00  0.00    +0.000 C 
ATOM      8  N   UNL     1      -5.428  13.039  21.614  0.00  0.00    +0.000 N 
ATOM      9  C   UNL     1      -3.922  11.632  18.255  0.00  0.00    +0.000 A 
ATOM     10  C   UNL     1      -4.787  10.979  17.384  0.00  0.00    +0.000 A 
ATOM     11  C   UNL     1      -4.328  10.564  16.125  0.00  0.00    +0.000 A 
ATOM     12  C   UNL     1      -3.001  10.776  15.742  0.00  0.00    +0.000 A 
ATOM     13  C   UNL     1      -2.121  11.429  16.602  0.00  0.00    +0.000 A 
ATOM     14  C   UNL     1      -2.598  11.857  17.840  0.00  0.00    +0.000 A 
ATOM     15  N   UNL     1      -1.856  12.423  18.891  0.00  0.00    +0.000 N 
ENDROOT
BRANCH  15  16
ATOM     16  C   UNL     1      -0.458  12.589  18.811  0.00  0.00    +0.000 A 
ATOM     17  C   UNL     1       0.398  11.493  18.948  0.00  0.00    +0.000 A 
ATOM     18  C   UNL     1       1.783  11.669  18.915  0.00  0.00    +0.000 A 
ATOM     19  C   UNL     1       2.324  12.948  18.792  0.00  0.00    +0.000 A 
ATOM     20  C   UNL     1       1.472  14.047  18.676  0.00  0.00    +0.000 A 
ATOM     21 CL   UNL     1       2.140  15.630  18.579  0.00  0.00    +0.000 Cl
ATOM     22  C   UNL     1       0.086  13.872  18.665  0.00  0.00    +0.000 A 
ENDBRANCH  15  16
BRANCH   8  23
ATOM     23  C   UNL     1      -4.629  13.778  22.524  0.00  0.00    +0.000 A 
ATOM     24  C   UNL     1      -4.279  13.224  23.775  0.00  0.00    +0.000 A 
ATOM     25  C   UNL     1      -3.469  13.898  24.694  0.00  0.00    +0.000 A 
ATOM     26  C   UNL     1      -2.963  15.148  24.375  0.00  0.00    +0.000 A 
ATOM     27  C   UNL     1      -3.318  15.737  23.165  0.00  0.00    +0.000 A 
ATOM     28  C   UNL     1      -4.175  15.074  22.273  0.00  0.00    +0.000 A 
ENDBRANCH   8  23
TORSDOF 2
ENDMDL
MODEL 4
REMARK VINA RESULT:      -6.5      2.428      6.064
REMARK  Name = 
REMARK  2 active torsions:
REMARK  status: ('A' for Active; 'I' for Inactive)
REMARK    1  A    between atoms: N_8  and  C_9
REMARK    2  A    between atoms: N_21  and  C_22
REMARK                            x       y       z     vdW  Elec       q    Type
REMARK                         _______ _______ _______ _____ _____    ______ ____
ROOT
ATOM      1  O   UNL     1      -2.290  12.691  22.158  0.00  0.00    +0.000 OA
ATOM      2  C   UNL     1      -2.971  12.744  21.144  0.00  0.00    +0.000 C 
ATOM      3  C   UNL     1      -4.447  13.093  21.040  0.00  0.00    +0.000 C 
ATOM      4  C   UNL     1      -5.166  13.857  21.906  0.00  0.00    +0.000 C 
ATOM      5  C   UNL     1      -6.693  13.894  21.795  0.00  0.00    +0.000 C 
ATOM      6  C   UNL     1      -7.135  15.110  22.580  0.00  0.00    +0.000 C 
ATOM      7  C   UNL     1      -6.058  15.292  23.626  0.00  0.00    +0.000 C 
ATOM      8  N   UNL     1      -4.870  14.655  23.032  0.00  0.00    +0.000 N 
ATOM      9  C   UNL     1      -4.881  12.458  19.761  0.00  0.00    +0.000 A 
ATOM     10  C   UNL     1      -6.113  12.147  19.197  0.00  0.00    +0.000 A 
ATOM     11  C   UNL     1      -6.168  11.469  17.970  0.00  0.00    +0.000 A 
ATOM     12  C   UNL     1      -4.997  11.077  17.316  0.00  0.00    +0.000 A 
ATOM     13  C   UNL     1      -3.754  11.379  17.868  0.00  0.00    +0.000 A 
ATOM     14  C   UNL     1      -3.715  12.075  19.075  0.00  0.00    +0.000 A 
ATOM     15  N   UNL     1      -2.582  12.374  19.852  0.00  0.00    +0.000 N 
ENDROOT
BRANCH  15  16
ATOM     16  C   UNL     1      -1.293  11.937  19.487  0.00  0.00    +0.000 A 
ATOM     17  C   UNL     1      -0.895  10.617  19.720  0.00  0.00    +0.000 A 
ATOM     18  C   UNL     1       0.400  10.202  19.400  0.00  0.00    +0.000 A 
ATOM     19  C   UNL     1       1.321  11.114  18.887  0.00  0.00    +0.000 A 
ATOM     20  C   UNL     1       0.934  12.437  18.673  0.00  0.00    +0.000 A 
ATOM     21 CL   UNL     1       2.087  13.574  18.091  0.00  0.00    +0.000 Cl
ATOM     22  C   UNL     1      -0.372  12.848  18.950  0.00  0.00    +0.000 A 
ENDBRANCH  15  16
BRANCH   8  23
ATOM     23  C   UNL     1      -3.655  15.074  23.631  0.00  0.00    +0.000 A 
ATOM     24  C   UNL     1      -3.315  14.638  24.932  0.00  0.00    +0.000 A 
ATOM     25  C   UNL     1      -2.116  14.997  25.554  0.00  0.00    +0.000 A 
ATOM     26  C   UNL     1      -1.203  15.791  24.878  0.00  0.00    +0.000 A 
ATOM     27  C   UNL     1      -1.523  16.266  23.610  0.00  0.00    +0.000 A 
ATOM     28  C   UNL     1      -2.752  15.943  23.016  0.00  0.00    +0.000 A 
ENDBRANCH   8  23
TORSDOF 2
ENDMDL
MODEL 5
REMARK VINA RESULT:      -6.5      4.448      7.266
REMARK  Name = 
REMARK  2 active torsions:
REMARK  status: ('A' for Active; 'I' for Inactive)
REMARK    1  A    between atoms: N_8  and  C_9
REMARK    2  A    between atoms: N_21  and  C_22
REMARK                            x       y       z     vdW  Elec       q    Type
REMARK                         _______ _______ _______ _____ _____    ______ ____
ROOT
ATOM      1  O   UNL     1       1.690  11.893  20.756  0.00  0.00    +0.000 OA
ATOM      2  C   UNL     1       0.793  11.845  19.926  0.00  0.00    +0.000 C 
ATOM      3  C   UNL     1      -0.331  12.848  19.723  0.00  0.00    +0.000 C 
ATOM      4  C   UNL     1      -0.309  14.170  20.042  0.00  0.00    +0.000 C 
ATOM      5  C   UNL     1      -1.610  14.978  20.011  0.00  0.00    +0.000 C 
ATOM      6  C   UNL     1      -1.192  16.433  19.994  0.00  0.00    +0.000 C 
ATOM      7  C   UNL     1       0.148  16.446  20.694  0.00  0.00    +0.000 C 
ATOM      8  N   UNL     1       0.666  15.081  20.502  0.00  0.00    +0.000 N 
ATOM      9  C   UNL     1      -1.405  12.059  19.051  0.00  0.00    +0.000 A 
ATOM     10  C   UNL     1      -2.763  12.256  18.828  0.00  0.00    +0.000 A 
ATOM     11  C   UNL     1      -3.521  11.254  18.204  0.00  0.00    +0.000 A 
ATOM     12  C   UNL     1      -2.933  10.045  17.825  0.00  0.00    +0.000 A 
ATOM     13  C   UNL     1      -1.574   9.830  18.042  0.00  0.00    +0.000 A 
ATOM     14  C   UNL     1      -0.828  10.845  18.641  0.00  0.00    +0.000 A 
ATOM     15  N   UNL     1       0.515  10.789  19.051  0.00  0.00    +0.000 N 
ENDROOT
BRANCH  15  16
ATOM     16  C   UNL     1       1.283   9.614  18.929  0.00  0.00    +0.000 A 
ATOM     17  C   UNL     1       2.118   9.420  17.825  0.00  0.00    +0.000 A 
ATOM     18  C   UNL     1       2.841   8.233  17.684  0.00  0.00    +0.000 A 
ATOM     19  C   UNL     1       2.700   7.212  18.623  0.00  0.00    +0.000 A 
ATOM     20  C   UNL     1       1.851   7.393  19.715  0.00  0.00    +0.000 A 
ATOM     21 CL   UNL     1       1.636   6.112  20.843  0.00  0.00    +0.000 Cl
ATOM     22  C   UNL     1       1.159   8.595  19.884  0.00  0.00    +0.000 A 
ENDBRANCH  15  16
BRANCH   8  23
ATOM     23  C   UNL     1       2.069  14.986  20.694  0.00  0.00    +0.000 A 
ATOM     24  C   UNL     1       2.937  14.943  19.580  0.00  0.00    +0.000 A 
ATOM     25  C   UNL     1       4.327  14.880  19.715  0.00  0.00    +0.000 A 
ATOM     26  C   UNL     1       4.895  14.881  20.980  0.00  0.00    +0.000 A 
ATOM     27  C   UNL     1       4.065  14.886  22.097  0.00  0.00    +0.000 A 
ATOM     28  C   UNL     1       2.670  14.896  21.950  0.00  0.00    +0.000 A 
ENDBRANCH   8  23
TORSDOF 2
ENDMDL
MODEL 6
REMARK VINA RESULT:      -6.5      2.998      6.532
REMARK  Name = 
REMARK  2 active torsions:
REMARK  status: ('A' for Active; 'I' for Inactive)
REMARK    1  A    between atoms: N_8  and  C_9
REMARK    2  A    between atoms: N_21  and  C_22
REMARK                            x       y       z     vdW  Elec       q    Type
REMARK                         _______ _______ _______ _____ _____    ______ ____
ROOT
ATOM      1  O   UNL     1      -3.739  12.338  20.298  0.00  0.00    +0.000 OA
ATOM      2  C   UNL     1      -3.547  12.916  21.359  0.00  0.00    +0.000 C 
ATOM      3  C   UNL     1      -4.325  14.094  21.923  0.00  0.00    +0.000 C 
ATOM      4  C   UNL     1      -5.616  14.421  21.650  0.00  0.00    +0.000 C 
ATOM      5  C   UNL     1      -6.163  15.780  22.097  0.00  0.00    +0.000 C 
ATOM      6  C   UNL     1      -7.671  15.662  22.029  0.00  0.00    +0.000 C 
ATOM      7  C   UNL     1      -7.916  14.625  20.956  0.00  0.00    +0.000 C 
ATOM      8  N   UNL     1      -6.681  13.823  20.943  0.00  0.00    +0.000 N 
ATOM      9  C   UNL     1      -3.367  14.744  22.865  0.00  0.00    +0.000 A 
ATOM     10  C   UNL     1      -3.309  15.982  23.495  0.00  0.00    +0.000 A 
ATOM     11  C   UNL     1      -2.201  16.310  24.290  0.00  0.00    +0.000 A 
ATOM     12  C   UNL     1      -1.137  15.416  24.437  0.00  0.00    +0.000 A 
ATOM     13  C   UNL     1      -1.178  14.172  23.812  0.00  0.00    +0.000 A 
ATOM     14  C   UNL     1      -2.297  13.850  23.046  0.00  0.00    +0.000 A 
ATOM     15  N   UNL     1      -2.484  12.710  22.246  0.00  0.00    +0.000 N 
ENDROOT
BRANCH  15  16
ATOM     16  C   UNL     1      -1.480  11.732  22.095  0.00  0.00    +0.000 A 
ATOM     17  C   UNL     1      -1.249  10.788  23.100  0.00  0.00    +0.000 A 
ATOM     18  C   UNL     1      -0.222   9.851  22.967  0.00  0.00    +0.000 A 
ATOM     19  C   UNL     1       0.611   9.879  21.850  0.00  0.00    +0.000 A 
ATOM     20  C   UNL     1       0.397  10.833  20.855  0.00  0.00    +0.000 A 
ATOM     21 CL   UNL     1       1.459  10.902  19.503  0.00  0.00    +0.000 Cl
ATOM     22  C   UNL     1      -0.656  11.745  20.962  0.00  0.00    +0.000 A 
ENDBRANCH  15  16
BRANCH   8  23
ATOM     23  C   UNL     1      -6.848  12.553  20.332  0.00  0.00    +0.000 A 
ATOM     24  C   UNL     1      -6.586  12.388  18.953  0.00  0.00    +0.000 A 
ATOM     25  C   UNL     1      -6.705  11.152  18.311  0.00  0.00    +0.000 A 
ATOM     26  C   UNL     1      -7.069  10.031  19.041  0.00  0.00    +0.000 A 
ATOM     27  C   UNL     1      -7.368  10.167  20.393  0.00  0.00    +0.000 A 
ATOM     28  C   UNL     1      -7.297  11.423  21.016  0.00  0.00    +0.000 A 
ENDBRANCH   8  23
TORSDOF 2
ENDMDL
MODEL 7
REMARK VINA RESULT:      -6.5      2.595      6.305
REMARK  Name = 
REMARK  2 active torsions:
REMARK  status: ('A' for Active; 'I' for Inactive)
REMARK    1  A    between atoms: N_8  and  C_9
REMARK    2  A    between atoms: N_21  and  C_22
REMARK                            x       y       z     vdW  Elec       q    Type
REMARK                         _______ _______ _______ _____ _____    ______ ____
ROOT
ATOM      1  O   UNL     1      -2.346  12.914  22.302  0.00  0.00    +0.000 OA
ATOM      2  C   UNL     1      -3.033  12.896  21.290  0.00  0.00    +0.000 C 
ATOM      3  C   UNL     1      -4.540  13.072  21.193  0.00  0.00    +0.000 C 
ATOM      4  C   UNL     1      -5.338  13.742  22.067  0.00  0.00    +0.000 C 
ATOM      5  C   UNL     1      -6.860  13.602  21.961  0.00  0.00    +0.000 C 
ATOM      6  C   UNL     1      -7.437  14.753  22.757  0.00  0.00    +0.000 C 
ATOM      7  C   UNL     1      -6.384  15.051  23.800  0.00  0.00    +0.000 C 
ATOM      8  N   UNL     1      -5.133  14.560  23.198  0.00  0.00    +0.000 N 
ATOM      9  C   UNL     1      -4.902  12.400  19.911  0.00  0.00    +0.000 A 
ATOM     10  C   UNL     1      -6.092  11.953  19.348  0.00  0.00    +0.000 A 
ATOM     11  C   UNL     1      -6.072  11.283  18.116  0.00  0.00    +0.000 A 
ATOM     12  C   UNL     1      -4.866  11.033  17.456  0.00  0.00    +0.000 A 
ATOM     13  C   UNL     1      -3.665  11.473  18.007  0.00  0.00    +0.000 A 
ATOM     14  C   UNL     1      -3.701  12.160  19.219  0.00  0.00    +0.000 A 
ATOM     15  N   UNL     1      -2.608  12.582  19.994  0.00  0.00    +0.000 N 
ENDROOT
BRANCH  15  16
ATOM     16  C   UNL     1      -1.278  12.301  19.623  0.00  0.00    +0.000 A 
ATOM     17  C   UNL     1      -0.515  13.248  18.934  0.00  0.00    +0.000 A 
ATOM     18  C   UNL     1       0.786  12.947  18.526  0.00  0.00    +0.000 A 
ATOM     19  C   UNL     1       1.319  11.681  18.763  0.00  0.00    +0.000 A 
ATOM     20  C   UNL     1       0.553  10.726  19.432  0.00  0.00    +0.000 A 
ATOM     21 CL   UNL     1       1.192   9.147  19.677  0.00  0.00    +0.000 Cl
ATOM     22  C   UNL     1      -0.733  11.035  19.881  0.00  0.00    +0.000 A 
ENDBRANCH  15  16
BRANCH   8  23
ATOM     23  C   UNL     1      -3.972  15.113  23.797  0.00  0.00    +0.000 A 
ATOM     24  C   UNL     1      -3.298  16.191  23.180  0.00  0.00    +0.000 A 
ATOM     25  C   UNL     1      -2.168  16.791  23.744  0.00  0.00    +0.000 A 
ATOM     26  C   UNL     1      -1.689  16.341  24.965  0.00  0.00    +0.000 A 
ATOM     27  C   UNL     1      -2.309  15.258  25.581  0.00  0.00    +0.000 A 
ATOM     28  C   UNL     1      -3.410  14.629  24.980  0.00  0.00    +0.000 A 
ENDBRANCH   8  23
TORSDOF 2
ENDMDL
MODEL 8
REMARK VINA RESULT:      -6.5      4.304      7.104
REMARK  Name = 
REMARK  2 active torsions:
REMARK  status: ('A' for Active; 'I' for Inactive)
REMARK    1  A    between atoms: N_8  and  C_9
REMARK    2  A    between atoms: N_21  and  C_22
REMARK                            x       y       z     vdW  Elec       q    Type
REMARK                         _______ _______ _______ _____ _____    ______ ____
ROOT
ATOM      1  O   UNL     1      -0.369  13.977  17.811  0.00  0.00    +0.000 OA
ATOM      2  C   UNL     1      -0.356  13.238  18.786  0.00  0.00    +0.000 C 
ATOM      3  C   UNL     1       0.673  13.203  19.905  0.00  0.00    +0.000 C 
ATOM      4  C   UNL     1       1.460  14.232  20.318  0.00  0.00    +0.000 C 
ATOM      5  C   UNL     1       2.620  13.958  21.280  0.00  0.00    +0.000 C 
ATOM      6  C   UNL     1       3.008  15.304  21.854  0.00  0.00    +0.000 C 
ATOM      7  C   UNL     1       2.620  16.295  20.780  0.00  0.00    +0.000 C 
ATOM      8  N   UNL     1       1.555  15.610  20.028  0.00  0.00    +0.000 N 
ATOM      9  C   UNL     1       0.561  11.821  20.458  0.00  0.00    +0.000 A 
ATOM     10  C   UNL     1       1.358  11.035  21.282  0.00  0.00    +0.000 A 
ATOM     11  C   UNL     1       0.982   9.713  21.562  0.00  0.00    +0.000 A 
ATOM     12  C   UNL     1      -0.174   9.165  21.001  0.00  0.00    +0.000 A 
ATOM     13  C   UNL     1      -0.984   9.938  20.173  0.00  0.00    +0.000 A 
ATOM     14  C   UNL     1      -0.611  11.258  19.923  0.00  0.00    +0.000 A 
ATOM     15  N   UNL     1      -1.215  12.162  19.034  0.00  0.00    +0.000 N 
ENDROOT
BRANCH  15  16
ATOM     16  C   UNL     1      -2.306  11.792  18.222  0.00  0.00    +0.000 A 
ATOM     17  C   UNL     1      -3.616  11.878  18.704  0.00  0.00    +0.000 A 
ATOM     18  C   UNL     1      -4.690  11.466  17.912  0.00  0.00    +0.000 A 
ATOM     19  C   UNL     1      -4.460  10.921  16.650  0.00  0.00    +0.000 A 
ATOM     20  C   UNL     1      -3.153  10.813  16.173  0.00  0.00    +0.000 A 
ATOM     21 CL   UNL     1      -2.867  10.091  14.638  0.00  0.00    +0.000 Cl
ATOM     22  C   UNL     1      -2.078  11.264  16.943  0.00  0.00    +0.000 A 
ENDBRANCH  15  16
BRANCH   8  23
ATOM     23  C   UNL     1       0.756  16.497  19.261  0.00  0.00    +0.000 A 
ATOM     24  C   UNL     1       1.299  17.143  18.127  0.00  0.00    +0.000 A 
ATOM     25  C   UNL     1       0.545  18.001  17.321  0.00  0.00    +0.000 A 
ATOM     26  C   UNL     1      -0.792  18.221  17.614  0.00  0.00    +0.000 A 
ATOM     27  C   UNL     1      -1.347  17.627  18.744  0.00  0.00    +0.000 A 
ATOM     28  C   UNL     1      -0.567  16.810  19.576  0.00  0.00    +0.000 A 
ENDBRANCH   8  23
TORSDOF 2
ENDMDL
MODEL 9
REMARK VINA RESULT:      -6.5      2.799      6.495
REMARK  Name = 
REMARK  2 active torsions:
REMARK  status: ('A' for Active; 'I' for Inactive)
REMARK    1  A    between atoms: N_8  and  C_9
REMARK    2  A    between atoms: N_21  and  C_22
REMARK                            x       y       z     vdW  Elec       q    Type
REMARK                         _______ _______ _______ _____ _____    ______ ____
ROOT
ATOM      1  O   UNL     1      -2.034  12.189  21.126  0.00  0.00    +0.000 OA
ATOM      2  C   UNL     1      -2.508  12.231  19.999  0.00  0.00    +0.000 C 
ATOM      3  C   UNL     1      -3.978  12.283  19.617  0.00  0.00    +0.000 C 
ATOM      4  C   UNL     1      -4.998  12.772  20.372  0.00  0.00    +0.000 C 
ATOM      5  C   UNL     1      -6.447  12.512  19.947  0.00  0.00    +0.000 C 
ATOM      6  C   UNL     1      -7.289  13.505  20.719  0.00  0.00    +0.000 C 
ATOM      7  C   UNL     1      -6.495  13.770  21.978  0.00  0.00    +0.000 C 
ATOM      8  N   UNL     1      -5.105  13.466  21.597  0.00  0.00    +0.000 N 
ATOM      9  C   UNL     1      -4.012  11.738  18.228  0.00  0.00    +0.000 A 
ATOM     10  C   UNL     1      -5.015  11.257  17.394  0.00  0.00    +0.000 A 
ATOM     11  C   UNL     1      -4.687  10.742  16.132  0.00  0.00    +0.000 A 
ATOM     12  C   UNL     1      -3.356  10.679  15.709  0.00  0.00    +0.000 A 
ATOM     13  C   UNL     1      -2.338  11.156  16.532  0.00  0.00    +0.000 A 
ATOM     14  C   UNL     1      -2.682  11.689  17.773  0.00  0.00    +0.000 A 
ATOM     15  N   UNL     1      -1.811  12.111  18.792  0.00  0.00    +0.000 N 
ENDROOT
BRANCH  15  16
ATOM     16  C   UNL     1      -0.412  11.994  18.672  0.00  0.00    +0.000 A 
ATOM     17  C   UNL     1       0.391  13.132  18.547  0.00  0.00    +0.000 A 
ATOM     18  C   UNL     1       1.772  13.009  18.380  0.00  0.00    +0.000 A 
ATOM     19  C   UNL     1       2.357  11.747  18.291  0.00  0.00    +0.000 A 
ATOM     20  C   UNL     1       1.557  10.609  18.395  0.00  0.00    +0.000 A 
ATOM     21 CL   UNL     1       2.272   9.052  18.231  0.00  0.00    +0.000 Cl
ATOM     22  C   UNL     1       0.180  10.725  18.605  0.00  0.00    +0.000 A 
ENDBRANCH  15  16
BRANCH   8  23
ATOM     23  C   UNL     1      -4.148  14.044  22.470  0.00  0.00    +0.000 A 
ATOM     24  C   UNL     1      -3.418  15.186  22.068  0.00  0.00    +0.000 A 
ATOM     25  C   UNL     1      -2.487  15.811  22.902  0.00  0.00    +0.000 A 
ATOM     26  C   UNL     1      -2.274  15.323  24.182  0.00  0.00    +0.000 A 
ATOM     27  C   UNL     1      -2.951  14.179  24.595  0.00  0.00    +0.000 A 
ATOM     28  C   UNL     1      -3.844  13.528  23.730  0.00  0.00    +0.000 A 
ENDBRANCH   8  23
TORSDOF 2
ENDMDL
