MODEL 1
REMARK VINA RESULT:      -7.2      0.000      0.000
REMARK  Name = 
REMARK  2 active torsions:
REMARK  status: ('A' for Active; 'I' for Inactive)
REMARK    1  A    between atoms: C_2  and  O_3
REMARK    2  A    between atoms: C_2  and  C_4
REMARK                            x       y       z     vdW  Elec       q    Type
REMARK                         _______ _______ _______ _____ _____    ______ ____
ROOT
ATOM      1  C   UNL     1       5.539   4.845  16.718  0.00  0.00    +0.000 A 
ATOM      2  C   UNL     1       4.975   4.226  17.847  0.00  0.00    +0.000 A 
ATOM      3  N   UNL     1       4.029   4.840  18.630  0.00  0.00    +0.000 N 
ATOM      4  C   UNL     1       3.498   4.109  19.770  0.00  0.00    +0.000 A 
ATOM      5  N   UNL     1       2.535   4.583  20.596  0.00  0.00    +0.000 NA
ATOM      6  C   UNL     1       2.205   3.698  21.574  0.00  0.00    +0.000 A 
ATOM      7  C   UNL     1       2.905   2.500  21.546  0.00  0.00    +0.000 A 
ATOM      8  S   UNL     1       3.965   2.555  20.251  0.00  0.00    +0.000 S 
ATOM      9  C   UNL     1       3.606   6.114  18.315  0.00  0.00    +0.000 A 
ATOM     10  N   UNL     1       2.679   6.762  19.087  0.00  0.00    +0.000 NA
ATOM     11  C   UNL     1       2.226   8.024  18.826  0.00  0.00    +0.000 A 
ATOM     12  N   UNL     1       1.253   8.618  19.698  0.00  0.00    +0.000 N 
ATOM     13  C   UNL     1       0.684   9.948  19.532  0.00  0.00    +0.000 C 
ATOM     14  C   UNL     1      -0.170  10.158  20.791  0.00  0.00    +0.000 C 
ATOM     15  C   UNL     1       0.668  10.708  21.968  0.00  0.00    +0.000 C 
ATOM     16  C   UNL     1      -0.132  10.580  23.264  0.00  0.00    +0.000 C 
ATOM     17  C   UNL     1      -0.465   9.099  23.505  0.00  0.00    +0.000 C 
ATOM     18  N   UNL     1      -1.249   8.536  22.394  0.00  0.00    +0.000 NA
ATOM     19  C   UNL     1      -0.615   8.729  21.075  0.00  0.00    +0.000 C 
ATOM     20  C   UNL     1       0.653   7.907  20.810  0.00  0.00    +0.000 C 
ATOM     21  C   UNL     1       2.727   8.696  17.694  0.00  0.00    +0.000 A 
ATOM     22  F   UNL     1       2.319   9.943  17.351  0.00  0.00    +0.000 F 
ATOM     23  C   UNL     1       3.672   8.071  16.885  0.00  0.00    +0.000 A 
ATOM     24  C   UNL     1       4.130   6.780  17.187  0.00  0.00    +0.000 A 
ATOM     25  C   UNL     1       5.096   6.144  16.390  0.00  0.00    +0.000 A 
ATOM     26  O   UNL     1       5.547   6.720  15.413  0.00  0.00    +0.000 OA
ATOM     27  H   UNL     1      -2.176   9.025  22.376  0.00  0.00    +0.000 HD
ENDROOT
BRANCH   1  29
ATOM     28  O   UNL     1       7.767   4.288  16.143  0.00  0.00    +0.000 OA
ATOM     29  C   UNL     1       6.582   4.142  15.883  0.00  0.00    +0.000 C 
BRANCH  29  30
ATOM     30  O   UNL     1       6.273   3.350  14.828  0.00  0.00    +0.000 OA
ATOM     31  H   UNL     1       6.854   3.155  14.087  0.00  0.00    +0.000 HD
ENDBRANCH  29  30
ENDBRANCH   1  29
TORSDOF 2
ENDMDL
MODEL 2
REMARK VINA RESULT:      -7.0      7.915      9.607
REMARK  Name = 
REMARK  2 active torsions:
REMARK  status: ('A' for Active; 'I' for Inactive)
REMARK    1  A    between atoms: C_2  and  O_3
REMARK    2  A    between atoms: C_2  and  C_4
REMARK                            x       y       z     vdW  Elec       q    Type
REMARK                         _______ _______ _______ _____ _____    ______ ____
ROOT
ATOM      1  C   UNL     1      -2.594  11.543  17.602  0.00  0.00    +0.000 A 
ATOM      2  C   UNL     1      -1.327  11.989  18.015  0.00  0.00    +0.000 A 
ATOM      3  N   UNL     1      -1.124  12.627  19.214  0.00  0.00    +0.000 N 
ATOM      4  C   UNL     1       0.228  13.040  19.556  0.00  0.00    +0.000 A 
ATOM      5  N   UNL     1       0.569  13.640  20.721  0.00  0.00    +0.000 NA
ATOM      6  C   UNL     1       1.900  13.909  20.799  0.00  0.00    +0.000 A 
ATOM      7  C   UNL     1       2.645  13.529  19.691  0.00  0.00    +0.000 A 
ATOM      8  S   UNL     1       1.599  12.831  18.585  0.00  0.00    +0.000 S 
ATOM      9  C   UNL     1      -2.193  12.851  20.057  0.00  0.00    +0.000 A 
ATOM     10  N   UNL     1      -2.028  13.501  21.250  0.00  0.00    +0.000 NA
ATOM     11  C   UNL     1      -3.049  13.754  22.122  0.00  0.00    +0.000 A 
ATOM     12  N   UNL     1      -2.774  14.446  23.348  0.00  0.00    +0.000 N 
ATOM     13  C   UNL     1      -3.765  14.772  24.365  0.00  0.00    +0.000 C 
ATOM     14  C   UNL     1      -3.001  15.633  25.381  0.00  0.00    +0.000 C 
ATOM     15  C   UNL     1      -2.987  17.125  24.974  0.00  0.00    +0.000 C 
ATOM     16  C   UNL     1      -1.951  17.870  25.815  0.00  0.00    +0.000 C 
ATOM     17  C   UNL     1      -0.566  17.249  25.573  0.00  0.00    +0.000 C 
ATOM     18  N   UNL     1      -0.547  15.821  25.934  0.00  0.00    +0.000 NA
ATOM     19  C   UNL     1      -1.604  15.036  25.267  0.00  0.00    +0.000 C 
ATOM     20  C   UNL     1      -1.435  14.823  23.757  0.00  0.00    +0.000 C 
ATOM     21  C   UNL     1      -4.343  13.311  21.786  0.00  0.00    +0.000 A 
ATOM     22  F   UNL     1      -5.410  13.502  22.600  0.00  0.00    +0.000 F 
ATOM     23  C   UNL     1      -4.551  12.646  20.581  0.00  0.00    +0.000 A 
ATOM     24  C   UNL     1      -3.486  12.414  19.698  0.00  0.00    +0.000 A 
ATOM     25  C   UNL     1      -3.685  11.761  18.470  0.00  0.00    +0.000 A 
ATOM     26  O   UNL     1      -4.803  11.382  18.162  0.00  0.00    +0.000 OA
ATOM     27  H   UNL     1      -0.701  15.751  26.968  0.00  0.00    +0.000 HD
ENDROOT
BRANCH   1  29
ATOM     28  O   UNL     1      -2.394   9.700  16.129  0.00  0.00    +0.000 OA
ATOM     29  C   UNL     1      -2.781  10.850  16.274  0.00  0.00    +0.000 C 
BRANCH  29  30
ATOM     30  O   UNL     1      -3.354  11.450  15.202  0.00  0.00    +0.000 OA
ATOM     31  H   UNL     1      -3.865  11.003  14.520  0.00  0.00    +0.000 HD
ENDBRANCH  29  30
ENDBRANCH   1  29
TORSDOF 2
ENDMDL
MODEL 3
REMARK VINA RESULT:      -7.0      5.876      8.557
REMARK  Name = 
REMARK  2 active torsions:
REMARK  status: ('A' for Active; 'I' for Inactive)
REMARK    1  A    between atoms: C_2  and  O_3
REMARK    2  A    between atoms: C_2  and  C_4
REMARK                            x       y       z     vdW  Elec       q    Type
REMARK                         _______ _______ _______ _____ _____    ______ ____
ROOT
ATOM      1  C   UNL     1       0.561   9.750  19.519  0.00  0.00    +0.000 A 
ATOM      2  C   UNL     1      -0.509   9.968  18.634  0.00  0.00    +0.000 A 
ATOM      3  N   UNL     1      -1.558  10.802  18.936  0.00  0.00    +0.000 N 
ATOM      4  C   UNL     1      -2.611  10.970  17.947  0.00  0.00    +0.000 A 
ATOM      5  N   UNL     1      -3.677  11.791  18.104  0.00  0.00    +0.000 NA
ATOM      6  C   UNL     1      -4.507  11.779  17.026  0.00  0.00    +0.000 A 
ATOM      7  C   UNL     1      -4.116  10.942  15.990  0.00  0.00    +0.000 A 
ATOM      8  S   UNL     1      -2.684  10.201  16.441  0.00  0.00    +0.000 S 
ATOM      9  C   UNL     1      -1.582  11.455  20.151  0.00  0.00    +0.000 A 
ATOM     10  N   UNL     1      -2.623  12.276  20.491  0.00  0.00    +0.000 NA
ATOM     11  C   UNL     1      -2.703  12.944  21.679  0.00  0.00    +0.000 A 
ATOM     12  N   UNL     1      -3.838  13.781  21.943  0.00  0.00    +0.000 N 
ATOM     13  C   UNL     1      -4.044  14.552  23.162  0.00  0.00    +0.000 C 
ATOM     14  C   UNL     1      -5.455  15.138  23.010  0.00  0.00    +0.000 C 
ATOM     15  C   UNL     1      -6.541  14.152  23.498  0.00  0.00    +0.000 C 
ATOM     16  C   UNL     1      -7.912  14.632  23.021  0.00  0.00    +0.000 C 
ATOM     17  C   UNL     1      -7.917  14.697  21.486  0.00  0.00    +0.000 C 
ATOM     18  N   UNL     1      -6.881  15.615  20.984  0.00  0.00    +0.000 NA
ATOM     19  C   UNL     1      -5.531  15.309  21.498  0.00  0.00    +0.000 C 
ATOM     20  C   UNL     1      -4.881  14.026  20.965  0.00  0.00    +0.000 C 
ATOM     21  C   UNL     1      -1.652  12.795  22.605  0.00  0.00    +0.000 A 
ATOM     22  F   UNL     1      -1.640  13.435  23.800  0.00  0.00    +0.000 F 
ATOM     23  C   UNL     1      -0.576  11.967  22.296  0.00  0.00    +0.000 A 
ATOM     24  C   UNL     1      -0.529  11.281  21.074  0.00  0.00    +0.000 A 
ATOM     25  C   UNL     1       0.542  10.428  20.756  0.00  0.00    +0.000 A 
ATOM     26  O   UNL     1       1.453  10.281  21.554  0.00  0.00    +0.000 OA
ATOM     27  H   UNL     1      -7.130  16.582  21.299  0.00  0.00    +0.000 HD
ENDROOT
BRANCH   1  29
ATOM     28  O   UNL     1       2.263   8.950  18.081  0.00  0.00    +0.000 OA
ATOM     29  C   UNL     1       1.695   8.822  19.156  0.00  0.00    +0.000 C 
BRANCH  29  30
ATOM     30  O   UNL     1       2.121   7.824  19.966  0.00  0.00    +0.000 OA
ATOM     31  H   UNL     1       2.733   7.924  20.702  0.00  0.00    +0.000 HD
ENDBRANCH  29  30
ENDBRANCH   1  29
TORSDOF 2
ENDMDL
MODEL 4
REMARK VINA RESULT:      -6.8      7.000      9.520
REMARK  Name = 
REMARK  2 active torsions:
REMARK  status: ('A' for Active; 'I' for Inactive)
REMARK    1  A    between atoms: C_2  and  O_3
REMARK    2  A    between atoms: C_2  and  C_4
REMARK                            x       y       z     vdW  Elec       q    Type
REMARK                         _______ _______ _______ _____ _____    ______ ____
ROOT
ATOM      1  C   UNL     1      -3.495  10.984  16.630  0.00  0.00    +0.000 A 
ATOM      2  C   UNL     1      -2.393  10.954  17.502  0.00  0.00    +0.000 A 
ATOM      3  N   UNL     1      -2.425  11.524  18.751  0.00  0.00    +0.000 N 
ATOM      4  C   UNL     1      -1.235  11.428  19.583  0.00  0.00    +0.000 A 
ATOM      5  N   UNL     1      -1.149  11.910  20.845  0.00  0.00    +0.000 NA
ATOM      6  C   UNL     1       0.066  11.677  21.411  0.00  0.00    +0.000 A 
ATOM      7  C   UNL     1       0.973  11.004  20.604  0.00  0.00    +0.000 A 
ATOM      8  S   UNL     1       0.223  10.690  19.140  0.00  0.00    +0.000 S 
ATOM      9  C   UNL     1      -3.570  12.158  19.183  0.00  0.00    +0.000 A 
ATOM     10  N   UNL     1      -3.628  12.754  20.414  0.00  0.00    +0.000 NA
ATOM     11  C   UNL     1      -4.733  13.399  20.892  0.00  0.00    +0.000 A 
ATOM     12  N   UNL     1      -4.692  13.995  22.196  0.00  0.00    +0.000 N 
ATOM     13  C   UNL     1      -5.797  14.704  22.827  0.00  0.00    +0.000 C 
ATOM     14  C   UNL     1      -5.200  15.268  24.124  0.00  0.00    +0.000 C 
ATOM     15  C   UNL     1      -4.510  16.633  23.891  0.00  0.00    +0.000 C 
ATOM     16  C   UNL     1      -3.655  16.982  25.109  0.00  0.00    +0.000 C 
ATOM     17  C   UNL     1      -2.595  15.888  25.311  0.00  0.00    +0.000 C 
ATOM     18  N   UNL     1      -3.216  14.569  25.518  0.00  0.00    +0.000 NA
ATOM     19  C   UNL     1      -4.166  14.197  24.451  0.00  0.00    +0.000 C 
ATOM     20  C   UNL     1      -3.552  13.873  23.084  0.00  0.00    +0.000 C 
ATOM     21  C   UNL     1      -5.885  13.446  20.083  0.00  0.00    +0.000 A 
ATOM     22  F   UNL     1      -7.031  14.049  20.485  0.00  0.00    +0.000 F 
ATOM     23  C   UNL     1      -5.866  12.853  18.824  0.00  0.00    +0.000 A 
ATOM     24  C   UNL     1      -4.711  12.211  18.353  0.00  0.00    +0.000 A 
ATOM     25  C   UNL     1      -4.671  11.623  17.077  0.00  0.00    +0.000 A 
ATOM     26  O   UNL     1      -5.659  11.667  16.362  0.00  0.00    +0.000 OA
ATOM     27  H   UNL     1      -3.748  14.604  26.420  0.00  0.00    +0.000 HD
ENDROOT
BRANCH   1  29
ATOM     28  O   UNL     1      -2.339  10.206  14.717  0.00  0.00    +0.000 OA
ATOM     29  C   UNL     1      -3.423  10.352  15.262  0.00  0.00    +0.000 C 
BRANCH  29  30
ATOM     30  O   UNL     1      -4.519   9.939  14.580  0.00  0.00    +0.000 OA
ATOM     31  H   UNL     1      -4.511   9.388  13.791  0.00  0.00    +0.000 HD
ENDBRANCH  29  30
ENDBRANCH   1  29
TORSDOF 2
ENDMDL
MODEL 5
REMARK VINA RESULT:      -6.7      7.593      9.565
REMARK  Name = 
REMARK  2 active torsions:
REMARK  status: ('A' for Active; 'I' for Inactive)
REMARK    1  A    between atoms: C_2  and  O_3
REMARK    2  A    between atoms: C_2  and  C_4
REMARK                            x       y       z     vdW  Elec       q    Type
REMARK                         _______ _______ _______ _____ _____    ______ ____
ROOT
ATOM      1  C   UNL     1      -3.011  11.084  17.078  0.00  0.00    +0.000 A 
ATOM      2  C   UNL     1      -1.828  11.422  17.757  0.00  0.00    +0.000 A 
ATOM      3  N   UNL     1      -1.832  12.065  18.971  0.00  0.00    +0.000 N 
ATOM      4  C   UNL     1      -0.553  12.361  19.598  0.00  0.00    +0.000 A 
ATOM      5  N   UNL     1      -0.420  12.952  20.809  0.00  0.00    +0.000 NA
ATOM      6  C   UNL     1       0.882  13.101  21.175  0.00  0.00    +0.000 A 
ATOM      7  C   UNL     1       1.811  12.631  20.257  0.00  0.00    +0.000 A 
ATOM      8  S   UNL     1       0.970  12.007  18.950  0.00  0.00    +0.000 S 
ATOM      9  C   UNL     1      -3.032  12.403  19.559  0.00  0.00    +0.000 A 
ATOM     10  N   UNL     1      -3.071  13.061  20.759  0.00  0.00    +0.000 NA
ATOM     11  C   UNL     1      -4.228  13.425  21.386  0.00  0.00    +0.000 A 
ATOM     12  N   UNL     1      -4.163  14.115  22.642  0.00  0.00    +0.000 N 
ATOM     13  C   UNL     1      -5.316  14.552  23.417  0.00  0.00    +0.000 C 
ATOM     14  C   UNL     1      -4.714  15.362  24.575  0.00  0.00    +0.000 C 
ATOM     15  C   UNL     1      -4.473  16.837  24.178  0.00  0.00    +0.000 C 
ATOM     16  C   UNL     1      -3.579  17.503  25.224  0.00  0.00    +0.000 C 
ATOM     17  C   UNL     1      -2.239  16.754  25.291  0.00  0.00    +0.000 C 
ATOM     18  N   UNL     1      -2.432  15.339  25.650  0.00  0.00    +0.000 NA
ATOM     19  C   UNL     1      -3.387  14.639  24.769  0.00  0.00    +0.000 C 
ATOM     20  C   UNL     1      -2.915  14.378  23.333  0.00  0.00    +0.000 C 
ATOM     21  C   UNL     1      -5.454  13.093  20.777  0.00  0.00    +0.000 A 
ATOM     22  F   UNL     1      -6.650  13.398  21.338  0.00  0.00    +0.000 F 
ATOM     23  C   UNL     1      -5.457  12.424  19.556  0.00  0.00    +0.000 A 
ATOM     24  C   UNL     1      -4.252  12.078  18.928  0.00  0.00    +0.000 A 
ATOM     25  C   UNL     1      -4.239  11.419  17.687  0.00  0.00    +0.000 A 
ATOM     26  O   UNL     1      -5.294  11.136  17.143  0.00  0.00    +0.000 OA
ATOM     27  H   UNL     1      -2.813  15.305  26.625  0.00  0.00    +0.000 HD
ENDROOT
BRANCH   1  29
ATOM     28  O   UNL     1      -2.502   9.256  15.663  0.00  0.00    +0.000 OA
ATOM     29  C   UNL     1      -2.969  10.382  15.742  0.00  0.00    +0.000 C 
BRANCH  29  30
ATOM     30  O   UNL     1      -3.417  10.949  14.595  0.00  0.00    +0.000 OA
ATOM     31  H   UNL     1      -4.239  11.440  14.499  0.00  0.00    +0.000 HD
ENDBRANCH  29  30
ENDBRANCH   1  29
TORSDOF 2
ENDMDL
MODEL 6
REMARK VINA RESULT:      -6.6      5.202      8.993
REMARK  Name = 
REMARK  2 active torsions:
REMARK  status: ('A' for Active; 'I' for Inactive)
REMARK    1  A    between atoms: C_2  and  O_3
REMARK    2  A    between atoms: C_2  and  C_4
REMARK                            x       y       z     vdW  Elec       q    Type
REMARK                         _______ _______ _______ _____ _____    ______ ____
ROOT
ATOM      1  C   UNL     1      -0.774  12.504  22.406  0.00  0.00    +0.000 A 
ATOM      2  C   UNL     1       0.071  12.960  21.379  0.00  0.00    +0.000 A 
ATOM      3  N   UNL     1       0.799  12.104  20.589  0.00  0.00    +0.000 N 
ATOM      4  C   UNL     1       1.635  12.675  19.544  0.00  0.00    +0.000 A 
ATOM      5  N   UNL     1       2.369  11.943  18.673  0.00  0.00    +0.000 NA
ATOM      6  C   UNL     1       3.050  12.717  17.786  0.00  0.00    +0.000 A 
ATOM      7  C   UNL     1       2.871  14.085  17.938  0.00  0.00    +0.000 A 
ATOM      8  S   UNL     1       1.823  14.326  19.222  0.00  0.00    +0.000 S 
ATOM      9  C   UNL     1       0.714  10.744  20.797  0.00  0.00    +0.000 A 
ATOM     10  N   UNL     1       1.442   9.866  20.040  0.00  0.00    +0.000 NA
ATOM     11  C   UNL     1       1.401   8.510  20.204  0.00  0.00    +0.000 A 
ATOM     12  N   UNL     1       2.205   7.674  19.361  0.00  0.00    +0.000 N 
ATOM     13  C   UNL     1       2.251   6.219  19.424  0.00  0.00    +0.000 C 
ATOM     14  C   UNL     1       3.358   5.827  18.436  0.00  0.00    +0.000 C 
ATOM     15  C   UNL     1       4.755   5.860  19.098  0.00  0.00    +0.000 C 
ATOM     16  C   UNL     1       5.831   5.797  18.015  0.00  0.00    +0.000 C 
ATOM     17  C   UNL     1       5.670   7.002  17.075  0.00  0.00    +0.000 C 
ATOM     18  N   UNL     1       4.342   7.014  16.439  0.00  0.00    +0.000 NA
ATOM     19  C   UNL     1       3.230   6.944  17.407  0.00  0.00    +0.000 C 
ATOM     20  C   UNL     1       3.006   8.192  18.269  0.00  0.00    +0.000 C 
ATOM     21  C   UNL     1       0.554   7.980  21.197  0.00  0.00    +0.000 A 
ATOM     22  F   UNL     1       0.438   6.647  21.416  0.00  0.00    +0.000 F 
ATOM     23  C   UNL     1      -0.201   8.840  21.988  0.00  0.00    +0.000 A 
ATOM     24  C   UNL     1      -0.127  10.229  21.807  0.00  0.00    +0.000 A 
ATOM     25  C   UNL     1      -0.870  11.111  22.610  0.00  0.00    +0.000 A 
ATOM     26  O   UNL     1      -1.599  10.665  23.482  0.00  0.00    +0.000 OA
ATOM     27  H   UNL     1       4.278   6.173  15.818  0.00  0.00    +0.000 HD
ENDROOT
BRANCH   1  29
ATOM     28  O   UNL     1      -0.964  14.315  23.918  0.00  0.00    +0.000 OA
ATOM     29  C   UNL     1      -1.555  13.473  23.259  0.00  0.00    +0.000 C 
BRANCH  29  30
ATOM     30  O   UNL     1      -2.907  13.454  23.350  0.00  0.00    +0.000 OA
ATOM     31  H   UNL     1      -3.473  14.230  23.421  0.00  0.00    +0.000 HD
ENDBRANCH  29  30
ENDBRANCH   1  29
TORSDOF 2
ENDMDL
MODEL 7
REMARK VINA RESULT:      -6.4      9.754     11.941
REMARK  Name = 
REMARK  2 active torsions:
REMARK  status: ('A' for Active; 'I' for Inactive)
REMARK    1  A    between atoms: C_2  and  O_3
REMARK    2  A    between atoms: C_2  and  C_4
REMARK                            x       y       z     vdW  Elec       q    Type
REMARK                         _______ _______ _______ _____ _____    ______ ____
ROOT
ATOM      1  C   UNL     1       6.526  12.241  24.035  0.00  0.00    +0.000 A 
ATOM      2  C   UNL     1       5.959  13.412  23.504  0.00  0.00    +0.000 A 
ATOM      3  N   UNL     1       6.546  14.117  22.482  0.00  0.00    +0.000 N 
ATOM      4  C   UNL     1       5.874  15.312  21.994  0.00  0.00    +0.000 A 
ATOM      5  N   UNL     1       6.324  16.072  20.968  0.00  0.00    +0.000 NA
ATOM      6  C   UNL     1       5.503  17.123  20.699  0.00  0.00    +0.000 A 
ATOM      7  C   UNL     1       4.382  17.219  21.512  0.00  0.00    +0.000 A 
ATOM      8  S   UNL     1       4.424  15.944  22.596  0.00  0.00    +0.000 S 
ATOM      9  C   UNL     1       7.738  13.678  21.946  0.00  0.00    +0.000 A 
ATOM     10  N   UNL     1       8.359  14.369  20.941  0.00  0.00    +0.000 NA
ATOM     11  C   UNL     1       9.541  13.983  20.375  0.00  0.00    +0.000 A 
ATOM     12  N   UNL     1      10.113  14.778  19.327  0.00  0.00    +0.000 N 
ATOM     13  C   UNL     1      11.360  14.479  18.636  0.00  0.00    +0.000 C 
ATOM     14  C   UNL     1      11.599  15.697  17.732  0.00  0.00    +0.000 C 
ATOM     15  C   UNL     1      12.333  16.833  18.482  0.00  0.00    +0.000 C 
ATOM     16  C   UNL     1      12.246  18.120  17.663  0.00  0.00    +0.000 C 
ATOM     17  C   UNL     1      10.768  18.493  17.468  0.00  0.00    +0.000 C 
ATOM     18  N   UNL     1      10.031  17.426  16.772  0.00  0.00    +0.000 NA
ATOM     19  C   UNL     1      10.164  16.106  17.420  0.00  0.00    +0.000 C 
ATOM     20  C   UNL     1       9.451  15.941  18.768  0.00  0.00    +0.000 C 
ATOM     21  C   UNL     1      10.154  12.803  20.839  0.00  0.00    +0.000 A 
ATOM     22  F   UNL     1      11.317  12.337  20.322  0.00  0.00    +0.000 F 
ATOM     23  C   UNL     1       9.554  12.073  21.861  0.00  0.00    +0.000 A 
ATOM     24  C   UNL     1       8.347  12.501  22.434  0.00  0.00    +0.000 A 
ATOM     25  C   UNL     1       7.740  11.785  23.478  0.00  0.00    +0.000 A 
ATOM     26  O   UNL     1       8.266  10.766  23.897  0.00  0.00    +0.000 OA
ATOM     27  H   UNL     1      10.422  17.346  15.803  0.00  0.00    +0.000 HD
ENDROOT
BRANCH   1  29
ATOM     28  O   UNL     1       6.033  11.853  26.318  0.00  0.00    +0.000 OA
ATOM     29  C   UNL     1       5.856  11.494  25.163  0.00  0.00    +0.000 C 
BRANCH  29  30
ATOM     30  O   UNL     1       5.062  10.414  24.965  0.00  0.00    +0.000 OA
ATOM     31  H   UNL     1       5.286   9.506  25.195  0.00  0.00    +0.000 HD
ENDBRANCH  29  30
ENDBRANCH   1  29
TORSDOF 2
ENDMDL
MODEL 8
REMARK VINA RESULT:      -6.4      7.732     10.089
REMARK  Name = 
REMARK  2 active torsions:
REMARK  status: ('A' for Active; 'I' for Inactive)
REMARK    1  A    between atoms: C_2  and  O_3
REMARK    2  A    between atoms: C_2  and  C_4
REMARK                            x       y       z     vdW  Elec       q    Type
REMARK                         _______ _______ _______ _____ _____    ______ ____
ROOT
ATOM      1  C   UNL     1       1.425  13.537  19.056  0.00  0.00    +0.000 A 
ATOM      2  C   UNL     1       0.641  14.698  18.944  0.00  0.00    +0.000 A 
ATOM      3  N   UNL     1      -0.487  14.902  19.700  0.00  0.00    +0.000 N 
ATOM      4  C   UNL     1      -1.224  16.143  19.518  0.00  0.00    +0.000 A 
ATOM      5  N   UNL     1      -2.326  16.484  20.226  0.00  0.00    +0.000 NA
ATOM      6  C   UNL     1      -2.815  17.704  19.875  0.00  0.00    +0.000 A 
ATOM      7  C   UNL     1      -2.108  18.357  18.875  0.00  0.00    +0.000 A 
ATOM      8  S   UNL     1      -0.830  17.373  18.423  0.00  0.00    +0.000 S 
ATOM      9  C   UNL     1      -0.886  13.940  20.605  0.00  0.00    +0.000 A 
ATOM     10  N   UNL     1      -2.017  14.104  21.358  0.00  0.00    +0.000 NA
ATOM     11  C   UNL     1      -2.461  13.185  22.266  0.00  0.00    +0.000 A 
ATOM     12  N   UNL     1      -3.661  13.448  23.006  0.00  0.00    +0.000 N 
ATOM     13  C   UNL     1      -4.240  12.560  24.005  0.00  0.00    +0.000 C 
ATOM     14  C   UNL     1      -5.575  13.220  24.377  0.00  0.00    +0.000 C 
ATOM     15  C   UNL     1      -6.709  12.806  23.410  0.00  0.00    +0.000 C 
ATOM     16  C   UNL     1      -7.909  13.732  23.610  0.00  0.00    +0.000 C 
ATOM     17  C   UNL     1      -7.480  15.180  23.324  0.00  0.00    +0.000 C 
ATOM     18  N   UNL     1      -6.388  15.604  24.215  0.00  0.00    +0.000 NA
ATOM     19  C   UNL     1      -5.227  14.692  24.190  0.00  0.00    +0.000 C 
ATOM     20  C   UNL     1      -4.394  14.695  22.902  0.00  0.00    +0.000 C 
ATOM     21  C   UNL     1      -1.710  12.007  22.451  0.00  0.00    +0.000 A 
ATOM     22  F   UNL     1      -2.067  11.051  23.343  0.00  0.00    +0.000 F 
ATOM     23  C   UNL     1      -0.554  11.804  21.703  0.00  0.00    +0.000 A 
ATOM     24  C   UNL     1      -0.131  12.759  20.766  0.00  0.00    +0.000 A 
ATOM     25  C   UNL     1       1.024  12.559  19.991  0.00  0.00    +0.000 A 
ATOM     26  O   UNL     1       1.677  11.538  20.134  0.00  0.00    +0.000 OA
ATOM     27  H   UNL     1      -6.761  15.618  25.194  0.00  0.00    +0.000 HD
ENDROOT
BRANCH   1  29
ATOM     28  O   UNL     1       3.566  14.157  18.262  0.00  0.00    +0.000 OA
ATOM     29  C   UNL     1       2.657  13.344  18.206  0.00  0.00    +0.000 C 
BRANCH  29  30
ATOM     30  O   UNL     1       2.810  12.302  17.353  0.00  0.00    +0.000 OA
ATOM     31  H   UNL     1       3.533  11.667  17.370  0.00  0.00    +0.000 HD
ENDBRANCH  29  30
ENDBRANCH   1  29
TORSDOF 2
ENDMDL
MODEL 9
REMARK VINA RESULT:      -6.4      7.900     10.134
REMARK  Name = 
REMARK  2 active torsions:
REMARK  status: ('A' for Active; 'I' for Inactive)
REMARK    1  A    between atoms: C_2  and  O_3
REMARK    2  A    between atoms: C_2  and  C_4
REMARK                            x       y       z     vdW  Elec       q    Type
REMARK                         _______ _______ _______ _____ _____    ______ ____
ROOT
ATOM      1  C   UNL     1      -3.546  11.611  18.371  0.00  0.00    +0.000 A 
ATOM      2  C   UNL     1      -2.189  11.885  18.616  0.00  0.00    +0.000 A 
ATOM      3  N   UNL     1      -1.764  12.572  19.726  0.00  0.00    +0.000 N 
ATOM      4  C   UNL     1      -0.335  12.794  19.893  0.00  0.00    +0.000 A 
ATOM      5  N   UNL     1       0.217  13.420  20.959  0.00  0.00    +0.000 NA
ATOM      6  C   UNL     1       1.573  13.483  20.882  0.00  0.00    +0.000 A 
ATOM      7  C   UNL     1       2.127  12.908  19.746  0.00  0.00    +0.000 A 
ATOM      8  S   UNL     1       0.873  12.300  18.816  0.00  0.00    +0.000 S 
ATOM      9  C   UNL     1      -2.687  13.023  20.645  0.00  0.00    +0.000 A 
ATOM     10  N   UNL     1      -2.298  13.729  21.751  0.00  0.00    +0.000 NA
ATOM     11  C   UNL     1      -3.167  14.203  22.691  0.00  0.00    +0.000 A 
ATOM     12  N   UNL     1      -2.659  14.935  23.816  0.00  0.00    +0.000 N 
ATOM     13  C   UNL     1      -3.472  15.489  24.890  0.00  0.00    +0.000 C 
ATOM     14  C   UNL     1      -2.482  16.294  25.743  0.00  0.00    +0.000 C 
ATOM     15  C   UNL     1      -2.294  17.730  25.201  0.00  0.00    +0.000 C 
ATOM     16  C   UNL     1      -1.072  18.366  25.864  0.00  0.00    +0.000 C 
ATOM     17  C   UNL     1       0.171  17.520  25.547  0.00  0.00    +0.000 C 
ATOM     18  N   UNL     1       0.019  16.139  26.034  0.00  0.00    +0.000 NA
ATOM     19  C   UNL     1      -1.210  15.480  25.548  0.00  0.00    +0.000 C 
ATOM     20  C   UNL     1      -1.242  15.129  24.056  0.00  0.00    +0.000 C 
ATOM     21  C   UNL     1      -4.542  13.944  22.526  0.00  0.00    +0.000 A 
ATOM     22  F   UNL     1      -5.472  14.360  23.419  0.00  0.00    +0.000 F 
ATOM     23  C   UNL     1      -4.978  13.230  21.413  0.00  0.00    +0.000 A 
ATOM     24  C   UNL     1      -4.063  12.768  20.456  0.00  0.00    +0.000 A 
ATOM     25  C   UNL     1      -4.490  12.063  19.318  0.00  0.00    +0.000 A 
ATOM     26  O   UNL     1      -5.679  11.841  19.157  0.00  0.00    +0.000 OA
ATOM     27  H   UNL     1      -0.029  16.172  27.080  0.00  0.00    +0.000 HD
ENDROOT
BRANCH   1  29
ATOM     28  O   UNL     1      -3.333   9.892  16.758  0.00  0.00    +0.000 OA
ATOM     29  C   UNL     1      -3.979  10.858  17.137  0.00  0.00    +0.000 C 
BRANCH  29  30
ATOM     30  O   UNL     1      -5.061  11.206  16.400  0.00  0.00    +0.000 OA
ATOM     31  H   UNL     1      -5.618  11.975  16.555  0.00  0.00    +0.000 HD
ENDBRANCH  29  30
ENDBRANCH   1  29
TORSDOF 2
ENDMDL
