MODEL 1
REMARK VINA RESULT:      -7.8      0.000      0.000
REMARK  Name = 
REMARK  6 active torsions:
REMARK  status: ('A' for Active; 'I' for Inactive)
REMARK    1  A    between atoms: C_2  and  O_3
REMARK    2  A    between atoms: C_2  and  C_4
REMARK    3  A    between atoms: C_4  and  C_5
REMARK    4  A    between atoms: C_10  and  N_11
REMARK    5  A    between atoms: N_11  and  C_12
REMARK    6  A    between atoms: C_18  and  C_19
REMARK                            x       y       z     vdW  Elec       q    Type
REMARK                         _______ _______ _______ _____ _____    ______ ____
ROOT
ATOM      1  N   UNL     1       5.039   3.782  18.480  0.00  0.00    +0.000 N 
ATOM      2  H   UNL     1       5.718   3.382  19.127  0.00  0.00    +0.000 HD
ENDROOT
BRANCH   1   3
ATOM      3  C   UNL     1       3.676   3.631  18.865  0.00  0.00    +0.000 A 
ATOM      4  C   UNL     1       3.076   2.353  19.022  0.00  0.00    +0.000 A 
ATOM      5 CL   UNL     1       3.800   0.904  18.392  0.00  0.00    +0.000 Cl
ATOM      6  C   UNL     1       1.810   2.198  19.598  0.00  0.00    +0.000 A 
ATOM      7  C   UNL     1       1.080   3.311  19.987  0.00  0.00    +0.000 A 
ATOM      8  C   UNL     1       1.604   4.580  19.765  0.00  0.00    +0.000 A 
ATOM      9  C   UNL     1       2.890   4.759  19.200  0.00  0.00    +0.000 A 
BRANCH   9  10
ATOM     10  C   UNL     1       3.325   6.184  18.964  0.00  0.00    +0.000 C 
ATOM     11  F   UNL     1       4.598   6.459  19.364  0.00  0.00    +0.000 F 
ATOM     12  F   UNL     1       3.279   6.517  17.641  0.00  0.00    +0.000 F 
ATOM     13  F   UNL     1       2.527   7.087  19.597  0.00  0.00    +0.000 F 
ENDBRANCH   9  10
ENDBRANCH   1   3
BRANCH   1  19
ATOM     14  C   UNL     1       6.856   4.598  17.034  0.00  0.00    +0.000 A 
ATOM     15  C   UNL     1       7.239   5.105  15.775  0.00  0.00    +0.000 A 
ATOM     16  C   UNL     1       6.393   5.017  14.670  0.00  0.00    +0.000 A 
ATOM     17  C   UNL     1       5.165   4.387  14.796  0.00  0.00    +0.000 A 
ATOM     18  C   UNL     1       4.760   3.905  16.041  0.00  0.00    +0.000 A 
ATOM     19  C   UNL     1       5.566   4.042  17.187  0.00  0.00    +0.000 A 
BRANCH  14  20
ATOM     20  C   UNL     1       7.888   4.617  18.146  0.00  0.00    +0.000 C 
BRANCH  20  22
ATOM     21  O   UNL     1       8.071   6.943  18.677  0.00  0.00    +0.000 OA
ATOM     22  C   UNL     1       7.945   5.795  19.092  0.00  0.00    +0.000 C 
BRANCH  22  23
ATOM     23  O   UNL     1       7.860   5.539  20.413  0.00  0.00    +0.000 OA
ATOM     24  H   UNL     1       6.960   5.329  20.733  0.00  0.00    +0.000 HD
ENDBRANCH  22  23
ENDBRANCH  20  22
ENDBRANCH  14  20
ENDBRANCH   1  19
TORSDOF 6
ENDMDL
MODEL 2
REMARK VINA RESULT:      -7.8      2.376      3.327
REMARK  Name = 
REMARK  6 active torsions:
REMARK  status: ('A' for Active; 'I' for Inactive)
REMARK    1  A    between atoms: C_2  and  O_3
REMARK    2  A    between atoms: C_2  and  C_4
REMARK    3  A    between atoms: C_4  and  C_5
REMARK    4  A    between atoms: C_10  and  N_11
REMARK    5  A    between atoms: N_11  and  C_12
REMARK    6  A    between atoms: C_18  and  C_19
REMARK                            x       y       z     vdW  Elec       q    Type
REMARK                         _______ _______ _______ _____ _____    ______ ____
ROOT
ATOM      1  N   UNL     1       4.752   3.185  18.475  0.00  0.00    +0.000 N 
ATOM      2  H   UNL     1       4.793   2.507  17.714  0.00  0.00    +0.000 HD
ENDROOT
BRANCH   1   3
ATOM      3  C   UNL     1       3.600   3.089  19.308  0.00  0.00    +0.000 A 
ATOM      4  C   UNL     1       3.648   2.477  20.590  0.00  0.00    +0.000 A 
ATOM      5 CL   UNL     1       4.970   1.461  21.084  0.00  0.00    +0.000 Cl
ATOM      6  C   UNL     1       2.582   2.567  21.491  0.00  0.00    +0.000 A 
ATOM      7  C   UNL     1       1.415   3.222  21.127  0.00  0.00    +0.000 A 
ATOM      8  C   UNL     1       1.305   3.755  19.848  0.00  0.00    +0.000 A 
ATOM      9  C   UNL     1       2.379   3.692  18.926  0.00  0.00    +0.000 A 
BRANCH   9  10
ATOM     10  C   UNL     1       2.118   4.261  17.554  0.00  0.00    +0.000 C 
ATOM     11  F   UNL     1       2.458   3.433  16.526  0.00  0.00    +0.000 F 
ATOM     12  F   UNL     1       0.798   4.552  17.367  0.00  0.00    +0.000 F 
ATOM     13  F   UNL     1       2.786   5.428  17.336  0.00  0.00    +0.000 F 
ENDBRANCH   9  10
ENDBRANCH   1   3
BRANCH   1  19
ATOM     14  C   UNL     1       6.143   4.609  17.028  0.00  0.00    +0.000 A 
ATOM     15  C   UNL     1       7.215   5.520  16.931  0.00  0.00    +0.000 A 
ATOM     16  C   UNL     1       7.733   6.154  18.060  0.00  0.00    +0.000 A 
ATOM     17  C   UNL     1       7.164   5.914  19.301  0.00  0.00    +0.000 A 
ATOM     18  C   UNL     1       6.122   4.995  19.418  0.00  0.00    +0.000 A 
ATOM     19  C   UNL     1       5.626   4.292  18.304  0.00  0.00    +0.000 A 
BRANCH  14  20
ATOM     20  C   UNL     1       5.557   4.068  15.738  0.00  0.00    +0.000 C 
BRANCH  20  22
ATOM     21  O   UNL     1       6.865   5.312  14.166  0.00  0.00    +0.000 OA
ATOM     22  C   UNL     1       6.312   4.251  14.440  0.00  0.00    +0.000 C 
BRANCH  22  23
ATOM     23  O   UNL     1       6.351   3.206  13.588  0.00  0.00    +0.000 OA
ATOM     24  H   UNL     1       5.475   2.859  13.325  0.00  0.00    +0.000 HD
ENDBRANCH  22  23
ENDBRANCH  20  22
ENDBRANCH  14  20
ENDBRANCH   1  19
TORSDOF 6
ENDMDL
MODEL 3
REMARK VINA RESULT:      -7.7      0.308      1.018
REMARK  Name = 
REMARK  6 active torsions:
REMARK  status: ('A' for Active; 'I' for Inactive)
REMARK    1  A    between atoms: C_2  and  O_3
REMARK    2  A    between atoms: C_2  and  C_4
REMARK    3  A    between atoms: C_4  and  C_5
REMARK    4  A    between atoms: C_10  and  N_11
REMARK    5  A    between atoms: N_11  and  C_12
REMARK    6  A    between atoms: C_18  and  C_19
REMARK                            x       y       z     vdW  Elec       q    Type
REMARK                         _______ _______ _______ _____ _____    ______ ____
ROOT
ATOM      1  N   UNL     1       5.045   3.837  18.318  0.00  0.00    +0.000 N 
ATOM      2  H   UNL     1       5.720   3.511  19.010  0.00  0.00    +0.000 HD
ENDROOT
BRANCH   1   3
ATOM      3  C   UNL     1       3.678   3.636  18.667  0.00  0.00    +0.000 A 
ATOM      4  C   UNL     1       3.133   2.337  18.851  0.00  0.00    +0.000 A 
ATOM      5 CL   UNL     1       3.943   0.903  18.296  0.00  0.00    +0.000 Cl
ATOM      6  C   UNL     1       1.858   2.143  19.395  0.00  0.00    +0.000 A 
ATOM      7  C   UNL     1       1.066   3.233  19.722  0.00  0.00    +0.000 A 
ATOM      8  C   UNL     1       1.537   4.516  19.470  0.00  0.00    +0.000 A 
ATOM      9  C   UNL     1       2.832   4.737  18.938  0.00  0.00    +0.000 A 
BRANCH   9  10
ATOM     10  C   UNL     1       3.207   6.171  18.664  0.00  0.00    +0.000 C 
ATOM     11  F   UNL     1       3.430   6.454  17.349  0.00  0.00    +0.000 F 
ATOM     12  F   UNL     1       2.233   7.038  19.064  0.00  0.00    +0.000 F 
ATOM     13  F   UNL     1       4.333   6.554  19.328  0.00  0.00    +0.000 F 
ENDBRANCH   9  10
ENDBRANCH   1   3
BRANCH   1  19
ATOM     14  C   UNL     1       6.901   4.591  16.889  0.00  0.00    +0.000 A 
ATOM     15  C   UNL     1       7.317   5.054  15.623  0.00  0.00    +0.000 A 
ATOM     16  C   UNL     1       6.495   4.938  14.503  0.00  0.00    +0.000 A 
ATOM     17  C   UNL     1       5.259   4.322  14.621  0.00  0.00    +0.000 A 
ATOM     18  C   UNL     1       4.821   3.884  15.871  0.00  0.00    +0.000 A 
ATOM     19  C   UNL     1       5.603   4.051  17.030  0.00  0.00    +0.000 A 
BRANCH  14  20
ATOM     20  C   UNL     1       7.907   4.638  18.023  0.00  0.00    +0.000 C 
BRANCH  20  22
ATOM     21  O   UNL     1       7.136   5.430  20.145  0.00  0.00    +0.000 OA
ATOM     22  C   UNL     1       7.756   5.673  19.114  0.00  0.00    +0.000 C 
BRANCH  22  23
ATOM     23  O   UNL     1       8.320   6.881  18.911  0.00  0.00    +0.000 OA
ATOM     24  H   UNL     1       7.707   7.639  18.990  0.00  0.00    +0.000 HD
ENDBRANCH  22  23
ENDBRANCH  20  22
ENDBRANCH  14  20
ENDBRANCH   1  19
TORSDOF 6
ENDMDL
MODEL 4
REMARK VINA RESULT:      -7.5      3.014      4.038
REMARK  Name = 
REMARK  6 active torsions:
REMARK  status: ('A' for Active; 'I' for Inactive)
REMARK    1  A    between atoms: C_2  and  O_3
REMARK    2  A    between atoms: C_2  and  C_4
REMARK    3  A    between atoms: C_4  and  C_5
REMARK    4  A    between atoms: C_10  and  N_11
REMARK    5  A    between atoms: N_11  and  C_12
REMARK    6  A    between atoms: C_18  and  C_19
REMARK                            x       y       z     vdW  Elec       q    Type
REMARK                         _______ _______ _______ _____ _____    ______ ____
ROOT
ATOM      1  N   UNL     1       3.764   4.912  17.918  0.00  0.00    +0.000 N 
ATOM      2  H   UNL     1       3.304   5.453  17.186  0.00  0.00    +0.000 HD
ENDROOT
BRANCH   1   3
ATOM      3  C   UNL     1       2.899   4.418  18.938  0.00  0.00    +0.000 A 
ATOM      4  C   UNL     1       2.057   5.279  19.692  0.00  0.00    +0.000 A 
ATOM      5 CL   UNL     1       2.283   7.003  19.724  0.00  0.00    +0.000 Cl
ATOM      6  C   UNL     1       1.063   4.781  20.540  0.00  0.00    +0.000 A 
ATOM      7  C   UNL     1       0.909   3.413  20.707  0.00  0.00    +0.000 A 
ATOM      8  C   UNL     1       1.776   2.547  20.051  0.00  0.00    +0.000 A 
ATOM      9  C   UNL     1       2.778   3.028  19.173  0.00  0.00    +0.000 A 
BRANCH   9  10
ATOM     10  C   UNL     1       3.686   1.992  18.561  0.00  0.00    +0.000 C 
ATOM     11  F   UNL     1       3.863   2.121  17.216  0.00  0.00    +0.000 F 
ATOM     12  F   UNL     1       4.940   2.033  19.099  0.00  0.00    +0.000 F 
ATOM     13  F   UNL     1       3.242   0.721  18.763  0.00  0.00    +0.000 F 
ENDBRANCH   9  10
ENDBRANCH   1   3
BRANCH   1  19
ATOM     14  C   UNL     1       5.988   4.698  16.890  0.00  0.00    +0.000 A 
ATOM     15  C   UNL     1       7.386   4.630  17.077  0.00  0.00    +0.000 A 
ATOM     16  C   UNL     1       7.974   5.002  18.284  0.00  0.00    +0.000 A 
ATOM     17  C   UNL     1       7.180   5.485  19.313  0.00  0.00    +0.000 A 
ATOM     18  C   UNL     1       5.795   5.532  19.154  0.00  0.00    +0.000 A 
ATOM     19  C   UNL     1       5.171   5.097  17.970  0.00  0.00    +0.000 A 
BRANCH  14  20
ATOM     20  C   UNL     1       5.447   4.400  15.505  0.00  0.00    +0.000 C 
BRANCH  20  22
ATOM     21  O   UNL     1       7.101   5.340  14.053  0.00  0.00    +0.000 OA
ATOM     22  C   UNL     1       6.390   4.377  14.323  0.00  0.00    +0.000 C 
BRANCH  22  23
ATOM     23  O   UNL     1       6.417   3.260  13.568  0.00  0.00    +0.000 OA
ATOM     24  H   UNL     1       6.612   2.437  14.059  0.00  0.00    +0.000 HD
ENDBRANCH  22  23
ENDBRANCH  20  22
ENDBRANCH  14  20
ENDBRANCH   1  19
TORSDOF 6
ENDMDL
MODEL 5
REMARK VINA RESULT:      -7.3      2.090      3.118
REMARK  Name = 
REMARK  6 active torsions:
REMARK  status: ('A' for Active; 'I' for Inactive)
REMARK    1  A    between atoms: C_2  and  O_3
REMARK    2  A    between atoms: C_2  and  C_4
REMARK    3  A    between atoms: C_4  and  C_5
REMARK    4  A    between atoms: C_10  and  N_11
REMARK    5  A    between atoms: N_11  and  C_12
REMARK    6  A    between atoms: C_18  and  C_19
REMARK                            x       y       z     vdW  Elec       q    Type
REMARK                         _______ _______ _______ _____ _____    ______ ____
ROOT
ATOM      1  N   UNL     1       3.688   4.790  17.732  0.00  0.00    +0.000 N 
ATOM      2  H   UNL     1       3.250   5.319  16.977  0.00  0.00    +0.000 HD
ENDROOT
BRANCH   1   3
ATOM      3  C   UNL     1       2.792   4.312  18.731  0.00  0.00    +0.000 A 
ATOM      4  C   UNL     1       2.588   2.923  18.955  0.00  0.00    +0.000 A 
ATOM      5 CL   UNL     1       3.084   1.715  17.807  0.00  0.00    +0.000 Cl
ATOM      6  C   UNL     1       1.878   2.451  20.065  0.00  0.00    +0.000 A 
ATOM      7  C   UNL     1       1.304   3.345  20.957  0.00  0.00    +0.000 A 
ATOM      8  C   UNL     1       1.411   4.710  20.715  0.00  0.00    +0.000 A 
ATOM      9  C   UNL     1       2.141   5.210  19.609  0.00  0.00    +0.000 A 
BRANCH   9  10
ATOM     10  C   UNL     1       2.141   6.707  19.428  0.00  0.00    +0.000 C 
ATOM     11  F   UNL     1       1.740   7.126  18.194  0.00  0.00    +0.000 F 
ATOM     12  F   UNL     1       1.307   7.326  20.312  0.00  0.00    +0.000 F 
ATOM     13  F   UNL     1       3.369   7.259  19.634  0.00  0.00    +0.000 F 
ENDBRANCH   9  10
ENDBRANCH   1   3
BRANCH   1  19
ATOM     14  C   UNL     1       5.934   4.662  16.737  0.00  0.00    +0.000 A 
ATOM     15  C   UNL     1       7.328   4.590  16.947  0.00  0.00    +0.000 A 
ATOM     16  C   UNL     1       7.889   4.880  18.190  0.00  0.00    +0.000 A 
ATOM     17  C   UNL     1       7.071   5.284  19.233  0.00  0.00    +0.000 A 
ATOM     18  C   UNL     1       5.689   5.335  19.049  0.00  0.00    +0.000 A 
ATOM     19  C   UNL     1       5.092   4.980  17.825  0.00  0.00    +0.000 A 
BRANCH  14  20
ATOM     20  C   UNL     1       5.423   4.459  15.323  0.00  0.00    +0.000 C 
BRANCH  20  22
ATOM     21  O   UNL     1       7.193   5.265  13.930  0.00  0.00    +0.000 OA
ATOM     22  C   UNL     1       6.408   4.357  14.180  0.00  0.00    +0.000 C 
BRANCH  22  23
ATOM     23  O   UNL     1       6.387   3.231  13.438  0.00  0.00    +0.000 OA
ATOM     24  H   UNL     1       5.831   2.512  13.798  0.00  0.00    +0.000 HD
ENDBRANCH  22  23
ENDBRANCH  20  22
ENDBRANCH  14  20
ENDBRANCH   1  19
TORSDOF 6
ENDMDL
MODEL 6
REMARK VINA RESULT:      -7.3      2.362      2.936
REMARK  Name = 
REMARK  6 active torsions:
REMARK  status: ('A' for Active; 'I' for Inactive)
REMARK    1  A    between atoms: C_2  and  O_3
REMARK    2  A    between atoms: C_2  and  C_4
REMARK    3  A    between atoms: C_4  and  C_5
REMARK    4  A    between atoms: C_10  and  N_11
REMARK    5  A    between atoms: N_11  and  C_12
REMARK    6  A    between atoms: C_18  and  C_19
REMARK                            x       y       z     vdW  Elec       q    Type
REMARK                         _______ _______ _______ _____ _____    ______ ____
ROOT
ATOM      1  N   UNL     1       5.047   3.839  18.208  0.00  0.00    +0.000 N 
ATOM      2  H   UNL     1       5.124   2.875  18.532  0.00  0.00    +0.000 HD
ENDROOT
BRANCH   1   3
ATOM      3  C   UNL     1       4.068   4.626  18.879  0.00  0.00    +0.000 A 
ATOM      4  C   UNL     1       3.841   5.988  18.546  0.00  0.00    +0.000 A 
ATOM      5 CL   UNL     1       4.968   6.913  17.598  0.00  0.00    +0.000 Cl
ATOM      6  C   UNL     1       2.747   6.699  19.052  0.00  0.00    +0.000 A 
ATOM      7  C   UNL     1       1.876   6.095  19.945  0.00  0.00    +0.000 A 
ATOM      8  C   UNL     1       2.123   4.791  20.360  0.00  0.00    +0.000 A 
ATOM      9  C   UNL     1       3.213   4.047  19.846  0.00  0.00    +0.000 A 
BRANCH   9  10
ATOM     10  C   UNL     1       3.403   2.662  20.411  0.00  0.00    +0.000 C 
ATOM     11  F   UNL     1       4.702   2.325  20.653  0.00  0.00    +0.000 F 
ATOM     12  F   UNL     1       2.758   2.505  21.602  0.00  0.00    +0.000 F 
ATOM     13  F   UNL     1       2.908   1.691  19.595  0.00  0.00    +0.000 F 
ENDBRANCH   9  10
ENDBRANCH   1   3
BRANCH   1  19
ATOM     14  C   UNL     1       6.944   4.585  16.830  0.00  0.00    +0.000 A 
ATOM     15  C   UNL     1       7.394   5.061  15.580  0.00  0.00    +0.000 A 
ATOM     16  C   UNL     1       6.596   4.972  14.441  0.00  0.00    +0.000 A 
ATOM     17  C   UNL     1       5.348   4.373  14.523  0.00  0.00    +0.000 A 
ATOM     18  C   UNL     1       4.878   3.924  15.757  0.00  0.00    +0.000 A 
ATOM     19  C   UNL     1       5.637   4.063  16.935  0.00  0.00    +0.000 A 
BRANCH  14  20
ATOM     20  C   UNL     1       7.927   4.601  17.986  0.00  0.00    +0.000 C 
BRANCH  20  22
ATOM     21  O   UNL     1       7.190   5.394  20.120  0.00  0.00    +0.000 OA
ATOM     22  C   UNL     1       7.783   5.641  19.074  0.00  0.00    +0.000 C 
BRANCH  22  23
ATOM     23  O   UNL     1       8.323   6.856  18.851  0.00  0.00    +0.000 OA
ATOM     24  H   UNL     1       9.090   6.859  18.245  0.00  0.00    +0.000 HD
ENDBRANCH  22  23
ENDBRANCH  20  22
ENDBRANCH  14  20
ENDBRANCH   1  19
TORSDOF 6
ENDMDL
MODEL 7
REMARK VINA RESULT:      -7.2      1.004      1.274
REMARK  Name = 
REMARK  6 active torsions:
REMARK  status: ('A' for Active; 'I' for Inactive)
REMARK    1  A    between atoms: C_2  and  O_3
REMARK    2  A    between atoms: C_2  and  C_4
REMARK    3  A    between atoms: C_4  and  C_5
REMARK    4  A    between atoms: C_10  and  N_11
REMARK    5  A    between atoms: N_11  and  C_12
REMARK    6  A    between atoms: C_18  and  C_19
REMARK                            x       y       z     vdW  Elec       q    Type
REMARK                         _______ _______ _______ _____ _____    ______ ____
ROOT
ATOM      1  N   UNL     1       5.197   3.840  18.095  0.00  0.00    +0.000 N 
ATOM      2  H   UNL     1       5.783   3.448  18.832  0.00  0.00    +0.000 HD
ENDROOT
BRANCH   1   3
ATOM      3  C   UNL     1       3.794   3.736  18.320  0.00  0.00    +0.000 A 
ATOM      4  C   UNL     1       3.168   2.492  18.606  0.00  0.00    +0.000 A 
ATOM      5 CL   UNL     1       3.958   0.969  18.323  0.00  0.00    +0.000 Cl
ATOM      6  C   UNL     1       1.838   2.416  19.032  0.00  0.00    +0.000 A 
ATOM      7  C   UNL     1       1.072   3.568  19.136  0.00  0.00    +0.000 A 
ATOM      8  C   UNL     1       1.630   4.790  18.777  0.00  0.00    +0.000 A 
ATOM      9  C   UNL     1       2.980   4.892  18.361  0.00  0.00    +0.000 A 
BRANCH   9  10
ATOM     10  C   UNL     1       3.452   6.264  17.952  0.00  0.00    +0.000 C 
ATOM     11  F   UNL     1       3.922   6.341  16.674  0.00  0.00    +0.000 F 
ATOM     12  F   UNL     1       2.453   7.190  18.028  0.00  0.00    +0.000 F 
ATOM     13  F   UNL     1       4.450   6.735  18.749  0.00  0.00    +0.000 F 
ENDBRANCH   9  10
ENDBRANCH   1   3
BRANCH   1  19
ATOM     14  C   UNL     1       6.905   5.005  16.761  0.00  0.00    +0.000 A 
ATOM     15  C   UNL     1       7.365   5.381  15.481  0.00  0.00    +0.000 A 
ATOM     16  C   UNL     1       6.868   4.778  14.327  0.00  0.00    +0.000 A 
ATOM     17  C   UNL     1       5.929   3.764  14.433  0.00  0.00    +0.000 A 
ATOM     18  C   UNL     1       5.444   3.400  15.690  0.00  0.00    +0.000 A 
ATOM     19  C   UNL     1       5.879   4.040  16.865  0.00  0.00    +0.000 A 
BRANCH  14  20
ATOM     20  C   UNL     1       7.594   5.617  17.966  0.00  0.00    +0.000 C 
BRANCH  20  22
ATOM     21  O   UNL     1       7.126   7.872  17.314  0.00  0.00    +0.000 OA
ATOM     22  C   UNL     1       7.752   7.119  18.053  0.00  0.00    +0.000 C 
BRANCH  22  23
ATOM     23  O   UNL     1       8.615   7.603  18.969  0.00  0.00    +0.000 OA
ATOM     24  H   UNL     1       8.229   8.246  19.597  0.00  0.00    +0.000 HD
ENDBRANCH  22  23
ENDBRANCH  20  22
ENDBRANCH  14  20
ENDBRANCH   1  19
TORSDOF 6
ENDMDL
MODEL 8
REMARK VINA RESULT:      -7.2      1.218      1.557
REMARK  Name = 
REMARK  6 active torsions:
REMARK  status: ('A' for Active; 'I' for Inactive)
REMARK    1  A    between atoms: C_2  and  O_3
REMARK    2  A    between atoms: C_2  and  C_4
REMARK    3  A    between atoms: C_4  and  C_5
REMARK    4  A    between atoms: C_10  and  N_11
REMARK    5  A    between atoms: N_11  and  C_12
REMARK    6  A    between atoms: C_18  and  C_19
REMARK                            x       y       z     vdW  Elec       q    Type
REMARK                         _______ _______ _______ _____ _____    ______ ____
ROOT
ATOM      1  N   UNL     1       4.945   4.781  19.031  0.00  0.00    +0.000 N 
ATOM      2  H   UNL     1       5.659   5.027  19.717  0.00  0.00    +0.000 HD
ENDROOT
BRANCH   1   3
ATOM      3  C   UNL     1       3.698   4.362  19.581  0.00  0.00    +0.000 A 
ATOM      4  C   UNL     1       3.537   3.091  20.196  0.00  0.00    +0.000 A 
ATOM      5 CL   UNL     1       4.690   1.806  19.989  0.00  0.00    +0.000 Cl
ATOM      6  C   UNL     1       2.384   2.762  20.917  0.00  0.00    +0.000 A 
ATOM      7  C   UNL     1       1.335   3.665  21.005  0.00  0.00    +0.000 A 
ATOM      8  C   UNL     1       1.427   4.882  20.339  0.00  0.00    +0.000 A 
ATOM      9  C   UNL     1       2.592   5.243  19.619  0.00  0.00    +0.000 A 
BRANCH   9  10
ATOM     10  C   UNL     1       2.551   6.568  18.899  0.00  0.00    +0.000 C 
ATOM     11  F   UNL     1       1.891   6.541  17.706  0.00  0.00    +0.000 F 
ATOM     12  F   UNL     1       1.927   7.530  19.639  0.00  0.00    +0.000 F 
ATOM     13  F   UNL     1       3.793   7.058  18.632  0.00  0.00    +0.000 F 
ENDBRANCH   9  10
ENDBRANCH   1   3
BRANCH   1  19
ATOM     14  C   UNL     1       6.642   5.177  17.294  0.00  0.00    +0.000 A 
ATOM     15  C   UNL     1       6.973   5.143  15.923  0.00  0.00    +0.000 A 
ATOM     16  C   UNL     1       6.189   4.445  15.005  0.00  0.00    +0.000 A 
ATOM     17  C   UNL     1       5.082   3.739  15.447  0.00  0.00    +0.000 A 
ATOM     18  C   UNL     1       4.725   3.785  16.795  0.00  0.00    +0.000 A 
ATOM     19  C   UNL     1       5.461   4.537  17.730  0.00  0.00    +0.000 A 
BRANCH  14  20
ATOM     20  C   UNL     1       7.620   5.848  18.240  0.00  0.00    +0.000 C 
BRANCH  20  22
ATOM     21  O   UNL     1       7.364   7.999  17.225  0.00  0.00    +0.000 OA
ATOM     22  C   UNL     1       7.883   7.331  18.113  0.00  0.00    +0.000 C 
BRANCH  22  23
ATOM     23  O   UNL     1       8.719   7.895  19.009  0.00  0.00    +0.000 OA
ATOM     24  H   UNL     1       9.515   8.312  18.622  0.00  0.00    +0.000 HD
ENDBRANCH  22  23
ENDBRANCH  20  22
ENDBRANCH  14  20
ENDBRANCH   1  19
TORSDOF 6
ENDMDL
MODEL 9
REMARK VINA RESULT:      -7.1      2.349      2.852
REMARK  Name = 
REMARK  6 active torsions:
REMARK  status: ('A' for Active; 'I' for Inactive)
REMARK    1  A    between atoms: C_2  and  O_3
REMARK    2  A    between atoms: C_2  and  C_4
REMARK    3  A    between atoms: C_4  and  C_5
REMARK    4  A    between atoms: C_10  and  N_11
REMARK    5  A    between atoms: N_11  and  C_12
REMARK    6  A    between atoms: C_18  and  C_19
REMARK                            x       y       z     vdW  Elec       q    Type
REMARK                         _______ _______ _______ _____ _____    ______ ____
ROOT
ATOM      1  N   UNL     1       5.027   3.828  18.125  0.00  0.00    +0.000 N 
ATOM      2  H   UNL     1       5.085   2.863  18.450  0.00  0.00    +0.000 HD
ENDROOT
BRANCH   1   3
ATOM      3  C   UNL     1       4.063   4.634  18.797  0.00  0.00    +0.000 A 
ATOM      4  C   UNL     1       3.846   5.994  18.448  0.00  0.00    +0.000 A 
ATOM      5 CL   UNL     1       4.973   6.894  17.475  0.00  0.00    +0.000 Cl
ATOM      6  C   UNL     1       2.766   6.724  18.957  0.00  0.00    +0.000 A 
ATOM      7  C   UNL     1       1.899   6.141  19.868  0.00  0.00    +0.000 A 
ATOM      8  C   UNL     1       2.137   4.840  20.297  0.00  0.00    +0.000 A 
ATOM      9  C   UNL     1       3.213   4.077  19.781  0.00  0.00    +0.000 A 
BRANCH   9  10
ATOM     10  C   UNL     1       3.395   2.698  20.362  0.00  0.00    +0.000 C 
ATOM     11  F   UNL     1       2.955   1.686  19.561  0.00  0.00    +0.000 F 
ATOM     12  F   UNL     1       4.707   2.419  20.612  0.00  0.00    +0.000 F 
ATOM     13  F   UNL     1       2.754   2.542  21.553  0.00  0.00    +0.000 F 
ENDBRANCH   9  10
ENDBRANCH   1   3
BRANCH   1  19
ATOM     14  C   UNL     1       6.924   4.566  16.744  0.00  0.00    +0.000 A 
ATOM     15  C   UNL     1       7.376   5.028  15.490  0.00  0.00    +0.000 A 
ATOM     16  C   UNL     1       6.581   4.923  14.349  0.00  0.00    +0.000 A 
ATOM     17  C   UNL     1       5.336   4.320  14.436  0.00  0.00    +0.000 A 
ATOM     18  C   UNL     1       4.863   3.883  15.673  0.00  0.00    +0.000 A 
ATOM     19  C   UNL     1       5.618   4.039  16.851  0.00  0.00    +0.000 A 
BRANCH  14  20
ATOM     20  C   UNL     1       7.904   4.599  17.902  0.00  0.00    +0.000 C 
BRANCH  20  22
ATOM     21  O   UNL     1       8.210   6.821  18.735  0.00  0.00    +0.000 OA
ATOM     22  C   UNL     1       7.790   5.688  18.945  0.00  0.00    +0.000 C 
BRANCH  22  23
ATOM     23  O   UNL     1       7.216   5.366  20.123  0.00  0.00    +0.000 OA
ATOM     24  H   UNL     1       6.245   5.476  20.149  0.00  0.00    +0.000 HD
ENDBRANCH  22  23
ENDBRANCH  20  22
ENDBRANCH  14  20
ENDBRANCH   1  19
TORSDOF 6
ENDMDL
