MODEL 1
REMARK VINA RESULT:      -7.2      0.000      0.000
REMARK  Name = 
REMARK  1 active torsions:
REMARK  status: ('A' for Active; 'I' for Inactive)
REMARK    1  A    between atoms: C_2  and  C_3
REMARK                            x       y       z     vdW  Elec       q    Type
REMARK                         _______ _______ _______ _____ _____    ______ ____
ROOT
ATOM      1  C   UNL     1       4.070   3.851  18.361  0.00  0.00    +0.000 A 
ATOM      2  C   UNL     1       5.266   4.224  18.961  0.00  0.00    +0.000 A 
ATOM      3  N   UNL     1       6.390   4.565  18.286  0.00  0.00    +0.000 NA
ATOM      4  C   UNL     1       6.348   4.544  16.944  0.00  0.00    +0.000 A 
ATOM      5  C   UNL     1       7.478   4.876  16.218  0.00  0.00    +0.000 A 
ATOM      6  C   UNL     1       7.485   4.874  14.820  0.00  0.00    +0.000 A 
ATOM      7  C   UNL     1       6.332   4.529  14.122  0.00  0.00    +0.000 A 
ATOM      8  C   UNL     1       5.181   4.189  14.827  0.00  0.00    +0.000 A 
ATOM      9  C   UNL     1       5.180   4.191  16.229  0.00  0.00    +0.000 A 
ATOM     10  C   UNL     1       4.043   3.852  16.965  0.00  0.00    +0.000 A 
ENDROOT
BRANCH   1  12
ATOM     11  C   UNL     1       2.990   3.142  20.444  0.00  0.00    +0.000 C 
ATOM     12  C   UNL     1       2.885   3.486  19.149  0.00  0.00    +0.000 C 
ATOM     13  C   UNL     1       1.529   3.508  18.485  0.00  0.00    +0.000 C 
ATOM     14  C   UNL     1       0.524   2.641  19.254  0.00  0.00    +0.000 C 
ATOM     15  N   UNL     1       0.514   2.971  20.680  0.00  0.00    +0.000 NA
ATOM     16  C   UNL     1       1.822   2.768  21.303  0.00  0.00    +0.000 C 
ATOM     17  H   UNL     1      -0.167   2.386  21.157  0.00  0.00    +0.000 HD
ENDBRANCH   1  12
TORSDOF 1
ENDMDL
MODEL 2
REMARK VINA RESULT:      -7.2      0.645      1.261
REMARK  Name = 
REMARK  1 active torsions:
REMARK  status: ('A' for Active; 'I' for Inactive)
REMARK    1  A    between atoms: C_2  and  C_3
REMARK                            x       y       z     vdW  Elec       q    Type
REMARK                         _______ _______ _______ _____ _____    ______ ____
ROOT
ATOM      1  C   UNL     1       4.231   3.977  18.599  0.00  0.00    +0.000 A 
ATOM      2  C   UNL     1       5.491   4.316  19.078  0.00  0.00    +0.000 A 
ATOM      3  N   UNL     1       6.558   4.604  18.296  0.00  0.00    +0.000 NA
ATOM      4  C   UNL     1       6.391   4.563  16.964  0.00  0.00    +0.000 A 
ATOM      5  C   UNL     1       7.459   4.842  16.129  0.00  0.00    +0.000 A 
ATOM      6  C   UNL     1       7.335   4.817  14.737  0.00  0.00    +0.000 A 
ATOM      7  C   UNL     1       6.111   4.505  14.156  0.00  0.00    +0.000 A 
ATOM      8  C   UNL     1       5.019   4.218  14.971  0.00  0.00    +0.000 A 
ATOM      9  C   UNL     1       5.149   4.242  16.367  0.00  0.00    +0.000 A 
ATOM     10  C   UNL     1       4.074   3.957  17.211  0.00  0.00    +0.000 A 
ENDROOT
BRANCH   1  12
ATOM     11  C   UNL     1       1.947   4.332  19.413  0.00  0.00    +0.000 C 
ATOM     12  C   UNL     1       3.113   3.669  19.500  0.00  0.00    +0.000 C 
ATOM     13  C   UNL     1       3.285   2.583  20.534  0.00  0.00    +0.000 C 
ATOM     14  C   UNL     1       2.270   2.740  21.674  0.00  0.00    +0.000 C 
ATOM     15  N   UNL     1       0.907   2.889  21.160  0.00  0.00    +0.000 NA
ATOM     16  C   UNL     1       0.768   4.061  20.295  0.00  0.00    +0.000 C 
ATOM     17  H   UNL     1       0.261   2.983  21.940  0.00  0.00    +0.000 HD
ENDBRANCH   1  12
TORSDOF 1
ENDMDL
MODEL 3
REMARK VINA RESULT:      -7.1      1.934      2.845
REMARK  Name = 
REMARK  1 active torsions:
REMARK  status: ('A' for Active; 'I' for Inactive)
REMARK    1  A    between atoms: C_2  and  C_3
REMARK                            x       y       z     vdW  Elec       q    Type
REMARK                         _______ _______ _______ _____ _____    ______ ____
ROOT
ATOM      1  C   UNL     1       5.339   5.049  16.583  0.00  0.00    +0.000 A 
ATOM      2  C   UNL     1       6.534   5.752  16.480  0.00  0.00    +0.000 A 
ATOM      3  N   UNL     1       7.337   5.746  15.389  0.00  0.00    +0.000 NA
ATOM      4  C   UNL     1       6.953   5.014  14.330  0.00  0.00    +0.000 A 
ATOM      5  C   UNL     1       7.750   4.974  13.200  0.00  0.00    +0.000 A 
ATOM      6  C   UNL     1       7.394   4.231  12.070  0.00  0.00    +0.000 A 
ATOM      7  C   UNL     1       6.208   3.504  12.066  0.00  0.00    +0.000 A 
ATOM      8  C   UNL     1       5.388   3.524  13.190  0.00  0.00    +0.000 A 
ATOM      9  C   UNL     1       5.750   4.270  14.321  0.00  0.00    +0.000 A 
ATOM     10  C   UNL     1       4.951   4.308  15.464  0.00  0.00    +0.000 A 
ENDROOT
BRANCH   1  12
ATOM     11  C   UNL     1       4.364   4.003  18.573  0.00  0.00    +0.000 C 
ATOM     12  C   UNL     1       4.514   5.091  17.797  0.00  0.00    +0.000 C 
ATOM     13  C   UNL     1       3.833   6.384  18.174  0.00  0.00    +0.000 C 
ATOM     14  C   UNL     1       2.653   6.130  19.122  0.00  0.00    +0.000 C 
ATOM     15  N   UNL     1       3.047   5.290  20.254  0.00  0.00    +0.000 NA
ATOM     16  C   UNL     1       3.544   3.983  19.826  0.00  0.00    +0.000 C 
ATOM     17  H   UNL     1       2.247   5.149  20.865  0.00  0.00    +0.000 HD
ENDBRANCH   1  12
TORSDOF 1
ENDMDL
MODEL 4
REMARK VINA RESULT:      -7.0      1.586      6.101
REMARK  Name = 
REMARK  1 active torsions:
REMARK  status: ('A' for Active; 'I' for Inactive)
REMARK    1  A    between atoms: C_2  and  C_3
REMARK                            x       y       z     vdW  Elec       q    Type
REMARK                         _______ _______ _______ _____ _____    ______ ____
ROOT
ATOM      1  C   UNL     1       4.606   4.622  17.365  0.00  0.00    +0.000 A 
ATOM      2  C   UNL     1       4.843   5.352  18.524  0.00  0.00    +0.000 A 
ATOM      3  N   UNL     1       4.059   5.315  19.628  0.00  0.00    +0.000 NA
ATOM      4  C   UNL     1       2.979   4.517  19.607  0.00  0.00    +0.000 A 
ATOM      5  C   UNL     1       2.148   4.457  20.711  0.00  0.00    +0.000 A 
ATOM      6  C   UNL     1       1.015   3.640  20.740  0.00  0.00    +0.000 A 
ATOM      7  C   UNL     1       0.697   2.857  19.635  0.00  0.00    +0.000 A 
ATOM      8  C   UNL     1       1.514   2.897  18.509  0.00  0.00    +0.000 A 
ATOM      9  C   UNL     1       2.649   3.721  18.484  0.00  0.00    +0.000 A 
ATOM     10  C   UNL     1       3.487   3.786  17.370  0.00  0.00    +0.000 A 
ENDROOT
BRANCH   1  12
ATOM     11  C   UNL     1       5.245   3.998  15.083  0.00  0.00    +0.000 C 
ATOM     12  C   UNL     1       5.491   4.710  16.196  0.00  0.00    +0.000 C 
ATOM     13  C   UNL     1       6.691   5.624  16.255  0.00  0.00    +0.000 C 
ATOM     14  C   UNL     1       7.742   5.221  15.213  0.00  0.00    +0.000 C 
ATOM     15  N   UNL     1       7.148   5.071  13.883  0.00  0.00    +0.000 NA
ATOM     16  C   UNL     1       6.103   4.049  13.857  0.00  0.00    +0.000 C 
ATOM     17  H   UNL     1       7.872   4.813  13.217  0.00  0.00    +0.000 HD
ENDBRANCH   1  12
TORSDOF 1
ENDMDL
MODEL 5
REMARK VINA RESULT:      -7.0      2.304      2.775
REMARK  Name = 
REMARK  1 active torsions:
REMARK  status: ('A' for Active; 'I' for Inactive)
REMARK    1  A    between atoms: C_2  and  C_3
REMARK                            x       y       z     vdW  Elec       q    Type
REMARK                         _______ _______ _______ _____ _____    ______ ____
ROOT
ATOM      1  C   UNL     1       3.588   4.975  18.661  0.00  0.00    +0.000 A 
ATOM      2  C   UNL     1       3.418   5.876  17.616  0.00  0.00    +0.000 A 
ATOM      3  N   UNL     1       4.392   6.682  17.131  0.00  0.00    +0.000 NA
ATOM      4  C   UNL     1       5.609   6.607  17.695  0.00  0.00    +0.000 A 
ATOM      5  C   UNL     1       6.629   7.421  17.234  0.00  0.00    +0.000 A 
ATOM      6  C   UNL     1       7.913   7.379  17.784  0.00  0.00    +0.000 A 
ATOM      7  C   UNL     1       8.192   6.499  18.825  0.00  0.00    +0.000 A 
ATOM      8  C   UNL     1       7.185   5.670  19.309  0.00  0.00    +0.000 A 
ATOM      9  C   UNL     1       5.897   5.718  18.756  0.00  0.00    +0.000 A 
ATOM     10  C   UNL     1       4.865   4.901  19.221  0.00  0.00    +0.000 A 
ENDROOT
BRANCH   1  12
ATOM     11  C   UNL     1       2.340   3.869  20.457  0.00  0.00    +0.000 C 
ATOM     12  C   UNL     1       2.489   4.130  19.146  0.00  0.00    +0.000 C 
ATOM     13  C   UNL     1       1.513   3.556  18.149  0.00  0.00    +0.000 C 
ATOM     14  C   UNL     1       0.783   2.338  18.729  0.00  0.00    +0.000 C 
ATOM     15  N   UNL     1       0.214   2.632  20.046  0.00  0.00    +0.000 NA
ATOM     16  C   UNL     1       1.238   3.023  21.015  0.00  0.00    +0.000 C 
ATOM     17  H   UNL     1      -0.268   1.809  20.398  0.00  0.00    +0.000 HD
ENDBRANCH   1  12
TORSDOF 1
ENDMDL
MODEL 6
REMARK VINA RESULT:      -7.0      1.811      2.782
REMARK  Name = 
REMARK  1 active torsions:
REMARK  status: ('A' for Active; 'I' for Inactive)
REMARK    1  A    between atoms: C_2  and  C_3
REMARK                            x       y       z     vdW  Elec       q    Type
REMARK                         _______ _______ _______ _____ _____    ______ ____
ROOT
ATOM      1  C   UNL     1       5.444   4.721  16.590  0.00  0.00    +0.000 A 
ATOM      2  C   UNL     1       6.560   5.549  16.535  0.00  0.00    +0.000 A 
ATOM      3  N   UNL     1       7.345   5.707  15.444  0.00  0.00    +0.000 NA
ATOM      4  C   UNL     1       7.026   5.021  14.334  0.00  0.00    +0.000 A 
ATOM      5  C   UNL     1       7.809   5.148  13.200  0.00  0.00    +0.000 A 
ATOM      6  C   UNL     1       7.518   4.459  12.020  0.00  0.00    +0.000 A 
ATOM      7  C   UNL     1       6.413   3.616  11.965  0.00  0.00    +0.000 A 
ATOM      8  C   UNL     1       5.608   3.467  13.091  0.00  0.00    +0.000 A 
ATOM      9  C   UNL     1       5.906   4.159  14.274  0.00  0.00    +0.000 A 
ATOM     10  C   UNL     1       5.121   4.030  15.420  0.00  0.00    +0.000 A 
ENDROOT
BRANCH   1  12
ATOM     11  C   UNL     1       4.331   5.656  18.563  0.00  0.00    +0.000 C 
ATOM     12  C   UNL     1       4.634   4.586  17.807  0.00  0.00    +0.000 C 
ATOM     13  C   UNL     1       4.132   3.219  18.205  0.00  0.00    +0.000 C 
ATOM     14  C   UNL     1       3.771   3.175  19.695  0.00  0.00    +0.000 C 
ATOM     15  N   UNL     1       2.890   4.284  20.065  0.00  0.00    +0.000 NA
ATOM     16  C   UNL     1       3.504   5.587  19.809  0.00  0.00    +0.000 C 
ATOM     17  H   UNL     1       2.664   4.221  21.054  0.00  0.00    +0.000 HD
ENDBRANCH   1  12
TORSDOF 1
ENDMDL
MODEL 7
REMARK VINA RESULT:      -6.9      1.443      6.335
REMARK  Name = 
REMARK  1 active torsions:
REMARK  status: ('A' for Active; 'I' for Inactive)
REMARK    1  A    between atoms: C_2  and  C_3
REMARK                            x       y       z     vdW  Elec       q    Type
REMARK                         _______ _______ _______ _____ _____    ______ ____
ROOT
ATOM      1  C   UNL     1       4.100   4.117  17.406  0.00  0.00    +0.000 A 
ATOM      2  C   UNL     1       2.927   3.634  16.835  0.00  0.00    +0.000 A 
ATOM      3  N   UNL     1       1.853   3.204  17.538  0.00  0.00    +0.000 NA
ATOM      4  C   UNL     1       1.919   3.246  18.879  0.00  0.00    +0.000 A 
ATOM      5  C   UNL     1       0.846   2.807  19.633  0.00  0.00    +0.000 A 
ATOM      6  C   UNL     1       0.864   2.834  21.030  0.00  0.00    +0.000 A 
ATOM      7  C   UNL     1       1.986   3.314  21.699  0.00  0.00    +0.000 A 
ATOM      8  C   UNL     1       3.081   3.761  20.966  0.00  0.00    +0.000 A 
ATOM      9  C   UNL     1       3.059   3.730  19.564  0.00  0.00    +0.000 A 
ATOM     10  C   UNL     1       4.141   4.169  18.801  0.00  0.00    +0.000 A 
ENDROOT
BRANCH   1  12
ATOM     11  C   UNL     1       5.549   3.948  15.437  0.00  0.00    +0.000 C 
ATOM     12  C   UNL     1       5.235   4.565  16.589  0.00  0.00    +0.000 C 
ATOM     13  C   UNL     1       6.052   5.745  17.057  0.00  0.00    +0.000 C 
ATOM     14  C   UNL     1       7.439   5.751  16.400  0.00  0.00    +0.000 C 
ATOM     15  N   UNL     1       7.343   5.608  14.947  0.00  0.00    +0.000 NA
ATOM     16  C   UNL     1       6.688   4.360  14.556  0.00  0.00    +0.000 C 
ATOM     17  H   UNL     1       8.277   5.624  14.543  0.00  0.00    +0.000 HD
ENDBRANCH   1  12
TORSDOF 1
ENDMDL
MODEL 8
REMARK VINA RESULT:      -6.9      0.706      1.253
REMARK  Name = 
REMARK  1 active torsions:
REMARK  status: ('A' for Active; 'I' for Inactive)
REMARK    1  A    between atoms: C_2  and  C_3
REMARK                            x       y       z     vdW  Elec       q    Type
REMARK                         _______ _______ _______ _____ _____    ______ ____
ROOT
ATOM      1  C   UNL     1       3.972   4.189  18.040  0.00  0.00    +0.000 A 
ATOM      2  C   UNL     1       5.075   4.815  18.610  0.00  0.00    +0.000 A 
ATOM      3  N   UNL     1       6.196   5.159  17.934  0.00  0.00    +0.000 NA
ATOM      4  C   UNL     1       6.249   4.881  16.621  0.00  0.00    +0.000 A 
ATOM      5  C   UNL     1       7.382   5.209  15.896  0.00  0.00    +0.000 A 
ATOM      6  C   UNL     1       7.485   4.944  14.527  0.00  0.00    +0.000 A 
ATOM      7  C   UNL     1       6.428   4.335  13.858  0.00  0.00    +0.000 A 
ATOM      8  C   UNL     1       5.277   3.993  14.562  0.00  0.00    +0.000 A 
ATOM      9  C   UNL     1       5.180   4.258  15.936  0.00  0.00    +0.000 A 
ATOM     10  C   UNL     1       4.041   3.926  16.671  0.00  0.00    +0.000 A 
ENDROOT
BRANCH   1  12
ATOM     11  C   UNL     1       1.838   3.019  18.333  0.00  0.00    +0.000 C 
ATOM     12  C   UNL     1       2.784   3.835  18.829  0.00  0.00    +0.000 C 
ATOM     13  C   UNL     1       2.638   4.398  20.222  0.00  0.00    +0.000 C 
ATOM     14  C   UNL     1       1.174   4.360  20.682  0.00  0.00    +0.000 C 
ATOM     15  N   UNL     1       0.588   3.032  20.490  0.00  0.00    +0.000 NA
ATOM     16  C   UNL     1       0.610   2.615  19.088  0.00  0.00    +0.000 C 
ATOM     17  H   UNL     1      -0.377   3.039  20.811  0.00  0.00    +0.000 HD
ENDBRANCH   1  12
TORSDOF 1
ENDMDL
MODEL 9
REMARK VINA RESULT:      -6.9      1.439      6.261
REMARK  Name = 
REMARK  1 active torsions:
REMARK  status: ('A' for Active; 'I' for Inactive)
REMARK    1  A    between atoms: C_2  and  C_3
REMARK                            x       y       z     vdW  Elec       q    Type
REMARK                         _______ _______ _______ _____ _____    ______ ____
ROOT
ATOM      1  C   UNL     1       4.144   4.150  17.459  0.00  0.00    +0.000 A 
ATOM      2  C   UNL     1       2.986   3.665  16.861  0.00  0.00    +0.000 A 
ATOM      3  N   UNL     1       1.904   3.214  17.539  0.00  0.00    +0.000 NA
ATOM      4  C   UNL     1       1.947   3.238  18.881  0.00  0.00    +0.000 A 
ATOM      5  C   UNL     1       0.865   2.777  19.610  0.00  0.00    +0.000 A 
ATOM      6  C   UNL     1       0.859   2.784  21.008  0.00  0.00    +0.000 A 
ATOM      7  C   UNL     1       1.964   3.265  21.702  0.00  0.00    +0.000 A 
ATOM      8  C   UNL     1       3.068   3.733  20.995  0.00  0.00    +0.000 A 
ATOM      9  C   UNL     1       3.070   3.722  19.593  0.00  0.00    +0.000 A 
ATOM     10  C   UNL     1       4.161   4.182  18.855  0.00  0.00    +0.000 A 
ENDROOT
BRANCH   1  12
ATOM     11  C   UNL     1       6.011   5.686  17.056  0.00  0.00    +0.000 C 
ATOM     12  C   UNL     1       5.289   4.621  16.668  0.00  0.00    +0.000 C 
ATOM     13  C   UNL     1       5.656   3.884  15.402  0.00  0.00    +0.000 C 
ATOM     14  C   UNL     1       6.496   4.769  14.472  0.00  0.00    +0.000 C 
ATOM     15  N   UNL     1       7.626   5.371  15.183  0.00  0.00    +0.000 NA
ATOM     16  C   UNL     1       7.192   6.210  16.300  0.00  0.00    +0.000 C 
ATOM     17  H   UNL     1       8.164   5.943  14.538  0.00  0.00    +0.000 HD
ENDBRANCH   1  12
TORSDOF 1
ENDMDL
