MODEL 1
REMARK VINA RESULT:      -9.2      0.000      0.000
REMARK  Name = 
REMARK  7 active torsions:
REMARK  status: ('A' for Active; 'I' for Inactive)
REMARK    1  A    between atoms: C_2  and  C_3
REMARK    2  A    between atoms: C_3  and  S_4
REMARK    3  A    between atoms: S_4  and  C_5
REMARK    4  A    between atoms: N_15  and  C_16
REMARK    5  A    between atoms: C_16  and  C_17
REMARK    6  A    between atoms: N_22  and  C_23
REMARK    7  A    between atoms: C_23  and  C_24
REMARK                            x       y       z     vdW  Elec       q    Type
REMARK                         _______ _______ _______ _____ _____    ______ ____
ROOT
ATOM      1  C   UNL     1       5.522   4.850  18.559  0.00  0.00    +0.000 A 
ATOM      2  N   UNL     1       5.150   4.080  19.525  0.00  0.00    +0.000 NA
ATOM      3  C   UNL     1       3.789   3.833  19.700  0.00  0.00    +0.000 A 
ATOM      4  C   UNL     1       3.404   2.787  20.538  0.00  0.00    +0.000 A 
ATOM      5  C   UNL     1       2.092   2.305  20.520  0.00  0.00    +0.000 A 
ATOM      6  C   UNL     1       1.135   2.907  19.698  0.00  0.00    +0.000 A 
ATOM      7  C   UNL     1       1.485   4.016  18.932  0.00  0.00    +0.000 A 
ATOM      8  C   UNL     1       2.804   4.463  18.940  0.00  0.00    +0.000 A 
ATOM      9  C   UNL     1       3.247   5.532  18.045  0.00  0.00    +0.000 A 
ATOM     10  O   UNL     1       2.396   6.278  17.535  0.00  0.00    +0.000 OA
ATOM     11  N   UNL     1       4.619   5.594  17.789  0.00  0.00    +0.000 N 
ENDROOT
BRANCH   1  12
ATOM     12  S   UNL     1       7.226   4.854  18.158  0.00  0.00    +0.000 S 
BRANCH  12  13
ATOM     13  C   UNL     1       7.988   6.274  18.991  0.00  0.00    +0.000 C 
BRANCH  13  15
ATOM     14  O   UNL     1       7.774   7.690  17.063  0.00  0.00    +0.000 OA
ATOM     15  C   UNL     1       8.178   7.597  18.230  0.00  0.00    +0.000 C 
ATOM     16  N   UNL     1       8.710   8.661  18.883  0.00  0.00    +0.000 N 
ATOM     17  H   UNL     1       9.080   8.509  19.815  0.00  0.00    +0.000 HD
BRANCH  16  18
ATOM     18  C   UNL     1       8.928   9.976  18.266  0.00  0.00    +0.000 C 
BRANCH  18  19
ATOM     19  C   UNL     1       9.689  10.867  19.217  0.00  0.00    +0.000 A 
ATOM     20  C   UNL     1      10.686  11.748  18.727  0.00  0.00    +0.000 A 
ATOM     21  C   UNL     1      11.102  12.847  19.486  0.00  0.00    +0.000 A 
ATOM     22  C   UNL     1      10.489  13.028  20.703  0.00  0.00    +0.000 A 
ATOM     23  C   UNL     1       9.635  12.089  21.241  0.00  0.00    +0.000 A 
ATOM     24  C   UNL     1       9.243  10.976  20.542  0.00  0.00    +0.000 A 
ATOM     25  O   UNL     1       9.081  12.513  22.413  0.00  0.00    +0.000 OA
ATOM     26  C   UNL     1       9.318  13.923  22.249  0.00  0.00    +0.000 C 
ATOM     27  O   UNL     1      10.496  14.176  21.447  0.00  0.00    +0.000 OA
ENDBRANCH  18  19
ENDBRANCH  16  18
ENDBRANCH  13  15
ENDBRANCH  12  13
ENDBRANCH   1  12
BRANCH  11  28
ATOM     28  C   UNL     1       4.979   6.516  16.680  0.00  0.00    +0.000 C 
BRANCH  28  29
ATOM     29  C   UNL     1       5.212   5.814  15.323  0.00  0.00    +0.000 C 
ATOM     30  C   UNL     1       4.908   4.327  15.201  0.00  0.00    +0.000 C 
ATOM     31  C   UNL     1       6.077   3.734  14.452  0.00  0.00    +0.000 C 
ATOM     32  C   UNL     1       7.109   4.831  14.362  0.00  0.00    +0.000 C 
ATOM     33  O   UNL     1       6.569   6.018  14.923  0.00  0.00    +0.000 OA
ENDBRANCH  28  29
ENDBRANCH  11  28
TORSDOF 7
ENDMDL
MODEL 2
REMARK VINA RESULT:      -9.1      1.249      1.477
REMARK  Name = 
REMARK  7 active torsions:
REMARK  status: ('A' for Active; 'I' for Inactive)
REMARK    1  A    between atoms: C_2  and  C_3
REMARK    2  A    between atoms: C_3  and  S_4
REMARK    3  A    between atoms: S_4  and  C_5
REMARK    4  A    between atoms: N_15  and  C_16
REMARK    5  A    between atoms: C_16  and  C_17
REMARK    6  A    between atoms: N_22  and  C_23
REMARK    7  A    between atoms: C_23  and  C_24
REMARK                            x       y       z     vdW  Elec       q    Type
REMARK                         _______ _______ _______ _____ _____    ______ ____
ROOT
ATOM      1  C   UNL     1       5.549   4.661  18.090  0.00  0.00    +0.000 A 
ATOM      2  N   UNL     1       4.941   5.223  19.080  0.00  0.00    +0.000 NA
ATOM      3  C   UNL     1       3.587   4.954  19.275  0.00  0.00    +0.000 A 
ATOM      4  C   UNL     1       3.004   5.313  20.490  0.00  0.00    +0.000 A 
ATOM      5  C   UNL     1       1.753   4.811  20.858  0.00  0.00    +0.000 A 
ATOM      6  C   UNL     1       1.045   3.983  19.982  0.00  0.00    +0.000 A 
ATOM      7  C   UNL     1       1.573   3.699  18.725  0.00  0.00    +0.000 A 
ATOM      8  C   UNL     1       2.834   4.184  18.389  0.00  0.00    +0.000 A 
ATOM      9  C   UNL     1       3.488   3.795  17.139  0.00  0.00    +0.000 A 
ATOM     10  O   UNL     1       2.795   3.324  16.222  0.00  0.00    +0.000 OA
ATOM     11  N   UNL     1       4.876   3.937  17.097  0.00  0.00    +0.000 N 
ENDROOT
BRANCH   1  12
ATOM     12  S   UNL     1       7.297   4.740  18.085  0.00  0.00    +0.000 S 
BRANCH  12  13
ATOM     13  C   UNL     1       7.784   6.309  18.853  0.00  0.00    +0.000 C 
BRANCH  13  15
ATOM     14  O   UNL     1       7.750   7.499  16.767  0.00  0.00    +0.000 OA
ATOM     15  C   UNL     1       7.999   7.556  17.979  0.00  0.00    +0.000 C 
ATOM     16  N   UNL     1       8.381   8.716  18.570  0.00  0.00    +0.000 N 
ATOM     17  H   UNL     1       8.632   8.688  19.552  0.00  0.00    +0.000 HD
BRANCH  16  18
ATOM     18  C   UNL     1       8.606   9.971  17.841  0.00  0.00    +0.000 C 
BRANCH  18  19
ATOM     19  C   UNL     1       9.607  10.822  18.586  0.00  0.00    +0.000 A 
ATOM     20  C   UNL     1      10.530  11.627  17.873  0.00  0.00    +0.000 A 
ATOM     21  C   UNL     1      11.165  12.707  18.497  0.00  0.00    +0.000 A 
ATOM     22  C   UNL     1      10.837  12.945  19.810  0.00  0.00    +0.000 A 
ATOM     23  C   UNL     1      10.059  12.072  20.542  0.00  0.00    +0.000 A 
ATOM     24  C   UNL     1       9.460  10.978  19.971  0.00  0.00    +0.000 A 
ATOM     25  O   UNL     1       9.795  12.548  21.792  0.00  0.00    +0.000 OA
ATOM     26  C   UNL     1      10.079  13.936  21.543  0.00  0.00    +0.000 C 
ATOM     27  O   UNL     1      11.074  14.099  20.504  0.00  0.00    +0.000 OA
ENDBRANCH  18  19
ENDBRANCH  16  18
ENDBRANCH  13  15
ENDBRANCH  12  13
ENDBRANCH   1  12
BRANCH  11  28
ATOM     28  C   UNL     1       5.510   3.285  15.921  0.00  0.00    +0.000 C 
BRANCH  28  29
ATOM     29  C   UNL     1       5.663   4.207  14.691  0.00  0.00    +0.000 C 
ATOM     30  C   UNL     1       5.566   3.598  13.298  0.00  0.00    +0.000 C 
ATOM     31  C   UNL     1       6.701   4.208  12.510  0.00  0.00    +0.000 C 
ATOM     32  C   UNL     1       7.540   4.964  13.511  0.00  0.00    +0.000 C 
ATOM     33  O   UNL     1       6.910   4.898  14.782  0.00  0.00    +0.000 OA
ENDBRANCH  28  29
ENDBRANCH  11  28
TORSDOF 7
ENDMDL
MODEL 3
REMARK VINA RESULT:      -8.9      5.646      8.570
REMARK  Name = 
REMARK  7 active torsions:
REMARK  status: ('A' for Active; 'I' for Inactive)
REMARK    1  A    between atoms: C_2  and  C_3
REMARK    2  A    between atoms: C_3  and  S_4
REMARK    3  A    between atoms: S_4  and  C_5
REMARK    4  A    between atoms: N_15  and  C_16
REMARK    5  A    between atoms: C_16  and  C_17
REMARK    6  A    between atoms: N_22  and  C_23
REMARK    7  A    between atoms: C_23  and  C_24
REMARK                            x       y       z     vdW  Elec       q    Type
REMARK                         _______ _______ _______ _____ _____    ______ ____
ROOT
ATOM      1  C   UNL     1       3.248   6.274  18.351  0.00  0.00    +0.000 A 
ATOM      2  N   UNL     1       2.163   5.745  18.808  0.00  0.00    +0.000 NA
ATOM      3  C   UNL     1       2.251   4.560  19.537  0.00  0.00    +0.000 A 
ATOM      4  C   UNL     1       1.142   4.148  20.275  0.00  0.00    +0.000 A 
ATOM      5  C   UNL     1       1.262   3.150  21.246  0.00  0.00    +0.000 A 
ATOM      6  C   UNL     1       2.489   2.514  21.450  0.00  0.00    +0.000 A 
ATOM      7  C   UNL     1       3.579   2.849  20.650  0.00  0.00    +0.000 A 
ATOM      8  C   UNL     1       3.448   3.866  19.708  0.00  0.00    +0.000 A 
ATOM      9  C   UNL     1       4.601   4.347  18.946  0.00  0.00    +0.000 A 
ATOM     10  O   UNL     1       5.613   3.630  18.874  0.00  0.00    +0.000 OA
ATOM     11  N   UNL     1       4.488   5.625  18.395  0.00  0.00    +0.000 N 
ENDROOT
BRANCH   1  12
ATOM     12  S   UNL     1       3.140   7.917  17.755  0.00  0.00    +0.000 S 
BRANCH  12  13
ATOM     13  C   UNL     1       1.402   8.427  17.847  0.00  0.00    +0.000 C 
BRANCH  13  15
ATOM     14  O   UNL     1       1.914  10.740  18.243  0.00  0.00    +0.000 OA
ATOM     15  C   UNL     1       1.046   9.858  18.285  0.00  0.00    +0.000 C 
ATOM     16  N   UNL     1      -0.236  10.141  18.630  0.00  0.00    +0.000 N 
ATOM     17  H   UNL     1      -0.888   9.368  18.707  0.00  0.00    +0.000 HD
BRANCH  16  18
ATOM     18  C   UNL     1      -0.696  11.470  19.052  0.00  0.00    +0.000 C 
BRANCH  18  19
ATOM     19  C   UNL     1      -2.078  11.731  18.501  0.00  0.00    +0.000 A 
ATOM     20  C   UNL     1      -2.421  11.291  17.198  0.00  0.00    +0.000 A 
ATOM     21  C   UNL     1      -3.762  11.143  16.825  0.00  0.00    +0.000 A 
ATOM     22  C   UNL     1      -4.706  11.428  17.782  0.00  0.00    +0.000 A 
ATOM     23  C   UNL     1      -4.375  12.000  18.993  0.00  0.00    +0.000 A 
ATOM     24  C   UNL     1      -3.072  12.201  19.370  0.00  0.00    +0.000 A 
ATOM     25  O   UNL     1      -5.457  12.118  19.816  0.00  0.00    +0.000 OA
ATOM     26  C   UNL     1      -6.307  11.154  19.169  0.00  0.00    +0.000 C 
ATOM     27  O   UNL     1      -6.021  11.055  17.754  0.00  0.00    +0.000 OA
ENDBRANCH  18  19
ENDBRANCH  16  18
ENDBRANCH  13  15
ENDBRANCH  12  13
ENDBRANCH   1  12
BRANCH  11  28
ATOM     28  C   UNL     1       5.769   6.165  17.868  0.00  0.00    +0.000 C 
BRANCH  28  29
ATOM     29  C   UNL     1       5.906   6.085  16.331  0.00  0.00    +0.000 C 
ATOM     30  C   UNL     1       5.016   5.118  15.562  0.00  0.00    +0.000 C 
ATOM     31  C   UNL     1       5.924   4.432  14.569  0.00  0.00    +0.000 C 
ATOM     32  C   UNL     1       7.327   4.850  14.937  0.00  0.00    +0.000 C 
ATOM     33  O   UNL     1       7.265   5.787  16.002  0.00  0.00    +0.000 OA
ENDBRANCH  28  29
ENDBRANCH  11  28
TORSDOF 7
ENDMDL
MODEL 4
REMARK VINA RESULT:      -8.9      5.696      8.464
REMARK  Name = 
REMARK  7 active torsions:
REMARK  status: ('A' for Active; 'I' for Inactive)
REMARK    1  A    between atoms: C_2  and  C_3
REMARK    2  A    between atoms: C_3  and  S_4
REMARK    3  A    between atoms: S_4  and  C_5
REMARK    4  A    between atoms: N_15  and  C_16
REMARK    5  A    between atoms: C_16  and  C_17
REMARK    6  A    between atoms: N_22  and  C_23
REMARK    7  A    between atoms: C_23  and  C_24
REMARK                            x       y       z     vdW  Elec       q    Type
REMARK                         _______ _______ _______ _____ _____    ______ ____
ROOT
ATOM      1  C   UNL     1       3.334   6.174  18.372  0.00  0.00    +0.000 A 
ATOM      2  N   UNL     1       2.232   5.728  18.873  0.00  0.00    +0.000 NA
ATOM      3  C   UNL     1       2.259   4.539  19.600  0.00  0.00    +0.000 A 
ATOM      4  C   UNL     1       1.151   4.210  20.382  0.00  0.00    +0.000 A 
ATOM      5  C   UNL     1       1.234   3.205  21.349  0.00  0.00    +0.000 A 
ATOM      6  C   UNL     1       2.417   2.478  21.505  0.00  0.00    +0.000 A 
ATOM      7  C   UNL     1       3.496   2.730  20.661  0.00  0.00    +0.000 A 
ATOM      8  C   UNL     1       3.405   3.755  19.724  0.00  0.00    +0.000 A 
ATOM      9  C   UNL     1       4.560   4.149  18.916  0.00  0.00    +0.000 A 
ATOM     10  O   UNL     1       5.511   3.358  18.805  0.00  0.00    +0.000 OA
ATOM     11  N   UNL     1       4.522   5.433  18.368  0.00  0.00    +0.000 N 
ENDROOT
BRANCH   1  12
ATOM     12  S   UNL     1       3.327   7.821  17.779  0.00  0.00    +0.000 S 
BRANCH  12  13
ATOM     13  C   UNL     1       1.604   8.385  17.729  0.00  0.00    +0.000 C 
BRANCH  13  15
ATOM     14  O   UNL     1       2.171  10.695  18.064  0.00  0.00    +0.000 OA
ATOM     15  C   UNL     1       1.268   9.848  18.062  0.00  0.00    +0.000 C 
ATOM     16  N   UNL     1      -0.028  10.195  18.267  0.00  0.00    +0.000 N 
ATOM     17  H   UNL     1      -0.716   9.451  18.316  0.00  0.00    +0.000 HD
BRANCH  16  18
ATOM     18  C   UNL     1      -0.472  11.560  18.579  0.00  0.00    +0.000 C 
BRANCH  18  19
ATOM     19  C   UNL     1      -1.946  11.556  18.906  0.00  0.00    +0.000 A 
ATOM     20  C   UNL     1      -2.435  12.301  20.009  0.00  0.00    +0.000 A 
ATOM     21  C   UNL     1      -3.787  12.651  20.090  0.00  0.00    +0.000 A 
ATOM     22  C   UNL     1      -4.594  12.252  19.052  0.00  0.00    +0.000 A 
ATOM     23  C   UNL     1      -4.149  11.400  18.062  0.00  0.00    +0.000 A 
ATOM     24  C   UNL     1      -2.840  11.001  17.980  0.00  0.00    +0.000 A 
ATOM     25  O   UNL     1      -5.091  11.206  17.094  0.00  0.00    +0.000 OA
ATOM     26  C   UNL     1      -5.901  12.362  17.367  0.00  0.00    +0.000 C 
ATOM     27  O   UNL     1      -5.837  12.742  18.762  0.00  0.00    +0.000 OA
ENDBRANCH  18  19
ENDBRANCH  16  18
ENDBRANCH  13  15
ENDBRANCH  12  13
ENDBRANCH   1  12
BRANCH  11  28
ATOM     28  C   UNL     1       5.818   5.875  17.789  0.00  0.00    +0.000 C 
BRANCH  28  29
ATOM     29  C   UNL     1       5.877   5.815  16.247  0.00  0.00    +0.000 C 
ATOM     30  C   UNL     1       5.120   4.709  15.523  0.00  0.00    +0.000 C 
ATOM     31  C   UNL     1       6.072   4.186  14.474  0.00  0.00    +0.000 C 
ATOM     32  C   UNL     1       7.403   4.836  14.763  0.00  0.00    +0.000 C 
ATOM     33  O   UNL     1       7.245   5.752  15.837  0.00  0.00    +0.000 OA
ENDBRANCH  28  29
ENDBRANCH  11  28
TORSDOF 7
ENDMDL
MODEL 5
REMARK VINA RESULT:      -8.7      6.076      9.183
REMARK  Name = 
REMARK  7 active torsions:
REMARK  status: ('A' for Active; 'I' for Inactive)
REMARK    1  A    between atoms: C_2  and  C_3
REMARK    2  A    between atoms: C_3  and  S_4
REMARK    3  A    between atoms: S_4  and  C_5
REMARK    4  A    between atoms: N_15  and  C_16
REMARK    5  A    between atoms: C_16  and  C_17
REMARK    6  A    between atoms: N_22  and  C_23
REMARK    7  A    between atoms: C_23  and  C_24
REMARK                            x       y       z     vdW  Elec       q    Type
REMARK                         _______ _______ _______ _____ _____    ______ ____
ROOT
ATOM      1  C   UNL     1      -0.034  10.550  18.395  0.00  0.00    +0.000 A 
ATOM      2  N   UNL     1      -0.744   9.973  17.485  0.00  0.00    +0.000 NA
ATOM      3  C   UNL     1      -2.082  10.340  17.345  0.00  0.00    +0.000 A 
ATOM      4  C   UNL     1      -2.764   9.946  16.194  0.00  0.00    +0.000 A 
ATOM      5  C   UNL     1      -3.991  10.524  15.860  0.00  0.00    +0.000 A 
ATOM      6  C   UNL     1      -4.576  11.469  16.708  0.00  0.00    +0.000 A 
ATOM      7  C   UNL     1      -3.951  11.795  17.909  0.00  0.00    +0.000 A 
ATOM      8  C   UNL     1      -2.715  11.231  18.211  0.00  0.00    +0.000 A 
ATOM      9  C   UNL     1      -1.957  11.651  19.390  0.00  0.00    +0.000 A 
ATOM     10  O   UNL     1      -2.553  12.242  20.305  0.00  0.00    +0.000 OA
ATOM     11  N   UNL     1      -0.584  11.396  19.365  0.00  0.00    +0.000 N 
ENDROOT
BRANCH   1  12
ATOM     12  S   UNL     1       1.700  10.325  18.310  0.00  0.00    +0.000 S 
BRANCH  12  13
ATOM     13  C   UNL     1       2.013   8.744  17.479  0.00  0.00    +0.000 C 
BRANCH  13  15
ATOM     14  O   UNL     1       2.459   7.580  19.532  0.00  0.00    +0.000 OA
ATOM     15  C   UNL     1       2.263   7.476  18.314  0.00  0.00    +0.000 C 
ATOM     16  N   UNL     1       2.181   6.264  17.710  0.00  0.00    +0.000 N 
ATOM     17  H   UNL     1       2.080   6.242  16.701  0.00  0.00    +0.000 HD
BRANCH  16  18
ATOM     18  C   UNL     1       2.387   4.987  18.406  0.00  0.00    +0.000 C 
BRANCH  18  19
ATOM     19  C   UNL     1       3.831   4.565  18.282  0.00  0.00    +0.000 A 
ATOM     20  C   UNL     1       4.350   4.153  17.028  0.00  0.00    +0.000 A 
ATOM     21  C   UNL     1       5.729   4.160  16.790  0.00  0.00    +0.000 A 
ATOM     22  C   UNL     1       6.534   4.594  17.816  0.00  0.00    +0.000 A 
ATOM     23  C   UNL     1       6.039   4.846  19.079  0.00  0.00    +0.000 A 
ATOM     24  C   UNL     1       4.698   4.803  19.358  0.00  0.00    +0.000 A 
ATOM     25  O   UNL     1       6.999   5.343  19.913  0.00  0.00    +0.000 OA
ATOM     26  C   UNL     1       7.928   5.787  18.908  0.00  0.00    +0.000 C 
ATOM     27  O   UNL     1       7.839   4.984  17.707  0.00  0.00    +0.000 OA
ENDBRANCH  18  19
ENDBRANCH  16  18
ENDBRANCH  13  15
ENDBRANCH  12  13
ENDBRANCH   1  12
BRANCH  11  28
ATOM     28  C   UNL     1       0.170  12.074  20.452  0.00  0.00    +0.000 C 
BRANCH  28  29
ATOM     29  C   UNL     1       0.416  11.195  21.698  0.00  0.00    +0.000 C 
ATOM     30  C   UNL     1       0.323   9.681  21.560  0.00  0.00    +0.000 C 
ATOM     31  C   UNL     1      -0.473   9.212  22.755  0.00  0.00    +0.000 C 
ATOM     32  C   UNL     1      -0.999  10.463  23.416  0.00  0.00    +0.000 C 
ATOM     33  O   UNL     1      -0.483  11.596  22.734  0.00  0.00    +0.000 OA
ENDBRANCH  28  29
ENDBRANCH  11  28
TORSDOF 7
ENDMDL
MODEL 6
REMARK VINA RESULT:      -8.7      4.822      5.682
REMARK  Name = 
REMARK  7 active torsions:
REMARK  status: ('A' for Active; 'I' for Inactive)
REMARK    1  A    between atoms: C_2  and  C_3
REMARK    2  A    between atoms: C_3  and  S_4
REMARK    3  A    between atoms: S_4  and  C_5
REMARK    4  A    between atoms: N_15  and  C_16
REMARK    5  A    between atoms: C_16  and  C_17
REMARK    6  A    between atoms: N_22  and  C_23
REMARK    7  A    between atoms: C_23  and  C_24
REMARK                            x       y       z     vdW  Elec       q    Type
REMARK                         _______ _______ _______ _____ _____    ______ ____
ROOT
ATOM      1  C   UNL     1       3.321   6.202  18.352  0.00  0.00    +0.000 A 
ATOM      2  N   UNL     1       2.224   5.754  18.863  0.00  0.00    +0.000 NA
ATOM      3  C   UNL     1       2.259   4.566  19.591  0.00  0.00    +0.000 A 
ATOM      4  C   UNL     1       1.159   4.237  20.383  0.00  0.00    +0.000 A 
ATOM      5  C   UNL     1       1.252   3.233  21.350  0.00  0.00    +0.000 A 
ATOM      6  C   UNL     1       2.438   2.508  21.497  0.00  0.00    +0.000 A 
ATOM      7  C   UNL     1       3.509   2.761  20.644  0.00  0.00    +0.000 A 
ATOM      8  C   UNL     1       3.408   3.785  19.706  0.00  0.00    +0.000 A 
ATOM      9  C   UNL     1       4.556   4.179  18.888  0.00  0.00    +0.000 A 
ATOM     10  O   UNL     1       5.507   3.390  18.770  0.00  0.00    +0.000 OA
ATOM     11  N   UNL     1       4.510   5.462  18.339  0.00  0.00    +0.000 N 
ENDROOT
BRANCH   1  12
ATOM     12  S   UNL     1       3.306   7.848  17.757  0.00  0.00    +0.000 S 
BRANCH  12  13
ATOM     13  C   UNL     1       1.586   8.422  17.757  0.00  0.00    +0.000 C 
BRANCH  13  15
ATOM     14  O   UNL     1       1.216   9.310  19.958  0.00  0.00    +0.000 OA
ATOM     15  C   UNL     1       1.145   9.520  18.740  0.00  0.00    +0.000 C 
ATOM     16  N   UNL     1       0.766  10.728  18.250  0.00  0.00    +0.000 N 
ATOM     17  H   UNL     1       0.667  10.822  17.245  0.00  0.00    +0.000 HD
BRANCH  16  18
ATOM     18  C   UNL     1       0.337  11.854  19.089  0.00  0.00    +0.000 C 
BRANCH  18  19
ATOM     19  C   UNL     1       1.005  13.124  18.618  0.00  0.00    +0.000 A 
ATOM     20  C   UNL     1       0.379  14.379  18.826  0.00  0.00    +0.000 A 
ATOM     21  C   UNL     1       1.123  15.563  18.789  0.00  0.00    +0.000 A 
ATOM     22  C   UNL     1       2.473  15.440  18.557  0.00  0.00    +0.000 A 
ATOM     23  C   UNL     1       3.049  14.237  18.204  0.00  0.00    +0.000 A 
ATOM     24  C   UNL     1       2.337  13.066  18.187  0.00  0.00    +0.000 A 
ATOM     25  O   UNL     1       4.407  14.332  18.105  0.00  0.00    +0.000 OA
ATOM     26  C   UNL     1       4.582  15.533  18.877  0.00  0.00    +0.000 C 
ATOM     27  O   UNL     1       3.422  16.394  18.794  0.00  0.00    +0.000 OA
ENDBRANCH  18  19
ENDBRANCH  16  18
ENDBRANCH  13  15
ENDBRANCH  12  13
ENDBRANCH   1  12
BRANCH  11  28
ATOM     28  C   UNL     1       5.801   5.906  17.748  0.00  0.00    +0.000 C 
BRANCH  28  29
ATOM     29  C   UNL     1       5.844   5.853  16.205  0.00  0.00    +0.000 C 
ATOM     30  C   UNL     1       5.070   4.757  15.484  0.00  0.00    +0.000 C 
ATOM     31  C   UNL     1       6.007   4.229  14.424  0.00  0.00    +0.000 C 
ATOM     32  C   UNL     1       7.346   4.866  14.703  0.00  0.00    +0.000 C 
ATOM     33  O   UNL     1       7.207   5.779  15.781  0.00  0.00    +0.000 OA
ENDBRANCH  28  29
ENDBRANCH  11  28
TORSDOF 7
ENDMDL
MODEL 7
REMARK VINA RESULT:      -8.6      5.170      8.953
REMARK  Name = 
REMARK  7 active torsions:
REMARK  status: ('A' for Active; 'I' for Inactive)
REMARK    1  A    between atoms: C_2  and  C_3
REMARK    2  A    between atoms: C_3  and  S_4
REMARK    3  A    between atoms: S_4  and  C_5
REMARK    4  A    between atoms: N_15  and  C_16
REMARK    5  A    between atoms: C_16  and  C_17
REMARK    6  A    between atoms: N_22  and  C_23
REMARK    7  A    between atoms: C_23  and  C_24
REMARK                            x       y       z     vdW  Elec       q    Type
REMARK                         _______ _______ _______ _____ _____    ______ ____
ROOT
ATOM      1  C   UNL     1       3.731   5.502  18.571  0.00  0.00    +0.000 A 
ATOM      2  N   UNL     1       4.948   5.865  18.339  0.00  0.00    +0.000 NA
ATOM      3  C   UNL     1       5.642   5.254  17.296  0.00  0.00    +0.000 A 
ATOM      4  C   UNL     1       6.830   5.837  16.855  0.00  0.00    +0.000 A 
ATOM      5  C   UNL     1       7.405   5.452  15.641  0.00  0.00    +0.000 A 
ATOM      6  C   UNL     1       6.822   4.436  14.880  0.00  0.00    +0.000 A 
ATOM      7  C   UNL     1       5.692   3.779  15.359  0.00  0.00    +0.000 A 
ATOM      8  C   UNL     1       5.116   4.196  16.556  0.00  0.00    +0.000 A 
ATOM      9  C   UNL     1       3.851   3.631  17.026  0.00  0.00    +0.000 A 
ATOM     10  O   UNL     1       3.467   2.548  16.556  0.00  0.00    +0.000 OA
ATOM     11  N   UNL     1       3.134   4.401  17.945  0.00  0.00    +0.000 N 
ENDROOT
BRANCH   1  12
ATOM     12  S   UNL     1       2.789   6.520  19.639  0.00  0.00    +0.000 S 
BRANCH  12  13
ATOM     13  C   UNL     1       2.329   8.013  18.718  0.00  0.00    +0.000 C 
BRANCH  13  15
ATOM     14  O   UNL     1       0.901   8.818  20.474  0.00  0.00    +0.000 OA
ATOM     15  C   UNL     1       1.332   9.013  19.330  0.00  0.00    +0.000 C 
ATOM     16  N   UNL     1       1.010  10.131  18.632  0.00  0.00    +0.000 N 
ATOM     17  H   UNL     1       1.343  10.206  17.677  0.00  0.00    +0.000 HD
BRANCH  16  18
ATOM     18  C   UNL     1       0.082  11.161  19.117  0.00  0.00    +0.000 C 
BRANCH  18  19
ATOM     19  C   UNL     1      -1.305  10.889  18.586  0.00  0.00    +0.000 A 
ATOM     20  C   UNL     1      -2.400  11.685  19.007  0.00  0.00    +0.000 A 
ATOM     21  C   UNL     1      -3.576  11.739  18.251  0.00  0.00    +0.000 A 
ATOM     22  C   UNL     1      -3.602  11.001  17.092  0.00  0.00    +0.000 A 
ATOM     23  C   UNL     1      -2.598  10.112  16.766  0.00  0.00    +0.000 A 
ATOM     24  C   UNL     1      -1.453  10.001  17.511  0.00  0.00    +0.000 A 
ATOM     25  O   UNL     1      -2.791   9.553  15.536  0.00  0.00    +0.000 OA
ATOM     26  C   UNL     1      -3.704  10.533  15.010  0.00  0.00    +0.000 C 
ATOM     27  O   UNL     1      -4.486  11.150  16.060  0.00  0.00    +0.000 OA
ENDBRANCH  18  19
ENDBRANCH  16  18
ENDBRANCH  13  15
ENDBRANCH  12  13
ENDBRANCH   1  12
BRANCH  11  28
ATOM     28  C   UNL     1       1.749   3.914  18.182  0.00  0.00    +0.000 C 
BRANCH  28  29
ATOM     29  C   UNL     1       1.618   2.922  19.358  0.00  0.00    +0.000 C 
ATOM     30  C   UNL     1       0.845   3.349  20.599  0.00  0.00    +0.000 C 
ATOM     31  C   UNL     1       1.688   2.911  21.773  0.00  0.00    +0.000 C 
ATOM     32  C   UNL     1       3.002   2.455  21.189  0.00  0.00    +0.000 C 
ATOM     33  O   UNL     1       2.925   2.519  19.773  0.00  0.00    +0.000 OA
ENDBRANCH  28  29
ENDBRANCH  11  28
TORSDOF 7
ENDMDL
MODEL 8
REMARK VINA RESULT:      -8.6      5.631      8.457
REMARK  Name = 
REMARK  7 active torsions:
REMARK  status: ('A' for Active; 'I' for Inactive)
REMARK    1  A    between atoms: C_2  and  C_3
REMARK    2  A    between atoms: C_3  and  S_4
REMARK    3  A    between atoms: S_4  and  C_5
REMARK    4  A    between atoms: N_15  and  C_16
REMARK    5  A    between atoms: C_16  and  C_17
REMARK    6  A    between atoms: N_22  and  C_23
REMARK    7  A    between atoms: C_23  and  C_24
REMARK                            x       y       z     vdW  Elec       q    Type
REMARK                         _______ _______ _______ _____ _____    ______ ____
ROOT
ATOM      1  C   UNL     1       3.237   6.236  18.227  0.00  0.00    +0.000 A 
ATOM      2  N   UNL     1       2.457   5.985  19.224  0.00  0.00    +0.000 NA
ATOM      3  C   UNL     1       2.474   4.709  19.783  0.00  0.00    +0.000 A 
ATOM      4  C   UNL     1       1.867   4.517  21.025  0.00  0.00    +0.000 A 
ATOM      5  C   UNL     1       2.106   3.355  21.763  0.00  0.00    +0.000 A 
ATOM      6  C   UNL     1       2.916   2.345  21.239  0.00  0.00    +0.000 A 
ATOM      7  C   UNL     1       3.446   2.483  19.958  0.00  0.00    +0.000 A 
ATOM      8  C   UNL     1       3.221   3.660  19.250  0.00  0.00    +0.000 A 
ATOM      9  C   UNL     1       3.874   3.907  17.963  0.00  0.00    +0.000 A 
ATOM     10  O   UNL     1       4.343   2.944  17.335  0.00  0.00    +0.000 OA
ATOM     11  N   UNL     1       3.967   5.242  17.564  0.00  0.00    +0.000 N 
ENDROOT
BRANCH   1  12
ATOM     12  S   UNL     1       3.445   7.917  17.785  0.00  0.00    +0.000 S 
BRANCH  12  13
ATOM     13  C   UNL     1       1.800   8.619  17.486  0.00  0.00    +0.000 C 
BRANCH  13  15
ATOM     14  O   UNL     1       2.338  10.886  18.071  0.00  0.00    +0.000 OA
ATOM     15  C   UNL     1       1.456  10.019  18.023  0.00  0.00    +0.000 C 
ATOM     16  N   UNL     1       0.170  10.298  18.356  0.00  0.00    +0.000 N 
ATOM     17  H   UNL     1      -0.496   9.533  18.357  0.00  0.00    +0.000 HD
BRANCH  16  18
ATOM     18  C   UNL     1      -0.280  11.599  18.867  0.00  0.00    +0.000 C 
BRANCH  18  19
ATOM     19  C   UNL     1      -1.771  11.569  19.099  0.00  0.00    +0.000 A 
ATOM     20  C   UNL     1      -2.350  12.355  20.127  0.00  0.00    +0.000 A 
ATOM     21  C   UNL     1      -3.714  12.669  20.103  0.00  0.00    +0.000 A 
ATOM     22  C   UNL     1      -4.441  12.193  19.038  0.00  0.00    +0.000 A 
ATOM     23  C   UNL     1      -3.910  11.305  18.126  0.00  0.00    +0.000 A 
ATOM     24  C   UNL     1      -2.589  10.940  18.149  0.00  0.00    +0.000 A 
ATOM     25  O   UNL     1      -4.781  11.034  17.111  0.00  0.00    +0.000 OA
ATOM     26  C   UNL     1      -5.638  12.179  17.269  0.00  0.00    +0.000 C 
ATOM     27  O   UNL     1      -5.674  12.632  18.644  0.00  0.00    +0.000 OA
ENDBRANCH  18  19
ENDBRANCH  16  18
ENDBRANCH  13  15
ENDBRANCH  12  13
ENDBRANCH   1  12
BRANCH  11  28
ATOM     28  C   UNL     1       4.864   5.456  16.397  0.00  0.00    +0.000 C 
BRANCH  28  29
ATOM     29  C   UNL     1       6.351   5.647  16.768  0.00  0.00    +0.000 C 
ATOM     30  C   UNL     1       6.808   5.304  18.180  0.00  0.00    +0.000 C 
ATOM     31  C   UNL     1       7.702   6.444  18.605  0.00  0.00    +0.000 C 
ATOM     32  C   UNL     1       7.559   7.501  17.537  0.00  0.00    +0.000 C 
ATOM     33  O   UNL     1       6.725   7.001  16.503  0.00  0.00    +0.000 OA
ENDBRANCH  28  29
ENDBRANCH  11  28
TORSDOF 7
ENDMDL
MODEL 9
REMARK VINA RESULT:      -8.6      8.218     11.127
REMARK  Name = 
REMARK  7 active torsions:
REMARK  status: ('A' for Active; 'I' for Inactive)
REMARK    1  A    between atoms: C_2  and  C_3
REMARK    2  A    between atoms: C_3  and  S_4
REMARK    3  A    between atoms: S_4  and  C_5
REMARK    4  A    between atoms: N_15  and  C_16
REMARK    5  A    between atoms: C_16  and  C_17
REMARK    6  A    between atoms: N_22  and  C_23
REMARK    7  A    between atoms: C_23  and  C_24
REMARK                            x       y       z     vdW  Elec       q    Type
REMARK                         _______ _______ _______ _____ _____    ______ ____
ROOT
ATOM      1  C   UNL     1      -2.082  11.859  19.830  0.00  0.00    +0.000 A 
ATOM      2  N   UNL     1      -1.683  10.990  18.963  0.00  0.00    +0.000 NA
ATOM      3  C   UNL     1      -2.497  10.717  17.865  0.00  0.00    +0.000 A 
ATOM      4  C   UNL     1      -1.952  10.015  16.790  0.00  0.00    +0.000 A 
ATOM      5  C   UNL     1      -2.612   9.971  15.559  0.00  0.00    +0.000 A 
ATOM      6  C   UNL     1      -3.858  10.587  15.409  0.00  0.00    +0.000 A 
ATOM      7  C   UNL     1      -4.456  11.205  16.504  0.00  0.00    +0.000 A 
ATOM      8  C   UNL     1      -3.770  11.264  17.714  0.00  0.00    +0.000 A 
ATOM      9  C   UNL     1      -4.298  12.024  18.848  0.00  0.00    +0.000 A 
ATOM     10  O   UNL     1      -5.503  12.322  18.861  0.00  0.00    +0.000 OA
ATOM     11  N   UNL     1      -3.370  12.407  19.819  0.00  0.00    +0.000 N 
ENDROOT
BRANCH   1  12
ATOM     12  S   UNL     1      -0.897  12.428  20.986  0.00  0.00    +0.000 S 
BRANCH  12  13
ATOM     13  C   UNL     1      -1.022  11.388  22.466  0.00  0.00    +0.000 C 
BRANCH  13  15
ATOM     14  O   UNL     1       0.123   9.729  23.773  0.00  0.00    +0.000 OA
ATOM     15  C   UNL     1      -0.077  10.187  22.640  0.00  0.00    +0.000 C 
ATOM     16  N   UNL     1       0.456   9.604  21.536  0.00  0.00    +0.000 N 
ATOM     17  H   UNL     1       0.309  10.059  20.642  0.00  0.00    +0.000 HD
BRANCH  16  18
ATOM     18  C   UNL     1       1.360   8.447  21.577  0.00  0.00    +0.000 C 
BRANCH  18  19
ATOM     19  C   UNL     1       1.675   7.996  20.170  0.00  0.00    +0.000 A 
ATOM     20  C   UNL     1       1.635   8.922  19.098  0.00  0.00    +0.000 A 
ATOM     21  C   UNL     1       2.304   8.654  17.898  0.00  0.00    +0.000 A 
ATOM     22  C   UNL     1       2.999   7.470  17.827  0.00  0.00    +0.000 A 
ATOM     23  C   UNL     1       2.909   6.507  18.811  0.00  0.00    +0.000 A 
ATOM     24  C   UNL     1       2.224   6.720  19.979  0.00  0.00    +0.000 A 
ATOM     25  O   UNL     1       3.745   5.455  18.572  0.00  0.00    +0.000 OA
ATOM     26  C   UNL     1       4.636   6.110  17.652  0.00  0.00    +0.000 C 
ATOM     27  O   UNL     1       3.963   7.155  16.911  0.00  0.00    +0.000 OA
ENDBRANCH  18  19
ENDBRANCH  16  18
ENDBRANCH  13  15
ENDBRANCH  12  13
ENDBRANCH   1  12
BRANCH  11  28
ATOM     28  C   UNL     1      -3.901  13.393  20.798  0.00  0.00    +0.000 C 
BRANCH  28  29
ATOM     29  C   UNL     1      -4.886  12.796  21.827  0.00  0.00    +0.000 C 
ATOM     30  C   UNL     1      -6.110  13.607  22.231  0.00  0.00    +0.000 C 
ATOM     31  C   UNL     1      -6.198  13.487  23.734  0.00  0.00    +0.000 C 
ATOM     32  C   UNL     1      -4.921  12.811  24.169  0.00  0.00    +0.000 C 
ATOM     33  O   UNL     1      -4.169  12.462  23.017  0.00  0.00    +0.000 OA
ENDBRANCH  28  29
ENDBRANCH  11  28
TORSDOF 7
ENDMDL
