MODEL 1
REMARK VINA RESULT:      -6.1      0.000      0.000
REMARK  Name = 
REMARK  16 active torsions:
REMARK  status: ('A' for Active; 'I' for Inactive)
REMARK    1  A    between atoms: N_1  and  CA_2
REMARK    2  A    between atoms: CA_2  and  C_3
REMARK    3  A    between atoms: CA_2  and  C_19
REMARK    4  A    between atoms: C_3  and  N_4
REMARK    5  A    between atoms: N_4  and  CA_5
REMARK    6  A    between atoms: CA_5  and  C_6
REMARK    7  A    between atoms: CA_5  and  C_16
REMARK    8  A    between atoms: C_6  and  N_7
REMARK    9  A    between atoms: N_7  and  CA_8
REMARK   10  A    between atoms: CA_8  and  CB_9
REMARK   11  A    between atoms: CA_8  and  C_13
REMARK   12  A    between atoms: CB_9  and  CG_10
REMARK   13  A    between atoms: CG_10  and  OD2_12
REMARK   14  A    between atoms: C_13  and  OXT_15
REMARK   15  A    between atoms: C_16  and  OXT_18
REMARK   16  A    between atoms: C_19  and  OXT_21
REMARK                            x       y       z     vdW  Elec       q    Type
REMARK                         _______ _______ _______ _____ _____    ______ ____
ROOT
ATOM      1  CA  ASP A   1       4.333   4.802  18.036  0.00  0.00    +0.000 C 
ENDROOT
BRANCH   1   2
ATOM      2  N   ASP A   1       3.007   4.741  18.740  0.00  0.00    +0.000 NA
ATOM      3  H   ASP A   1       3.168   4.435  19.705  0.00  0.00    +0.000 HD
BRANCH   2   4
ATOM      4  C   ASP A   1       2.131   3.754  18.041  0.00  0.00    +0.000 C 
BRANCH   4   5
ATOM      5  CA  ASP A   1       1.775   2.455  18.810  0.00  0.00    +0.000 C 
BRANCH   5   6
ATOM      6  N   ASP A   1       2.692   1.332  18.530  0.00  0.00    +0.000 NA
ATOM      7  H1  ASP A   1       3.491   1.350  19.166  0.00  0.00    +0.000 HD
ATOM      8  H2  ASP A   1       3.098   1.462  17.600  0.00  0.00    +0.000 HD
ENDBRANCH   5   6
BRANCH   5   9
ATOM      9  C   ASP A   1       1.789   2.774  20.317  0.00  0.00    +0.000 C 
ATOM     10  O   ASP A   1       0.889   3.317  20.939  0.00  0.00    +0.000 OA
BRANCH   9  11
ATOM     11  OXT ASP A   1       2.969   2.441  20.912  0.00  0.00    +0.000 OA
ATOM     12  HXT ASP A   1       2.992   2.625  21.867  0.00  0.00    +0.000 HD
ENDBRANCH   9  11
ENDBRANCH   5   9
ENDBRANCH   4   5
ENDBRANCH   2   4
ENDBRANCH   1   2
BRANCH   1  13
ATOM     13  C   ASP A   1       5.415   4.292  18.995  0.00  0.00    +0.000 C 
ATOM     14  O   ASP A   1       6.373   4.945  19.374  0.00  0.00    +0.000 OA
BRANCH  13  15
ATOM     15  OXT ASP A   1       5.209   2.988  19.326  0.00  0.00    +0.000 OA
ATOM     16  HXT ASP A   1       5.433   2.895  20.286  0.00  0.00    +0.000 HD
ENDBRANCH  13  15
ENDBRANCH   1  13
BRANCH   1  17
ATOM     17  C   ASP A   1       4.452   3.899  16.776  0.00  0.00    +0.000 C 
BRANCH  17  18
ATOM     18  N   ASP A   1       5.821   3.432  16.482  0.00  0.00    +0.000 NA
ATOM     19  H   ASP A   1       5.777   2.424  16.297  0.00  0.00    +0.000 HD
BRANCH  18  20
ATOM     20  CA  ASP A   1       6.373   4.082  15.243  0.00  0.00    +0.000 C 
BRANCH  20  21
ATOM     21  C   ASP A   1       6.627   5.566  15.549  0.00  0.00    +0.000 C 
ATOM     22  O   ASP A   1       7.607   5.983  16.148  0.00  0.00    +0.000 OA
BRANCH  21  23
ATOM     23  OXT ASP A   1       5.674   6.370  15.024  0.00  0.00    +0.000 OA
ATOM     24  HXT ASP A   1       6.038   7.289  14.987  0.00  0.00    +0.000 HD
ENDBRANCH  21  23
ENDBRANCH  20  21
BRANCH  20  25
ATOM     25  CB  ASP A   1       5.539   4.019  13.952  0.00  0.00    +0.000 C 
BRANCH  25  26
ATOM     26  CG  ASP A   1       6.371   3.687  12.737  0.00  0.00    +0.000 C 
ATOM     27  OD1 ASP A   1       7.271   4.389  12.301  0.00  0.00    +0.000 OA
BRANCH  26  28
ATOM     28  OD2 ASP A   1       6.011   2.533  12.132  0.00  0.00    +0.000 OA
ATOM     29  HD2 ASP A   1       6.198   2.484  11.177  0.00  0.00    +0.000 HD
ENDBRANCH  26  28
ENDBRANCH  25  26
ENDBRANCH  20  25
ENDBRANCH  18  20
ENDBRANCH  17  18
ENDBRANCH   1  17
TORSDOF 16
ENDMDL
MODEL 2
REMARK VINA RESULT:      -6.1      0.731      1.235
REMARK  Name = 
REMARK  16 active torsions:
REMARK  status: ('A' for Active; 'I' for Inactive)
REMARK    1  A    between atoms: N_1  and  CA_2
REMARK    2  A    between atoms: CA_2  and  C_3
REMARK    3  A    between atoms: CA_2  and  C_19
REMARK    4  A    between atoms: C_3  and  N_4
REMARK    5  A    between atoms: N_4  and  CA_5
REMARK    6  A    between atoms: CA_5  and  C_6
REMARK    7  A    between atoms: CA_5  and  C_16
REMARK    8  A    between atoms: C_6  and  N_7
REMARK    9  A    between atoms: N_7  and  CA_8
REMARK   10  A    between atoms: CA_8  and  CB_9
REMARK   11  A    between atoms: CA_8  and  C_13
REMARK   12  A    between atoms: CB_9  and  CG_10
REMARK   13  A    between atoms: CG_10  and  OD2_12
REMARK   14  A    between atoms: C_13  and  OXT_15
REMARK   15  A    between atoms: C_16  and  OXT_18
REMARK   16  A    between atoms: C_19  and  OXT_21
REMARK                            x       y       z     vdW  Elec       q    Type
REMARK                         _______ _______ _______ _____ _____    ______ ____
ROOT
ATOM      1  CA  ASP A   1       4.267   4.914  17.773  0.00  0.00    +0.000 C 
ENDROOT
BRANCH   1   2
ATOM      2  N   ASP A   1       2.889   4.721  18.340  0.00  0.00    +0.000 NA
ATOM      3  H   ASP A   1       2.980   4.427  19.317  0.00  0.00    +0.000 HD
BRANCH   2   4
ATOM      4  C   ASP A   1       2.187   3.659  17.560  0.00  0.00    +0.000 C 
BRANCH   4   5
ATOM      5  CA  ASP A   1       1.861   2.335  18.301  0.00  0.00    +0.000 C 
BRANCH   5   6
ATOM      6  N   ASP A   1       3.006   1.406  18.382  0.00  0.00    +0.000 NA
ATOM      7  H1  ASP A   1       3.350   1.173  17.450  0.00  0.00    +0.000 HD
ATOM      8  H2  ASP A   1       2.682   0.517  18.770  0.00  0.00    +0.000 HD
ENDBRANCH   5   6
BRANCH   5   9
ATOM      9  C   ASP A   1       1.379   2.690  19.720  0.00  0.00    +0.000 C 
ATOM     10  O   ASP A   1       2.097   2.878  20.690  0.00  0.00    +0.000 OA
BRANCH   9  11
ATOM     11  OXT ASP A   1       0.020   2.716  19.821  0.00  0.00    +0.000 OA
ATOM     12  HXT ASP A   1      -0.438   2.602  18.969  0.00  0.00    +0.000 HD
ENDBRANCH   9  11
ENDBRANCH   5   9
ENDBRANCH   4   5
ENDBRANCH   2   4
ENDBRANCH   1   2
BRANCH   1  13
ATOM     13  C   ASP A   1       5.287   4.390  18.790  0.00  0.00    +0.000 C 
ATOM     14  O   ASP A   1       5.166   3.358  19.430  0.00  0.00    +0.000 OA
BRANCH  13  15
ATOM     15  OXT ASP A   1       6.326   5.256  18.940  0.00  0.00    +0.000 OA
ATOM     16  HXT ASP A   1       6.777   5.322  18.061  0.00  0.00    +0.000 HD
ENDBRANCH  13  15
ENDBRANCH   1  13
BRANCH   1  17
ATOM     17  C   ASP A   1       4.558   4.123  16.466  0.00  0.00    +0.000 C 
BRANCH  17  18
ATOM     18  N   ASP A   1       5.927   3.582  16.367  0.00  0.00    +0.000 NA
ATOM     19  H   ASP A   1       5.865   2.558  16.401  0.00  0.00    +0.000 HD
BRANCH  18  20
ATOM     20  CA  ASP A   1       6.570   3.940  15.056  0.00  0.00    +0.000 C 
BRANCH  20  21
ATOM     21  C   ASP A   1       7.321   5.270  15.233  0.00  0.00    +0.000 C 
ATOM     22  O   ASP A   1       7.346   5.907  16.276  0.00  0.00    +0.000 OA
BRANCH  21  23
ATOM     23  OXT ASP A   1       8.004   5.626  14.122  0.00  0.00    +0.000 OA
ATOM     24  HXT ASP A   1       7.496   5.302  13.336  0.00  0.00    +0.000 HD
ENDBRANCH  21  23
ENDBRANCH  20  21
BRANCH  20  25
ATOM     25  CB  ASP A   1       5.671   4.087  13.817  0.00  0.00    +0.000 C 
BRANCH  25  26
ATOM     26  CG  ASP A   1       6.305   3.524  12.568  0.00  0.00    +0.000 C 
ATOM     27  OD1 ASP A   1       7.150   4.100  11.900  0.00  0.00    +0.000 OA
BRANCH  26  28
ATOM     28  OD2 ASP A   1       5.826   2.309  12.217  0.00  0.00    +0.000 OA
ATOM     29  HD2 ASP A   1       6.361   1.547  12.507  0.00  0.00    +0.000 HD
ENDBRANCH  26  28
ENDBRANCH  25  26
ENDBRANCH  20  25
ENDBRANCH  18  20
ENDBRANCH  17  18
ENDBRANCH   1  17
TORSDOF 16
ENDMDL
MODEL 3
REMARK VINA RESULT:      -6.1      1.849      3.635
REMARK  Name = 
REMARK  16 active torsions:
REMARK  status: ('A' for Active; 'I' for Inactive)
REMARK    1  A    between atoms: N_1  and  CA_2
REMARK    2  A    between atoms: CA_2  and  C_3
REMARK    3  A    between atoms: CA_2  and  C_19
REMARK    4  A    between atoms: C_3  and  N_4
REMARK    5  A    between atoms: N_4  and  CA_5
REMARK    6  A    between atoms: CA_5  and  C_6
REMARK    7  A    between atoms: CA_5  and  C_16
REMARK    8  A    between atoms: C_6  and  N_7
REMARK    9  A    between atoms: N_7  and  CA_8
REMARK   10  A    between atoms: CA_8  and  CB_9
REMARK   11  A    between atoms: CA_8  and  C_13
REMARK   12  A    between atoms: CB_9  and  CG_10
REMARK   13  A    between atoms: CG_10  and  OD2_12
REMARK   14  A    between atoms: C_13  and  OXT_15
REMARK   15  A    between atoms: C_16  and  OXT_18
REMARK   16  A    between atoms: C_19  and  OXT_21
REMARK                            x       y       z     vdW  Elec       q    Type
REMARK                         _______ _______ _______ _____ _____    ______ ____
ROOT
ATOM      1  CA  ASP A   1       3.613   2.651  18.023  0.00  0.00    +0.000 C 
ENDROOT
BRANCH   1   2
ATOM      2  N   ASP A   1       3.958   2.761  19.481  0.00  0.00    +0.000 NA
ATOM      3  H   ASP A   1       3.321   2.157  20.010  0.00  0.00    +0.000 HD
BRANCH   2   4
ATOM      4  C   ASP A   1       3.783   4.178  19.916  0.00  0.00    +0.000 C 
BRANCH   4   5
ATOM      5  CA  ASP A   1       2.561   4.496  20.818  0.00  0.00    +0.000 C 
BRANCH   5   6
ATOM      6  N   ASP A   1       1.439   5.124  20.091  0.00  0.00    +0.000 NA
ATOM      7  H1  ASP A   1       1.304   4.682  19.181  0.00  0.00    +0.000 HD
ATOM      8  H2  ASP A   1       1.687   6.093  19.875  0.00  0.00    +0.000 HD
ENDBRANCH   5   6
BRANCH   5   9
ATOM      9  C   ASP A   1       2.089   3.180  21.463  0.00  0.00    +0.000 C 
ATOM     10  O   ASP A   1       2.776   2.435  22.146  0.00  0.00    +0.000 OA
BRANCH   9  11
ATOM     11  OXT ASP A   1       0.801   2.871  21.142  0.00  0.00    +0.000 OA
ATOM     12  HXT ASP A   1       0.272   3.639  20.864  0.00  0.00    +0.000 HD
ENDBRANCH   9  11
ENDBRANCH   5   9
ENDBRANCH   4   5
ENDBRANCH   2   4
ENDBRANCH   1   2
BRANCH   1  13
ATOM     13  C   ASP A   1       2.086   2.633  17.887  0.00  0.00    +0.000 C 
ATOM     14  O   ASP A   1       1.355   1.776  18.356  0.00  0.00    +0.000 OA
BRANCH  13  15
ATOM     15  OXT ASP A   1       1.645   3.666  17.118  0.00  0.00    +0.000 OA
ATOM     16  HXT ASP A   1       2.443   4.188  16.850  0.00  0.00    +0.000 HD
ENDBRANCH  13  15
ENDBRANCH   1  13
BRANCH   1  17
ATOM     17  C   ASP A   1       4.082   3.843  17.143  0.00  0.00    +0.000 C 
BRANCH  17  18
ATOM     18  N   ASP A   1       5.405   3.660  16.515  0.00  0.00    +0.000 NA
ATOM     19  H   ASP A   1       5.286   3.039  15.707  0.00  0.00    +0.000 HD
BRANCH  18  20
ATOM     20  CA  ASP A   1       5.954   4.959  15.993  0.00  0.00    +0.000 C 
BRANCH  20  21
ATOM     21  C   ASP A   1       6.749   4.667  14.711  0.00  0.00    +0.000 C 
ATOM     22  O   ASP A   1       6.367   3.915  13.826  0.00  0.00    +0.000 OA
BRANCH  21  23
ATOM     23  OXT ASP A   1       7.893   5.385  14.641  0.00  0.00    +0.000 OA
ATOM     24  HXT ASP A   1       8.639   4.753  14.489  0.00  0.00    +0.000 HD
ENDBRANCH  21  23
ENDBRANCH  20  21
BRANCH  20  25
ATOM     25  CB  ASP A   1       6.863   5.790  16.913  0.00  0.00    +0.000 C 
BRANCH  25  26
ATOM     26  CG  ASP A   1       7.448   4.977  18.043  0.00  0.00    +0.000 C 
ATOM     27  OD1 ASP A   1       7.211   5.163  19.226  0.00  0.00    +0.000 OA
BRANCH  26  28
ATOM     28  OD2 ASP A   1       8.307   4.017  17.630  0.00  0.00    +0.000 OA
ATOM     29  HD2 ASP A   1       9.108   4.338  17.175  0.00  0.00    +0.000 HD
ENDBRANCH  26  28
ENDBRANCH  25  26
ENDBRANCH  20  25
ENDBRANCH  18  20
ENDBRANCH  17  18
ENDBRANCH   1  17
TORSDOF 16
ENDMDL
MODEL 4
REMARK VINA RESULT:      -6.1      1.789      3.448
REMARK  Name = 
REMARK  16 active torsions:
REMARK  status: ('A' for Active; 'I' for Inactive)
REMARK    1  A    between atoms: N_1  and  CA_2
REMARK    2  A    between atoms: CA_2  and  C_3
REMARK    3  A    between atoms: CA_2  and  C_19
REMARK    4  A    between atoms: C_3  and  N_4
REMARK    5  A    between atoms: N_4  and  CA_5
REMARK    6  A    between atoms: CA_5  and  C_6
REMARK    7  A    between atoms: CA_5  and  C_16
REMARK    8  A    between atoms: C_6  and  N_7
REMARK    9  A    between atoms: N_7  and  CA_8
REMARK   10  A    between atoms: CA_8  and  CB_9
REMARK   11  A    between atoms: CA_8  and  C_13
REMARK   12  A    between atoms: CB_9  and  CG_10
REMARK   13  A    between atoms: CG_10  and  OD2_12
REMARK   14  A    between atoms: C_13  and  OXT_15
REMARK   15  A    between atoms: C_16  and  OXT_18
REMARK   16  A    between atoms: C_19  and  OXT_21
REMARK                            x       y       z     vdW  Elec       q    Type
REMARK                         _______ _______ _______ _____ _____    ______ ____
ROOT
ATOM      1  CA  ASP A   1       3.811   3.307  18.144  0.00  0.00    +0.000 C 
ENDROOT
BRANCH   1   2
ATOM      2  N   ASP A   1       2.906   4.411  18.614  0.00  0.00    +0.000 NA
ATOM      3  H   ASP A   1       3.166   5.272  18.124  0.00  0.00    +0.000 HD
BRANCH   2   4
ATOM      4  C   ASP A   1       3.090   4.596  20.084  0.00  0.00    +0.000 C 
BRANCH   4   5
ATOM      5  CA  ASP A   1       1.910   4.181  21.003  0.00  0.00    +0.000 C 
BRANCH   5   6
ATOM      6  N   ASP A   1       0.637   3.989  20.278  0.00  0.00    +0.000 NA
ATOM      7  H1  ASP A   1       0.025   4.797  20.401  0.00  0.00    +0.000 HD
ATOM      8  H2  ASP A   1       0.129   3.211  20.706  0.00  0.00    +0.000 HD
ENDBRANCH   5   6
BRANCH   5   9
ATOM      9  C   ASP A   1       2.300   2.876  21.721  0.00  0.00    +0.000 C 
ATOM     10  O   ASP A   1       3.394   2.335  21.671  0.00  0.00    +0.000 OA
BRANCH   9  11
ATOM     11  OXT ASP A   1       1.256   2.317  22.396  0.00  0.00    +0.000 OA
ATOM     12  HXT ASP A   1       0.851   2.912  23.051  0.00  0.00    +0.000 HD
ENDBRANCH   9  11
ENDBRANCH   5   9
ENDBRANCH   4   5
ENDBRANCH   2   4
ENDBRANCH   1   2
BRANCH   1  13
ATOM     13  C   ASP A   1       3.038   1.985  18.216  0.00  0.00    +0.000 C 
ATOM     14  O   ASP A   1       1.824   1.890  18.277  0.00  0.00    +0.000 OA
BRANCH  13  15
ATOM     15  OXT ASP A   1       3.884   0.920  18.267  0.00  0.00    +0.000 OA
ATOM     16  HXT ASP A   1       4.654   1.133  17.682  0.00  0.00    +0.000 HD
ENDBRANCH  13  15
ENDBRANCH   1  13
BRANCH   1  17
ATOM     17  C   ASP A   1       4.277   3.422  16.666  0.00  0.00    +0.000 C 
BRANCH  17  18
ATOM     18  N   ASP A   1       5.736   3.556  16.491  0.00  0.00    +0.000 NA
ATOM     19  H   ASP A   1       6.030   2.889  15.768  0.00  0.00    +0.000 HD
BRANCH  18  20
ATOM     20  CA  ASP A   1       6.111   4.927  16.001  0.00  0.00    +0.000 C 
BRANCH  20  21
ATOM     21  C   ASP A   1       6.787   4.782  14.628  0.00  0.00    +0.000 C 
ATOM     22  O   ASP A   1       6.349   4.092  13.720  0.00  0.00    +0.000 OA
BRANCH  21  23
ATOM     23  OXT ASP A   1       7.892   5.554  14.516  0.00  0.00    +0.000 OA
ATOM     24  HXT ASP A   1       8.625   5.110  15.012  0.00  0.00    +0.000 HD
ENDBRANCH  21  23
ENDBRANCH  20  21
BRANCH  20  25
ATOM     25  CB  ASP A   1       7.037   5.788  16.876  0.00  0.00    +0.000 C 
BRANCH  25  26
ATOM     26  CG  ASP A   1       7.568   5.039  18.075  0.00  0.00    +0.000 C 
ATOM     27  OD1 ASP A   1       7.339   5.339  19.236  0.00  0.00    +0.000 OA
BRANCH  26  28
ATOM     28  OD2 ASP A   1       8.367   3.997  17.752  0.00  0.00    +0.000 OA
ATOM     29  HD2 ASP A   1       9.187   4.228  17.277  0.00  0.00    +0.000 HD
ENDBRANCH  26  28
ENDBRANCH  25  26
ENDBRANCH  20  25
ENDBRANCH  18  20
ENDBRANCH  17  18
ENDBRANCH   1  17
TORSDOF 16
ENDMDL
MODEL 5
REMARK VINA RESULT:      -6.0      1.875      3.710
REMARK  Name = 
REMARK  16 active torsions:
REMARK  status: ('A' for Active; 'I' for Inactive)
REMARK    1  A    between atoms: N_1  and  CA_2
REMARK    2  A    between atoms: CA_2  and  C_3
REMARK    3  A    between atoms: CA_2  and  C_19
REMARK    4  A    between atoms: C_3  and  N_4
REMARK    5  A    between atoms: N_4  and  CA_5
REMARK    6  A    between atoms: CA_5  and  C_6
REMARK    7  A    between atoms: CA_5  and  C_16
REMARK    8  A    between atoms: C_6  and  N_7
REMARK    9  A    between atoms: N_7  and  CA_8
REMARK   10  A    between atoms: CA_8  and  CB_9
REMARK   11  A    between atoms: CA_8  and  C_13
REMARK   12  A    between atoms: CB_9  and  CG_10
REMARK   13  A    between atoms: CG_10  and  OD2_12
REMARK   14  A    between atoms: C_13  and  OXT_15
REMARK   15  A    between atoms: C_16  and  OXT_18
REMARK   16  A    between atoms: C_19  and  OXT_21
REMARK                            x       y       z     vdW  Elec       q    Type
REMARK                         _______ _______ _______ _____ _____    ______ ____
ROOT
ATOM      1  CA  ASP A   1       3.624   2.680  18.136  0.00  0.00    +0.000 C 
ENDROOT
BRANCH   1   2
ATOM      2  N   ASP A   1       3.917   3.023  19.569  0.00  0.00    +0.000 NA
ATOM      3  H   ASP A   1       3.300   2.465  20.168  0.00  0.00    +0.000 HD
BRANCH   2   4
ATOM      4  C   ASP A   1       3.645   4.475  19.785  0.00  0.00    +0.000 C 
BRANCH   4   5
ATOM      5  CA  ASP A   1       2.715   4.853  20.969  0.00  0.00    +0.000 C 
BRANCH   5   6
ATOM      6  N   ASP A   1       1.741   5.913  20.640  0.00  0.00    +0.000 NA
ATOM      7  H1  ASP A   1       0.785   5.563  20.714  0.00  0.00    +0.000 HD
ATOM      8  H2  ASP A   1       1.850   6.166  19.654  0.00  0.00    +0.000 HD
ENDBRANCH   5   6
BRANCH   5   9
ATOM      9  C   ASP A   1       1.968   3.581  21.413  0.00  0.00    +0.000 C 
ATOM     10  O   ASP A   1       2.361   2.777  22.243  0.00  0.00    +0.000 OA
BRANCH   9  11
ATOM     11  OXT ASP A   1       0.809   3.388  20.723  0.00  0.00    +0.000 OA
ATOM     12  HXT ASP A   1       0.432   2.496  20.833  0.00  0.00    +0.000 HD
ENDBRANCH   9  11
ENDBRANCH   5   9
ENDBRANCH   4   5
ENDBRANCH   2   4
ENDBRANCH   1   2
BRANCH   1  13
ATOM     13  C   ASP A   1       2.103   2.628  17.952  0.00  0.00    +0.000 C 
ATOM     14  O   ASP A   1       1.431   3.513  17.447  0.00  0.00    +0.000 OA
BRANCH  13  15
ATOM     15  OXT ASP A   1       1.578   1.490  18.481  0.00  0.00    +0.000 OA
ATOM     16  HXT ASP A   1       2.340   0.901  18.715  0.00  0.00    +0.000 HD
ENDBRANCH  13  15
ENDBRANCH   1  13
BRANCH   1  17
ATOM     17  C   ASP A   1       4.121   3.721  17.094  0.00  0.00    +0.000 C 
BRANCH  17  18
ATOM     18  N   ASP A   1       5.365   3.345  16.396  0.00  0.00    +0.000 NA
ATOM     19  H   ASP A   1       5.111   3.002  15.462  0.00  0.00    +0.000 HD
BRANCH  18  20
ATOM     20  CA  ASP A   1       6.269   4.531  16.198  0.00  0.00    +0.000 C 
BRANCH  20  21
ATOM     21  C   ASP A   1       6.785   4.508  14.751  0.00  0.00    +0.000 C 
ATOM     22  O   ASP A   1       6.361   3.757  13.885  0.00  0.00    +0.000 OA
BRANCH  21  23
ATOM     23  OXT ASP A   1       7.721   5.458  14.524  0.00  0.00    +0.000 OA
ATOM     24  HXT ASP A   1       7.431   5.988  13.740  0.00  0.00    +0.000 HD
ENDBRANCH  21  23
ENDBRANCH  20  21
BRANCH  20  25
ATOM     25  CB  ASP A   1       7.493   4.678  17.117  0.00  0.00    +0.000 C 
BRANCH  25  26
ATOM     26  CG  ASP A   1       7.508   5.991  17.861  0.00  0.00    +0.000 C 
ATOM     27  OD1 ASP A   1       7.491   6.098  19.078  0.00  0.00    +0.000 OA
BRANCH  26  28
ATOM     28  OD2 ASP A   1       7.509   7.073  17.051  0.00  0.00    +0.000 OA
ATOM     29  HD2 ASP A   1       8.228   7.713  17.206  0.00  0.00    +0.000 HD
ENDBRANCH  26  28
ENDBRANCH  25  26
ENDBRANCH  20  25
ENDBRANCH  18  20
ENDBRANCH  17  18
ENDBRANCH   1  17
TORSDOF 16
ENDMDL
MODEL 6
REMARK VINA RESULT:      -5.9      2.299      6.459
REMARK  Name = 
REMARK  16 active torsions:
REMARK  status: ('A' for Active; 'I' for Inactive)
REMARK    1  A    between atoms: N_1  and  CA_2
REMARK    2  A    between atoms: CA_2  and  C_3
REMARK    3  A    between atoms: CA_2  and  C_19
REMARK    4  A    between atoms: C_3  and  N_4
REMARK    5  A    between atoms: N_4  and  CA_5
REMARK    6  A    between atoms: CA_5  and  C_6
REMARK    7  A    between atoms: CA_5  and  C_16
REMARK    8  A    between atoms: C_6  and  N_7
REMARK    9  A    between atoms: N_7  and  CA_8
REMARK   10  A    between atoms: CA_8  and  CB_9
REMARK   11  A    between atoms: CA_8  and  C_13
REMARK   12  A    between atoms: CB_9  and  CG_10
REMARK   13  A    between atoms: CG_10  and  OD2_12
REMARK   14  A    between atoms: C_13  and  OXT_15
REMARK   15  A    between atoms: C_16  and  OXT_18
REMARK   16  A    between atoms: C_19  and  OXT_21
REMARK                            x       y       z     vdW  Elec       q    Type
REMARK                         _______ _______ _______ _____ _____    ______ ____
ROOT
ATOM      1  CA  ASP A   1       4.063   5.989  18.002  0.00  0.00    +0.000 C 
ENDROOT
BRANCH   1   2
ATOM      2  N   ASP A   1       4.964   6.584  16.957  0.00  0.00    +0.000 NA
ATOM      3  H   ASP A   1       4.905   6.006  16.113  0.00  0.00    +0.000 HD
BRANCH   2   4
ATOM      4  C   ASP A   1       6.367   6.582  17.469  0.00  0.00    +0.000 C 
BRANCH   4   5
ATOM      5  CA  ASP A   1       7.213   5.306  17.213  0.00  0.00    +0.000 C 
BRANCH   5   6
ATOM      6  N   ASP A   1       7.016   4.254  18.230  0.00  0.00    +0.000 NA
ATOM      7  H1  ASP A   1       7.405   3.365  17.911  0.00  0.00    +0.000 HD
ATOM      8  H2  ASP A   1       6.013   4.077  18.331  0.00  0.00    +0.000 HD
ENDBRANCH   5   6
BRANCH   5   9
ATOM      9  C   ASP A   1       6.841   4.760  15.821  0.00  0.00    +0.000 C 
ATOM     10  O   ASP A   1       6.019   3.885  15.596  0.00  0.00    +0.000 OA
BRANCH   9  11
ATOM     11  OXT ASP A   1       7.585   5.315  14.824  0.00  0.00    +0.000 OA
ATOM     12  HXT ASP A   1       7.733   4.720  14.068  0.00  0.00    +0.000 HD
ENDBRANCH   9  11
ENDBRANCH   5   9
ENDBRANCH   4   5
ENDBRANCH   2   4
ENDBRANCH   1   2
BRANCH   1  13
ATOM     13  C   ASP A   1       3.013   7.037  18.389  0.00  0.00    +0.000 C 
ATOM     14  O   ASP A   1       2.266   6.953  19.350  0.00  0.00    +0.000 OA
BRANCH  13  15
ATOM     15  OXT ASP A   1       2.971   8.053  17.485  0.00  0.00    +0.000 OA
ATOM     16  HXT ASP A   1       2.134   8.555  17.653  0.00  0.00    +0.000 HD
ENDBRANCH  13  15
ENDBRANCH   1  13
BRANCH   1  17
ATOM     17  C   ASP A   1       3.245   4.750  17.540  0.00  0.00    +0.000 C 
BRANCH  17  18
ATOM     18  N   ASP A   1       3.860   3.450  17.871  0.00  0.00    +0.000 NA
ATOM     19  H   ASP A   1       4.863   3.514  17.663  0.00  0.00    +0.000 HD
BRANCH  18  20
ATOM     20  CA  ASP A   1       3.734   3.136  19.336  0.00  0.00    +0.000 C 
BRANCH  20  21
ATOM     21  C   ASP A   1       4.495   1.831  19.617  0.00  0.00    +0.000 C 
ATOM     22  O   ASP A   1       5.173   1.636  20.615  0.00  0.00    +0.000 OA
BRANCH  21  23
ATOM     23  OXT ASP A   1       4.281   0.896  18.664  0.00  0.00    +0.000 OA
ATOM     24  HXT ASP A   1       4.952   1.031  17.950  0.00  0.00    +0.000 HD
ENDBRANCH  21  23
ENDBRANCH  20  21
BRANCH  20  25
ATOM     25  CB  ASP A   1       2.324   2.978  19.931  0.00  0.00    +0.000 C 
BRANCH  25  26
ATOM     26  CG  ASP A   1       2.200   3.591  21.305  0.00  0.00    +0.000 C 
ATOM     27  OD1 ASP A   1       1.912   2.970  22.317  0.00  0.00    +0.000 OA
BRANCH  26  28
ATOM     28  OD2 ASP A   1       2.407   4.927  21.323  0.00  0.00    +0.000 OA
ATOM     29  HD2 ASP A   1       2.162   5.379  22.152  0.00  0.00    +0.000 HD
ENDBRANCH  26  28
ENDBRANCH  25  26
ENDBRANCH  20  25
ENDBRANCH  18  20
ENDBRANCH  17  18
ENDBRANCH   1  17
TORSDOF 16
ENDMDL
MODEL 7
REMARK VINA RESULT:      -5.9      2.051      2.565
REMARK  Name = 
REMARK  16 active torsions:
REMARK  status: ('A' for Active; 'I' for Inactive)
REMARK    1  A    between atoms: N_1  and  CA_2
REMARK    2  A    between atoms: CA_2  and  C_3
REMARK    3  A    between atoms: CA_2  and  C_19
REMARK    4  A    between atoms: C_3  and  N_4
REMARK    5  A    between atoms: N_4  and  CA_5
REMARK    6  A    between atoms: CA_5  and  C_6
REMARK    7  A    between atoms: CA_5  and  C_16
REMARK    8  A    between atoms: C_6  and  N_7
REMARK    9  A    between atoms: N_7  and  CA_8
REMARK   10  A    between atoms: CA_8  and  CB_9
REMARK   11  A    between atoms: CA_8  and  C_13
REMARK   12  A    between atoms: CB_9  and  CG_10
REMARK   13  A    between atoms: CG_10  and  OD2_12
REMARK   14  A    between atoms: C_13  and  OXT_15
REMARK   15  A    between atoms: C_16  and  OXT_18
REMARK   16  A    between atoms: C_19  and  OXT_21
REMARK                            x       y       z     vdW  Elec       q    Type
REMARK                         _______ _______ _______ _____ _____    ______ ____
ROOT
ATOM      1  CA  ASP A   1       4.574   4.679  19.437  0.00  0.00    +0.000 C 
ENDROOT
BRANCH   1   2
ATOM      2  N   ASP A   1       3.604   5.137  18.386  0.00  0.00    +0.000 NA
ATOM      3  H   ASP A   1       3.813   6.114  18.158  0.00  0.00    +0.000 HD
BRANCH   2   4
ATOM      4  C   ASP A   1       2.217   5.034  18.929  0.00  0.00    +0.000 C 
BRANCH   4   5
ATOM      5  CA  ASP A   1       1.293   3.952  18.308  0.00  0.00    +0.000 C 
BRANCH   5   6
ATOM      6  N   ASP A   1       1.797   3.408  17.031  0.00  0.00    +0.000 NA
ATOM      7  H1  ASP A   1       1.079   2.851  16.566  0.00  0.00    +0.000 HD
ATOM      8  H2  ASP A   1       2.551   2.745  17.230  0.00  0.00    +0.000 HD
ENDBRANCH   5   6
BRANCH   5   9
ATOM      9  C   ASP A   1       1.138   2.813  19.333  0.00  0.00    +0.000 C 
ATOM     10  O   ASP A   1       1.630   1.699  19.240  0.00  0.00    +0.000 OA
BRANCH   9  11
ATOM     11  OXT ASP A   1       0.316   3.147  20.367  0.00  0.00    +0.000 OA
ATOM     12  HXT ASP A   1       0.118   4.099  20.418  0.00  0.00    +0.000 HD
ENDBRANCH   9  11
ENDBRANCH   5   9
ENDBRANCH   4   5
ENDBRANCH   2   4
ENDBRANCH   1   2
BRANCH   1  13
ATOM     13  C   ASP A   1       4.706   3.154  19.343  0.00  0.00    +0.000 C 
ATOM     14  O   ASP A   1       5.050   2.427  20.260  0.00  0.00    +0.000 OA
BRANCH  13  15
ATOM     15  OXT ASP A   1       4.449   2.712  18.082  0.00  0.00    +0.000 OA
ATOM     16  HXT ASP A   1       5.314   2.690  17.601  0.00  0.00    +0.000 HD
ENDBRANCH  13  15
ENDBRANCH   1  13
BRANCH   1  17
ATOM     17  C   ASP A   1       6.023   5.219  19.277  0.00  0.00    +0.000 C 
BRANCH  17  18
ATOM     18  N   ASP A   1       6.872   4.438  18.356  0.00  0.00    +0.000 NA
ATOM     19  H   ASP A   1       6.282   3.722  17.916  0.00  0.00    +0.000 HD
BRANCH  18  20
ATOM     20  CA  ASP A   1       7.420   5.296  17.249  0.00  0.00    +0.000 C 
BRANCH  20  21
ATOM     21  C   ASP A   1       7.592   6.725  17.786  0.00  0.00    +0.000 C 
ATOM     22  O   ASP A   1       8.312   7.020  18.728  0.00  0.00    +0.000 OA
BRANCH  21  23
ATOM     23  OXT ASP A   1       6.904   7.634  17.058  0.00  0.00    +0.000 OA
ATOM     24  HXT ASP A   1       5.968   7.637  17.382  0.00  0.00    +0.000 HD
ENDBRANCH  21  23
ENDBRANCH  20  21
BRANCH  20  25
ATOM     25  CB  ASP A   1       6.623   5.394  15.938  0.00  0.00    +0.000 C 
BRANCH  25  26
ATOM     26  CG  ASP A   1       5.663   4.244  15.752  0.00  0.00    +0.000 C 
ATOM     27  OD1 ASP A   1       4.446   4.352  15.737  0.00  0.00    +0.000 OA
BRANCH  26  28
ATOM     28  OD2 ASP A   1       6.273   3.043  15.634  0.00  0.00    +0.000 OA
ATOM     29  HD2 ASP A   1       6.016   2.374  16.295  0.00  0.00    +0.000 HD
ENDBRANCH  26  28
ENDBRANCH  25  26
ENDBRANCH  20  25
ENDBRANCH  18  20
ENDBRANCH  17  18
ENDBRANCH   1  17
TORSDOF 16
ENDMDL
MODEL 8
REMARK VINA RESULT:      -5.9      2.033      6.503
REMARK  Name = 
REMARK  16 active torsions:
REMARK  status: ('A' for Active; 'I' for Inactive)
REMARK    1  A    between atoms: N_1  and  CA_2
REMARK    2  A    between atoms: CA_2  and  C_3
REMARK    3  A    between atoms: CA_2  and  C_19
REMARK    4  A    between atoms: C_3  and  N_4
REMARK    5  A    between atoms: N_4  and  CA_5
REMARK    6  A    between atoms: CA_5  and  C_6
REMARK    7  A    between atoms: CA_5  and  C_16
REMARK    8  A    between atoms: C_6  and  N_7
REMARK    9  A    between atoms: N_7  and  CA_8
REMARK   10  A    between atoms: CA_8  and  CB_9
REMARK   11  A    between atoms: CA_8  and  C_13
REMARK   12  A    between atoms: CB_9  and  CG_10
REMARK   13  A    between atoms: CG_10  and  OD2_12
REMARK   14  A    between atoms: C_13  and  OXT_15
REMARK   15  A    between atoms: C_16  and  OXT_18
REMARK   16  A    between atoms: C_19  and  OXT_21
REMARK                            x       y       z     vdW  Elec       q    Type
REMARK                         _______ _______ _______ _____ _____    ______ ____
ROOT
ATOM      1  CA  ASP A   1       3.851   3.249  17.289  0.00  0.00    +0.000 C 
ENDROOT
BRANCH   1   2
ATOM      2  N   ASP A   1       5.155   3.982  17.142  0.00  0.00    +0.000 NA
ATOM      3  H   ASP A   1       5.558   4.115  18.074  0.00  0.00    +0.000 HD
BRANCH   2   4
ATOM      4  C   ASP A   1       4.895   5.310  16.512  0.00  0.00    +0.000 C 
BRANCH   4   5
ATOM      5  CA  ASP A   1       6.133   6.145  16.086  0.00  0.00    +0.000 C 
BRANCH   5   6
ATOM      6  N   ASP A   1       6.573   7.114  17.110  0.00  0.00    +0.000 NA
ATOM      7  H1  ASP A   1       6.494   8.070  16.762  0.00  0.00    +0.000 HD
ATOM      8  H2  ASP A   1       7.573   6.982  17.280  0.00  0.00    +0.000 HD
ENDBRANCH   5   6
BRANCH   5   9
ATOM      9  C   ASP A   1       7.281   5.168  15.769  0.00  0.00    +0.000 C 
ATOM     10  O   ASP A   1       7.871   4.475  16.583  0.00  0.00    +0.000 OA
BRANCH   9  11
ATOM     11  OXT ASP A   1       7.639   5.190  14.455  0.00  0.00    +0.000 OA
ATOM     12  HXT ASP A   1       7.054   4.664  13.880  0.00  0.00    +0.000 HD
ENDBRANCH   9  11
ENDBRANCH   5   9
ENDBRANCH   4   5
ENDBRANCH   2   4
ENDBRANCH   1   2
BRANCH   1  13
ATOM     13  C   ASP A   1       3.965   2.294  18.483  0.00  0.00    +0.000 C 
ATOM     14  O   ASP A   1       3.326   1.263  18.614  0.00  0.00    +0.000 OA
BRANCH  13  15
ATOM     15  OXT ASP A   1       4.829   2.773  19.419  0.00  0.00    +0.000 OA
ATOM     16  HXT ASP A   1       5.735   2.740  19.021  0.00  0.00    +0.000 HD
ENDBRANCH  13  15
ENDBRANCH   1  13
BRANCH   1  17
ATOM     17  C   ASP A   1       2.622   4.147  17.606  0.00  0.00    +0.000 C 
BRANCH  17  18
ATOM     18  N   ASP A   1       1.896   3.781  18.838  0.00  0.00    +0.000 NA
ATOM     19  H   ASP A   1       2.402   3.007  19.283  0.00  0.00    +0.000 HD
BRANCH  18  20
ATOM     20  CA  ASP A   1       1.874   4.916  19.824  0.00  0.00    +0.000 C 
BRANCH  20  21
ATOM     21  C   ASP A   1       2.905   5.964  19.378  0.00  0.00    +0.000 C 
ATOM     22  O   ASP A   1       2.626   6.976  18.754  0.00  0.00    +0.000 OA
BRANCH  21  23
ATOM     23  OXT ASP A   1       4.154   5.671  19.809  0.00  0.00    +0.000 OA
ATOM     24  HXT ASP A   1       4.598   6.522  20.051  0.00  0.00    +0.000 HD
ENDBRANCH  21  23
ENDBRANCH  20  21
BRANCH  20  25
ATOM     25  CB  ASP A   1       2.152   4.603  21.304  0.00  0.00    +0.000 C 
BRANCH  25  26
ATOM     26  CG  ASP A   1       2.049   3.130  21.617  0.00  0.00    +0.000 C 
ATOM     27  OD1 ASP A   1       2.993   2.420  21.929  0.00  0.00    +0.000 OA
BRANCH  26  28
ATOM     28  OD2 ASP A   1       0.797   2.636  21.489  0.00  0.00    +0.000 OA
ATOM     29  HD2 ASP A   1       0.620   1.810  21.977  0.00  0.00    +0.000 HD
ENDBRANCH  26  28
ENDBRANCH  25  26
ENDBRANCH  20  25
ENDBRANCH  18  20
ENDBRANCH  17  18
ENDBRANCH   1  17
TORSDOF 16
ENDMDL
MODEL 9
REMARK VINA RESULT:      -5.8      2.182      3.193
REMARK  Name = 
REMARK  16 active torsions:
REMARK  status: ('A' for Active; 'I' for Inactive)
REMARK    1  A    between atoms: N_1  and  CA_2
REMARK    2  A    between atoms: CA_2  and  C_3
REMARK    3  A    between atoms: CA_2  and  C_19
REMARK    4  A    between atoms: C_3  and  N_4
REMARK    5  A    between atoms: N_4  and  CA_5
REMARK    6  A    between atoms: CA_5  and  C_6
REMARK    7  A    between atoms: CA_5  and  C_16
REMARK    8  A    between atoms: C_6  and  N_7
REMARK    9  A    between atoms: N_7  and  CA_8
REMARK   10  A    between atoms: CA_8  and  CB_9
REMARK   11  A    between atoms: CA_8  and  C_13
REMARK   12  A    between atoms: CB_9  and  CG_10
REMARK   13  A    between atoms: CG_10  and  OD2_12
REMARK   14  A    between atoms: C_13  and  OXT_15
REMARK   15  A    between atoms: C_16  and  OXT_18
REMARK   16  A    between atoms: C_19  and  OXT_21
REMARK                            x       y       z     vdW  Elec       q    Type
REMARK                         _______ _______ _______ _____ _____    ______ ____
ROOT
ATOM      1  CA  ASP A   1       4.052   3.257  17.816  0.00  0.00    +0.000 C 
ENDROOT
BRANCH   1   2
ATOM      2  N   ASP A   1       3.646   2.206  18.810  0.00  0.00    +0.000 NA
ATOM      3  H   ASP A   1       2.811   1.731  18.455  0.00  0.00    +0.000 HD
BRANCH   2   4
ATOM      4  C   ASP A   1       3.334   2.865  20.113  0.00  0.00    +0.000 C 
BRANCH   4   5
ATOM      5  CA  ASP A   1       1.987   2.492  20.789  0.00  0.00    +0.000 C 
BRANCH   5   6
ATOM      6  N   ASP A   1       1.988   2.686  22.253  0.00  0.00    +0.000 NA
ATOM      7  H1  ASP A   1       1.239   3.320  22.534  0.00  0.00    +0.000 HD
ATOM      8  H2  ASP A   1       2.850   3.168  22.521  0.00  0.00    +0.000 HD
ENDBRANCH   5   6
BRANCH   5   9
ATOM      9  C   ASP A   1       0.880   3.353  20.151  0.00  0.00    +0.000 C 
ATOM     10  O   ASP A   1       0.690   4.541  20.363  0.00  0.00    +0.000 OA
BRANCH   9  11
ATOM     11  OXT ASP A   1       0.054   2.630  19.344  0.00  0.00    +0.000 OA
ATOM     12  HXT ASP A   1       0.339   2.605  18.413  0.00  0.00    +0.000 HD
ENDBRANCH   9  11
ENDBRANCH   5   9
ENDBRANCH   4   5
ENDBRANCH   2   4
ENDBRANCH   1   2
BRANCH   1  13
ATOM     13  C   ASP A   1       2.805   4.058  17.422  0.00  0.00    +0.000 C 
ATOM     14  O   ASP A   1       1.805   3.582  16.908  0.00  0.00    +0.000 OA
BRANCH  13  15
ATOM     15  OXT ASP A   1       2.974   5.387  17.659  0.00  0.00    +0.000 OA
ATOM     16  HXT ASP A   1       2.075   5.801  17.638  0.00  0.00    +0.000 HD
ENDBRANCH  13  15
ENDBRANCH   1  13
BRANCH   1  17
ATOM     17  C   ASP A   1       5.058   4.316  18.350  0.00  0.00    +0.000 C 
BRANCH  17  18
ATOM     18  N   ASP A   1       6.463   3.868  18.379  0.00  0.00    +0.000 NA
ATOM     19  H   ASP A   1       6.548   3.056  17.756  0.00  0.00    +0.000 HD
BRANCH  18  20
ATOM     20  CA  ASP A   1       7.392   4.926  17.849  0.00  0.00    +0.000 C 
BRANCH  20  21
ATOM     21  C   ASP A   1       7.724   5.894  18.995  0.00  0.00    +0.000 C 
ATOM     22  O   ASP A   1       7.635   5.608  20.180  0.00  0.00    +0.000 OA
BRANCH  21  23
ATOM     23  OXT ASP A   1       8.187   7.083  18.546  0.00  0.00    +0.000 OA
ATOM     24  HXT ASP A   1       9.112   7.194  18.880  0.00  0.00    +0.000 HD
ENDBRANCH  21  23
ENDBRANCH  20  21
BRANCH  20  25
ATOM     25  CB  ASP A   1       6.926   5.775  16.655  0.00  0.00    +0.000 C 
BRANCH  25  26
ATOM     26  CG  ASP A   1       6.949   5.012  15.353  0.00  0.00    +0.000 C 
ATOM     27  OD1 ASP A   1       6.299   4.002  15.131  0.00  0.00    +0.000 OA
BRANCH  26  28
ATOM     28  OD2 ASP A   1       7.797   5.530  14.436  0.00  0.00    +0.000 OA
ATOM     29  HD2 ASP A   1       8.418   4.896  14.033  0.00  0.00    +0.000 HD
ENDBRANCH  26  28
ENDBRANCH  25  26
ENDBRANCH  20  25
ENDBRANCH  18  20
ENDBRANCH  17  18
ENDBRANCH   1  17
TORSDOF 16
ENDMDL
