MODEL 1
REMARK VINA RESULT:      -9.0      0.000      0.000
REMARK  Name = 
REMARK  7 active torsions:
REMARK  status: ('A' for Active; 'I' for Inactive)
REMARK    1  A    between atoms: C_1  and  O_2
REMARK    2  A    between atoms: O_2  and  C_3
REMARK    3  A    between atoms: C_9  and  C_10
REMARK    4  A    between atoms: C_14  and  C_15
REMARK    5  A    between atoms: C_19  and  N_20
REMARK    6  A    between atoms: N_23  and  C_24
REMARK    7  A    between atoms: C_24  and  C_25
REMARK                            x       y       z     vdW  Elec       q    Type
REMARK                         _______ _______ _______ _____ _____    ______ ____
ROOT
ATOM      1  C   UNL     1      -2.529  12.418  22.311  0.00  0.00    +0.000 A 
ATOM      2  C   UNL     1      -2.173  12.255  20.902  0.00  0.00    +0.000 A 
ATOM      3  C   UNL     1      -1.234  11.364  20.553  0.00  0.00    +0.000 A 
ATOM      4  N   UNL     1      -0.559  10.638  21.541  0.00  0.00    +0.000 N 
ATOM      5  C   UNL     1       0.439   9.668  21.442  0.00  0.00    +0.000 A 
ATOM      6  C   UNL     1       0.668   9.292  22.759  0.00  0.00    +0.000 A 
ATOM      7  N   UNL     1      -0.116   9.989  23.640  0.00  0.00    +0.000 NA
ATOM      8  C   UNL     1      -0.842  10.796  22.896  0.00  0.00    +0.000 A 
ATOM      9  C   UNL     1      -1.865  11.722  23.263  0.00  0.00    +0.000 A 
ENDROOT
BRANCH   1  16
ATOM     10  C   UNL     1      -3.573  14.613  22.842  0.00  0.00    +0.000 A 
ATOM     11  C   UNL     1      -4.706  15.256  23.292  0.00  0.00    +0.000 A 
ATOM     12  N   UNL     1      -5.852  14.621  23.612  0.00  0.00    +0.000 NA
ATOM     13  C   UNL     1      -5.837  13.290  23.452  0.00  0.00    +0.000 A 
ATOM     14 CL   UNL     1      -7.273  12.465  23.862  0.00  0.00    +0.000 Cl
ATOM     15  N   UNL     1      -4.819  12.543  23.020  0.00  0.00    +0.000 NA
ATOM     16  C   UNL     1      -3.697  13.229  22.716  0.00  0.00    +0.000 A 
BRANCH  10  18
ATOM     17  C   UNL     1      -2.483  16.388  21.709  0.00  0.00    +0.000 C 
ATOM     18  O   UNL     1      -2.394  15.202  22.492  0.00  0.00    +0.000 OA
ENDBRANCH  10  18
ENDBRANCH   1  16
BRANCH   5  19
ATOM     19  C   UNL     1       1.061   9.182  20.205  0.00  0.00    +0.000 A 
ATOM     20  C   UNL     1       0.885   9.877  19.003  0.00  0.00    +0.000 A 
ATOM     21  C   UNL     1       1.411   9.386  17.815  0.00  0.00    +0.000 A 
ATOM     22  C   UNL     1       2.172   8.221  17.819  0.00  0.00    +0.000 A 
ATOM     23  C   UNL     1       2.424   7.529  19.005  0.00  0.00    +0.000 A 
ATOM     24  C   UNL     1       1.858   8.017  20.199  0.00  0.00    +0.000 A 
BRANCH  23  25
ATOM     25  N   UNL     1       3.208   6.348  19.054  0.00  0.00    +0.000 N 
ATOM     26  C   UNL     1       2.724   5.058  19.121  0.00  0.00    +0.000 C 
ATOM     27  O   UNL     1       1.553   4.699  19.090  0.00  0.00    +0.000 OA
ATOM     28  N   UNL     1       3.725   4.128  19.302  0.00  0.00    +0.000 N 
ATOM     29  H   UNL     1       4.210   6.465  19.074  0.00  0.00    +0.000 HD
ATOM     30  H   UNL     1       4.613   4.322  18.863  0.00  0.00    +0.000 HD
BRANCH  28  31
ATOM     31  C   UNL     1       3.330   2.715  19.424  0.00  0.00    +0.000 C 
BRANCH  31  32
ATOM     32  C   UNL     1       3.435   1.870  18.147  0.00  0.00    +0.000 C 
ATOM     33  F   UNL     1       2.244   1.751  17.514  0.00  0.00    +0.000 F 
ATOM     34  F   UNL     1       4.282   2.468  17.270  0.00  0.00    +0.000 F 
ATOM     35  F   UNL     1       3.914   0.631  18.383  0.00  0.00    +0.000 F 
ENDBRANCH  31  32
ENDBRANCH  28  31
ENDBRANCH  23  25
ENDBRANCH   5  19
TORSDOF 6
ENDMDL
MODEL 2
REMARK VINA RESULT:      -8.6      4.331      6.558
REMARK  Name = 
REMARK  7 active torsions:
REMARK  status: ('A' for Active; 'I' for Inactive)
REMARK    1  A    between atoms: C_1  and  O_2
REMARK    2  A    between atoms: O_2  and  C_3
REMARK    3  A    between atoms: C_9  and  C_10
REMARK    4  A    between atoms: C_14  and  C_15
REMARK    5  A    between atoms: C_19  and  N_20
REMARK    6  A    between atoms: N_23  and  C_24
REMARK    7  A    between atoms: C_24  and  C_25
REMARK                            x       y       z     vdW  Elec       q    Type
REMARK                         _______ _______ _______ _____ _____    ______ ____
ROOT
ATOM      1  C   UNL     1       1.239   8.839  18.901  0.00  0.00    +0.000 A 
ATOM      2  C   UNL     1       2.448   8.862  18.078  0.00  0.00    +0.000 A 
ATOM      3  C   UNL     1       3.332   7.858  18.168  0.00  0.00    +0.000 A 
ATOM      4  N   UNL     1       3.124   6.825  19.088  0.00  0.00    +0.000 N 
ATOM      5  C   UNL     1       3.878   5.686  19.371  0.00  0.00    +0.000 A 
ATOM      6  C   UNL     1       3.136   5.029  20.343  0.00  0.00    +0.000 A 
ATOM      7  N   UNL     1       1.996   5.713  20.674  0.00  0.00    +0.000 NA
ATOM      8  C   UNL     1       2.005   6.790  19.918  0.00  0.00    +0.000 A 
ATOM      9  C   UNL     1       1.049   7.843  19.797  0.00  0.00    +0.000 A 
ENDROOT
BRANCH   1  16
ATOM     10  C   UNL     1      -0.138  10.770  19.652  0.00  0.00    +0.000 A 
ATOM     11  C   UNL     1      -1.222  11.574  19.370  0.00  0.00    +0.000 A 
ATOM     12  N   UNL     1      -1.979  11.452  18.261  0.00  0.00    +0.000 NA
ATOM     13  C   UNL     1      -1.603  10.485  17.410  0.00  0.00    +0.000 A 
ATOM     14 CL   UNL     1      -2.552  10.305  16.006  0.00  0.00    +0.000 Cl
ATOM     15  N   UNL     1      -0.576   9.644  17.552  0.00  0.00    +0.000 NA
ATOM     16  C   UNL     1       0.146   9.809  18.681  0.00  0.00    +0.000 A 
BRANCH  10  18
ATOM     17  C   UNL     1       0.033  10.742  22.016  0.00  0.00    +0.000 C 
ATOM     18  O   UNL     1       0.668  10.855  20.748  0.00  0.00    +0.000 OA
ENDBRANCH  10  18
ENDBRANCH   1  16
BRANCH   5  19
ATOM     19  C   UNL     1       5.151   5.307  18.745  0.00  0.00    +0.000 A 
ATOM     20  C   UNL     1       6.366   5.647  19.351  0.00  0.00    +0.000 A 
ATOM     21  C   UNL     1       7.575   5.355  18.732  0.00  0.00    +0.000 A 
ATOM     22  C   UNL     1       7.589   4.666  17.523  0.00  0.00    +0.000 A 
ATOM     23  C   UNL     1       6.403   4.253  16.915  0.00  0.00    +0.000 A 
ATOM     24  C   UNL     1       5.181   4.584  17.534  0.00  0.00    +0.000 A 
BRANCH  23  25
ATOM     25  N   UNL     1       6.375   3.535  15.692  0.00  0.00    +0.000 N 
ATOM     26  C   UNL     1       6.249   4.084  14.433  0.00  0.00    +0.000 C 
ATOM     27  O   UNL     1       6.199   5.273  14.140  0.00  0.00    +0.000 OA
ATOM     28  N   UNL     1       6.108   3.127  13.451  0.00  0.00    +0.000 N 
ATOM     29  H   UNL     1       6.420   2.528  15.752  0.00  0.00    +0.000 HD
ATOM     30  H   UNL     1       6.607   2.259  13.586  0.00  0.00    +0.000 HD
BRANCH  28  31
ATOM     31  C   UNL     1       5.930   3.591  12.066  0.00  0.00    +0.000 C 
BRANCH  31  32
ATOM     32  C   UNL     1       4.602   3.216  11.391  0.00  0.00    +0.000 C 
ATOM     33  F   UNL     1       4.645   1.986  10.828  0.00  0.00    +0.000 F 
ATOM     34  F   UNL     1       3.611   3.184  12.319  0.00  0.00    +0.000 F 
ATOM     35  F   UNL     1       4.234   4.103  10.445  0.00  0.00    +0.000 F 
ENDBRANCH  31  32
ENDBRANCH  28  31
ENDBRANCH  23  25
ENDBRANCH   5  19
TORSDOF 6
ENDMDL
MODEL 3
REMARK VINA RESULT:      -8.5      4.533      6.448
REMARK  Name = 
REMARK  7 active torsions:
REMARK  status: ('A' for Active; 'I' for Inactive)
REMARK    1  A    between atoms: C_1  and  O_2
REMARK    2  A    between atoms: O_2  and  C_3
REMARK    3  A    between atoms: C_9  and  C_10
REMARK    4  A    between atoms: C_14  and  C_15
REMARK    5  A    between atoms: C_19  and  N_20
REMARK    6  A    between atoms: N_23  and  C_24
REMARK    7  A    between atoms: C_24  and  C_25
REMARK                            x       y       z     vdW  Elec       q    Type
REMARK                         _______ _______ _______ _____ _____    ______ ____
ROOT
ATOM      1  C   UNL     1       1.206   9.114  18.684  0.00  0.00    +0.000 A 
ATOM      2  C   UNL     1       2.386   9.030  17.824  0.00  0.00    +0.000 A 
ATOM      3  C   UNL     1       3.235   8.002  17.958  0.00  0.00    +0.000 A 
ATOM      4  N   UNL     1       3.021   7.046  18.957  0.00  0.00    +0.000 N 
ATOM      5  C   UNL     1       3.741   5.901  19.297  0.00  0.00    +0.000 A 
ATOM      6  C   UNL     1       3.010   5.345  20.338  0.00  0.00    +0.000 A 
ATOM      7  N   UNL     1       1.907   6.094  20.654  0.00  0.00    +0.000 NA
ATOM      8  C   UNL     1       1.930   7.114  19.822  0.00  0.00    +0.000 A 
ATOM      9  C   UNL     1       1.010   8.193  19.655  0.00  0.00    +0.000 A 
ENDROOT
BRANCH   1  16
ATOM     10  C   UNL     1       0.196  11.358  19.045  0.00  0.00    +0.000 A 
ATOM     11  C   UNL     1      -0.884  12.176  18.789  0.00  0.00    +0.000 A 
ATOM     12  N   UNL     1      -1.934  11.814  18.023  0.00  0.00    +0.000 NA
ATOM     13  C   UNL     1      -1.866  10.584  17.495  0.00  0.00    +0.000 A 
ATOM     14 CL   UNL     1      -3.188  10.102  16.532  0.00  0.00    +0.000 Cl
ATOM     15  N   UNL     1      -0.882   9.695  17.652  0.00  0.00    +0.000 NA
ATOM     16  C   UNL     1       0.142  10.108  18.429  0.00  0.00    +0.000 A 
BRANCH  10  18
ATOM     17  C   UNL     1       2.078  12.768  19.347  0.00  0.00    +0.000 C 
ATOM     18  O   UNL     1       1.288  11.674  19.798  0.00  0.00    +0.000 OA
ENDBRANCH  10  18
ENDBRANCH   1  16
BRANCH   5  19
ATOM     19  C   UNL     1       4.977   5.429  18.661  0.00  0.00    +0.000 A 
ATOM     20  C   UNL     1       6.223   5.733  19.221  0.00  0.00    +0.000 A 
ATOM     21  C   UNL     1       7.399   5.352  18.589  0.00  0.00    +0.000 A 
ATOM     22  C   UNL     1       7.348   4.608  17.414  0.00  0.00    +0.000 A 
ATOM     23  C   UNL     1       6.127   4.229  16.853  0.00  0.00    +0.000 A 
ATOM     24  C   UNL     1       4.940   4.651  17.485  0.00  0.00    +0.000 A 
BRANCH  23  25
ATOM     25  N   UNL     1       6.032   3.458  15.667  0.00  0.00    +0.000 N 
ATOM     26  C   UNL     1       6.017   3.953  14.379  0.00  0.00    +0.000 C 
ATOM     27  O   UNL     1       6.142   5.119  14.027  0.00  0.00    +0.000 OA
ATOM     28  N   UNL     1       5.771   2.973  13.441  0.00  0.00    +0.000 N 
ATOM     29  H   UNL     1       5.934   2.460  15.777  0.00  0.00    +0.000 HD
ATOM     30  H   UNL     1       6.140   2.053  13.635  0.00  0.00    +0.000 HD
BRANCH  28  31
ATOM     31  C   UNL     1       5.696   3.384  12.030  0.00  0.00    +0.000 C 
BRANCH  31  32
ATOM     32  C   UNL     1       4.310   3.300  11.372  0.00  0.00    +0.000 C 
ATOM     33  F   UNL     1       4.020   4.407  10.651  0.00  0.00    +0.000 F 
ATOM     34  F   UNL     1       4.277   2.254  10.507  0.00  0.00    +0.000 F 
ATOM     35  F   UNL     1       3.322   3.107  12.270  0.00  0.00    +0.000 F 
ENDBRANCH  31  32
ENDBRANCH  28  31
ENDBRANCH  23  25
ENDBRANCH   5  19
TORSDOF 6
ENDMDL
MODEL 4
REMARK VINA RESULT:      -8.5      5.858     10.784
REMARK  Name = 
REMARK  7 active torsions:
REMARK  status: ('A' for Active; 'I' for Inactive)
REMARK    1  A    between atoms: C_1  and  O_2
REMARK    2  A    between atoms: O_2  and  C_3
REMARK    3  A    between atoms: C_9  and  C_10
REMARK    4  A    between atoms: C_14  and  C_15
REMARK    5  A    between atoms: C_19  and  N_20
REMARK    6  A    between atoms: N_23  and  C_24
REMARK    7  A    between atoms: C_24  and  C_25
REMARK                            x       y       z     vdW  Elec       q    Type
REMARK                         _______ _______ _______ _____ _____    ______ ____
ROOT
ATOM      1  C   UNL     1       4.383   5.804  17.075  0.00  0.00    +0.000 A 
ATOM      2  C   UNL     1       3.921   7.189  16.993  0.00  0.00    +0.000 A 
ATOM      3  C   UNL     1       3.126   7.683  17.953  0.00  0.00    +0.000 A 
ATOM      4  N   UNL     1       2.696   6.856  18.996  0.00  0.00    +0.000 N 
ATOM      5  C   UNL     1       1.882   7.121  20.098  0.00  0.00    +0.000 A 
ATOM      6  C   UNL     1       1.857   5.918  20.791  0.00  0.00    +0.000 A 
ATOM      7  N   UNL     1       2.590   4.945  20.163  0.00  0.00    +0.000 NA
ATOM      8  C   UNL     1       3.081   5.519  19.086  0.00  0.00    +0.000 A 
ATOM      9  C   UNL     1       3.954   5.006  18.080  0.00  0.00    +0.000 A 
ENDROOT
BRANCH   1  16
ATOM     10  C   UNL     1       6.768   5.548  16.416  0.00  0.00    +0.000 A 
ATOM     11  C   UNL     1       7.641   5.079  15.458  0.00  0.00    +0.000 A 
ATOM     12  N   UNL     1       7.252   4.434  14.340  0.00  0.00    +0.000 NA
ATOM     13  C   UNL     1       5.929   4.254  14.209  0.00  0.00    +0.000 A 
ATOM     14 CL   UNL     1       5.413   3.450  12.796  0.00  0.00    +0.000 Cl
ATOM     15  N   UNL     1       4.977   4.646  15.058  0.00  0.00    +0.000 NA
ATOM     16  C   UNL     1       5.422   5.288  16.159  0.00  0.00    +0.000 A 
BRANCH  10  18
ATOM     17  C   UNL     1       7.636   5.391  18.617  0.00  0.00    +0.000 C 
ATOM     18  O   UNL     1       7.104   6.194  17.569  0.00  0.00    +0.000 OA
ENDBRANCH  10  18
ENDBRANCH   1  16
BRANCH   5  19
ATOM     19  C   UNL     1       1.235   8.400  20.414  0.00  0.00    +0.000 A 
ATOM     20  C   UNL     1       1.207   8.873  21.731  0.00  0.00    +0.000 A 
ATOM     21  C   UNL     1       0.536  10.046  22.052  0.00  0.00    +0.000 A 
ATOM     22  C   UNL     1      -0.070  10.797  21.049  0.00  0.00    +0.000 A 
ATOM     23  C   UNL     1      -0.014  10.395  19.714  0.00  0.00    +0.000 A 
ATOM     24  C   UNL     1       0.640   9.186  19.405  0.00  0.00    +0.000 A 
BRANCH  23  25
ATOM     25  N   UNL     1      -0.605  11.140  18.661  0.00  0.00    +0.000 N 
ATOM     26  C   UNL     1      -1.779  10.827  18.007  0.00  0.00    +0.000 C 
ATOM     27  O   UNL     1      -2.543   9.901  18.251  0.00  0.00    +0.000 OA
ATOM     28  N   UNL     1      -2.023  11.657  16.935  0.00  0.00    +0.000 N 
ATOM     29  H   UNL     1      -0.103  11.954  18.341  0.00  0.00    +0.000 HD
ATOM     30  H   UNL     1      -1.724  12.618  17.024  0.00  0.00    +0.000 HD
BRANCH  28  31
ATOM     31  C   UNL     1      -3.230  11.401  16.134  0.00  0.00    +0.000 C 
BRANCH  31  32
ATOM     32  C   UNL     1      -3.167  10.203  15.176  0.00  0.00    +0.000 C 
ATOM     33  F   UNL     1      -4.075   9.250  15.490  0.00  0.00    +0.000 F 
ATOM     34  F   UNL     1      -3.454  10.611  13.913  0.00  0.00    +0.000 F 
ATOM     35  F   UNL     1      -1.946   9.631  15.142  0.00  0.00    +0.000 F 
ENDBRANCH  31  32
ENDBRANCH  28  31
ENDBRANCH  23  25
ENDBRANCH   5  19
TORSDOF 6
ENDMDL
MODEL 5
REMARK VINA RESULT:      -8.4      2.726      3.771
REMARK  Name = 
REMARK  7 active torsions:
REMARK  status: ('A' for Active; 'I' for Inactive)
REMARK    1  A    between atoms: C_1  and  O_2
REMARK    2  A    between atoms: O_2  and  C_3
REMARK    3  A    between atoms: C_9  and  C_10
REMARK    4  A    between atoms: C_14  and  C_15
REMARK    5  A    between atoms: C_19  and  N_20
REMARK    6  A    between atoms: N_23  and  C_24
REMARK    7  A    between atoms: C_24  and  C_25
REMARK                            x       y       z     vdW  Elec       q    Type
REMARK                         _______ _______ _______ _____ _____    ______ ____
ROOT
ATOM      1  C   UNL     1      -0.792  11.096  21.856  0.00  0.00    +0.000 A 
ATOM      2  C   UNL     1      -0.396   9.829  22.470  0.00  0.00    +0.000 A 
ATOM      3  C   UNL     1       0.345   8.955  21.772  0.00  0.00    +0.000 A 
ATOM      4  N   UNL     1       0.684   9.233  20.444  0.00  0.00    +0.000 N 
ATOM      5  C   UNL     1       1.432   8.505  19.519  0.00  0.00    +0.000 A 
ATOM      6  C   UNL     1       1.455   9.318  18.394  0.00  0.00    +0.000 A 
ATOM      7  N   UNL     1       0.751  10.479  18.581  0.00  0.00    +0.000 NA
ATOM      8  C   UNL     1       0.291  10.412  19.812  0.00  0.00    +0.000 A 
ATOM      9  C   UNL     1      -0.470  11.354  20.568  0.00  0.00    +0.000 A 
ENDROOT
BRANCH   1  16
ATOM     10  C   UNL     1      -0.729  13.354  22.898  0.00  0.00    +0.000 A 
ATOM     11  C   UNL     1      -1.386  14.251  23.712  0.00  0.00    +0.000 A 
ATOM     12  N   UNL     1      -2.596  14.020  24.261  0.00  0.00    +0.000 NA
ATOM     13  C   UNL     1      -3.152  12.839  23.955  0.00  0.00    +0.000 A 
ATOM     14 CL   UNL     1      -4.677  12.520  24.647  0.00  0.00    +0.000 Cl
ATOM     15  N   UNL     1      -2.635  11.885  23.177  0.00  0.00    +0.000 NA
ATOM     16  C   UNL     1      -1.422  12.168  22.656  0.00  0.00    +0.000 A 
BRANCH  10  18
ATOM     17  C   UNL     1       0.835  14.877  21.974  0.00  0.00    +0.000 C 
ATOM     18  O   UNL     1       0.485  13.538  22.306  0.00  0.00    +0.000 OA
ENDBRANCH  10  18
ENDBRANCH   1  16
BRANCH   5  19
ATOM     19  C   UNL     1       2.046   7.189  19.738  0.00  0.00    +0.000 A 
ATOM     20  C   UNL     1       1.508   6.305  20.680  0.00  0.00    +0.000 A 
ATOM     21  C   UNL     1       2.123   5.088  20.945  0.00  0.00    +0.000 A 
ATOM     22  C   UNL     1       3.254   4.710  20.229  0.00  0.00    +0.000 A 
ATOM     23  C   UNL     1       3.788   5.533  19.237  0.00  0.00    +0.000 A 
ATOM     24  C   UNL     1       3.177   6.780  19.000  0.00  0.00    +0.000 A 
BRANCH  23  25
ATOM     25  N   UNL     1       4.930   5.177  18.474  0.00  0.00    +0.000 N 
ATOM     26  C   UNL     1       4.918   4.565  17.238  0.00  0.00    +0.000 C 
ATOM     27  O   UNL     1       3.941   4.275  16.559  0.00  0.00    +0.000 OA
ATOM     28  N   UNL     1       6.181   4.215  16.811  0.00  0.00    +0.000 N 
ATOM     29  H   UNL     1       5.831   5.361  18.888  0.00  0.00    +0.000 HD
ATOM     30  H   UNL     1       6.938   4.830  17.074  0.00  0.00    +0.000 HD
BRANCH  28  31
ATOM     31  C   UNL     1       6.297   3.521  15.519  0.00  0.00    +0.000 C 
BRANCH  31  32
ATOM     32  C   UNL     1       6.457   4.415  14.281  0.00  0.00    +0.000 C 
ATOM     33  F   UNL     1       6.228   3.741  13.130  0.00  0.00    +0.000 F 
ATOM     34  F   UNL     1       5.551   5.426  14.326  0.00  0.00    +0.000 F 
ATOM     35  F   UNL     1       7.680   4.980  14.205  0.00  0.00    +0.000 F 
ENDBRANCH  31  32
ENDBRANCH  28  31
ENDBRANCH  23  25
ENDBRANCH   5  19
TORSDOF 6
ENDMDL
MODEL 6
REMARK VINA RESULT:      -8.3      5.841     10.994
REMARK  Name = 
REMARK  7 active torsions:
REMARK  status: ('A' for Active; 'I' for Inactive)
REMARK    1  A    between atoms: C_1  and  O_2
REMARK    2  A    between atoms: O_2  and  C_3
REMARK    3  A    between atoms: C_9  and  C_10
REMARK    4  A    between atoms: C_14  and  C_15
REMARK    5  A    between atoms: C_19  and  N_20
REMARK    6  A    between atoms: N_23  and  C_24
REMARK    7  A    between atoms: C_24  and  C_25
REMARK                            x       y       z     vdW  Elec       q    Type
REMARK                         _______ _______ _______ _____ _____    ______ ____
ROOT
ATOM      1  C   UNL     1       2.753   6.929  18.460  0.00  0.00    +0.000 A 
ATOM      2  C   UNL     1       2.392   8.096  17.656  0.00  0.00    +0.000 A 
ATOM      3  C   UNL     1       1.760   9.130  18.230  0.00  0.00    +0.000 A 
ATOM      4  N   UNL     1       1.398   9.064  19.579  0.00  0.00    +0.000 N 
ATOM      5  C   UNL     1       0.748   9.987  20.398  0.00  0.00    +0.000 A 
ATOM      6  C   UNL     1       0.716   9.366  21.640  0.00  0.00    +0.000 A 
ATOM      7  N   UNL     1       1.289   8.122  21.611  0.00  0.00    +0.000 NA
ATOM      8  C   UNL     1       1.688   7.952  20.368  0.00  0.00    +0.000 A 
ATOM      9  C   UNL     1       2.390   6.866  19.762  0.00  0.00    +0.000 A 
ENDROOT
BRANCH   1  16
ATOM     10  C   UNL     1       3.087   4.638  17.553  0.00  0.00    +0.000 A 
ATOM     11  C   UNL     1       4.008   3.704  17.129  0.00  0.00    +0.000 A 
ATOM     12  N   UNL     1       5.337   3.928  17.081  0.00  0.00    +0.000 NA
ATOM     13  C   UNL     1       5.729   5.151  17.467  0.00  0.00    +0.000 A 
ATOM     14 CL   UNL     1       7.407   5.453  17.425  0.00  0.00    +0.000 Cl
ATOM     15  N   UNL     1       4.950   6.149  17.890  0.00  0.00    +0.000 NA
ATOM     16  C   UNL     1       3.630   5.869  17.920  0.00  0.00    +0.000 A 
BRANCH  10  18
ATOM     17  C   UNL     1       1.257   3.429  18.452  0.00  0.00    +0.000 C 
ATOM     18  O   UNL     1       1.735   4.471  17.610  0.00  0.00    +0.000 OA
ENDBRANCH  10  18
ENDBRANCH   1  16
BRANCH   5  19
ATOM     19  C   UNL     1       0.243  11.305  19.995  0.00  0.00    +0.000 A 
ATOM     20  C   UNL     1       1.129  12.304  19.576  0.00  0.00    +0.000 A 
ATOM     21  C   UNL     1       0.669  13.576  19.260  0.00  0.00    +0.000 A 
ATOM     22  C   UNL     1      -0.694  13.853  19.304  0.00  0.00    +0.000 A 
ATOM     23  C   UNL     1      -1.619  12.870  19.658  0.00  0.00    +0.000 A 
ATOM     24  C   UNL     1      -1.138  11.593  20.008  0.00  0.00    +0.000 A 
BRANCH  23  25
ATOM     25  N   UNL     1      -3.017  13.107  19.699  0.00  0.00    +0.000 N 
ATOM     26  C   UNL     1      -3.725  13.583  20.783  0.00  0.00    +0.000 C 
ATOM     27  O   UNL     1      -3.279  13.938  21.867  0.00  0.00    +0.000 OA
ATOM     28  N   UNL     1      -5.087  13.573  20.568  0.00  0.00    +0.000 N 
ATOM     29  H   UNL     1      -3.544  12.877  18.870  0.00  0.00    +0.000 HD
ATOM     30  H   UNL     1      -5.401  13.758  19.626  0.00  0.00    +0.000 HD
BRANCH  28  31
ATOM     31  C   UNL     1      -5.954  14.026  21.667  0.00  0.00    +0.000 C 
BRANCH  31  32
ATOM     32  C   UNL     1      -6.704  12.928  22.435  0.00  0.00    +0.000 C 
ATOM     33  F   UNL     1      -6.047  12.550  23.556  0.00  0.00    +0.000 F 
ATOM     34  F   UNL     1      -7.916  13.394  22.834  0.00  0.00    +0.000 F 
ATOM     35  F   UNL     1      -6.927  11.830  21.684  0.00  0.00    +0.000 F 
ENDBRANCH  31  32
ENDBRANCH  28  31
ENDBRANCH  23  25
ENDBRANCH   5  19
TORSDOF 6
ENDMDL
MODEL 7
REMARK VINA RESULT:      -8.3      6.183     11.120
REMARK  Name = 
REMARK  7 active torsions:
REMARK  status: ('A' for Active; 'I' for Inactive)
REMARK    1  A    between atoms: C_1  and  O_2
REMARK    2  A    between atoms: O_2  and  C_3
REMARK    3  A    between atoms: C_9  and  C_10
REMARK    4  A    between atoms: C_14  and  C_15
REMARK    5  A    between atoms: C_19  and  N_20
REMARK    6  A    between atoms: N_23  and  C_24
REMARK    7  A    between atoms: C_24  and  C_25
REMARK                            x       y       z     vdW  Elec       q    Type
REMARK                         _______ _______ _______ _____ _____    ______ ____
ROOT
ATOM      1  C   UNL     1       4.058   6.232  17.756  0.00  0.00    +0.000 A 
ATOM      2  C   UNL     1       3.700   7.585  17.331  0.00  0.00    +0.000 A 
ATOM      3  C   UNL     1       2.833   8.303  18.060  0.00  0.00    +0.000 A 
ATOM      4  N   UNL     1       2.232   7.735  19.188  0.00  0.00    +0.000 N 
ATOM      5  C   UNL     1       1.317   8.261  20.099  0.00  0.00    +0.000 A 
ATOM      6  C   UNL     1       1.134   7.235  21.017  0.00  0.00    +0.000 A 
ATOM      7  N   UNL     1       1.869   6.123  20.702  0.00  0.00    +0.000 NA
ATOM      8  C   UNL     1       2.518   6.434  19.601  0.00  0.00    +0.000 A 
ATOM      9  C   UNL     1       3.466   5.684  18.841  0.00  0.00    +0.000 A 
ENDROOT
BRANCH   1  16
ATOM     10  C   UNL     1       6.367   5.306  17.779  0.00  0.00    +0.000 A 
ATOM     11  C   UNL     1       7.344   4.665  17.049  0.00  0.00    +0.000 A 
ATOM     12  N   UNL     1       7.182   4.257  15.774  0.00  0.00    +0.000 NA
ATOM     13  C   UNL     1       5.978   4.502  15.239  0.00  0.00    +0.000 A 
ATOM     14 CL   UNL     1       5.754   4.005  13.623  0.00  0.00    +0.000 Cl
ATOM     15  N   UNL     1       4.943   5.103  15.831  0.00  0.00    +0.000 NA
ATOM     16  C   UNL     1       5.160   5.493  17.105  0.00  0.00    +0.000 A 
BRANCH  10  18
ATOM     17  C   UNL     1       7.785   5.829  19.606  0.00  0.00    +0.000 C 
ATOM     18  O   UNL     1       6.470   5.728  19.072  0.00  0.00    +0.000 OA
ENDBRANCH  10  18
ENDBRANCH   1  16
BRANCH   5  19
ATOM     19  C   UNL     1       0.721   9.602  20.060  0.00  0.00    +0.000 A 
ATOM     20  C   UNL     1       1.302  10.656  20.775  0.00  0.00    +0.000 A 
ATOM     21  C   UNL     1       0.707  11.910  20.801  0.00  0.00    +0.000 A 
ATOM     22  C   UNL     1      -0.450  12.147  20.064  0.00  0.00    +0.000 A 
ATOM     23  C   UNL     1      -1.028  11.142  19.287  0.00  0.00    +0.000 A 
ATOM     24  C   UNL     1      -0.435   9.864  19.295  0.00  0.00    +0.000 A 
BRANCH  23  25
ATOM     25  N   UNL     1      -2.197  11.348  18.510  0.00  0.00    +0.000 N 
ATOM     26  C   UNL     1      -3.352  11.971  18.934  0.00  0.00    +0.000 C 
ATOM     27  O   UNL     1      -3.557  12.504  20.017  0.00  0.00    +0.000 OA
ATOM     28  N   UNL     1      -4.366  11.892  18.003  0.00  0.00    +0.000 N 
ATOM     29  H   UNL     1      -2.192  10.975  17.572  0.00  0.00    +0.000 HD
ATOM     30  H   UNL     1      -4.094  11.918  17.030  0.00  0.00    +0.000 HD
BRANCH  28  31
ATOM     31  C   UNL     1      -5.663  12.491  18.354  0.00  0.00    +0.000 C 
BRANCH  31  32
ATOM     32  C   UNL     1      -6.713  11.537  18.941  0.00  0.00    +0.000 C 
ATOM     33  F   UNL     1      -6.397  11.139  20.195  0.00  0.00    +0.000 F 
ATOM     34  F   UNL     1      -7.911  12.171  19.025  0.00  0.00    +0.000 F 
ATOM     35  F   UNL     1      -6.897  10.438  18.181  0.00  0.00    +0.000 F 
ENDBRANCH  31  32
ENDBRANCH  28  31
ENDBRANCH  23  25
ENDBRANCH   5  19
TORSDOF 6
ENDMDL
MODEL 8
REMARK VINA RESULT:      -8.3      6.323     11.527
REMARK  Name = 
REMARK  7 active torsions:
REMARK  status: ('A' for Active; 'I' for Inactive)
REMARK    1  A    between atoms: C_1  and  O_2
REMARK    2  A    between atoms: O_2  and  C_3
REMARK    3  A    between atoms: C_9  and  C_10
REMARK    4  A    between atoms: C_14  and  C_15
REMARK    5  A    between atoms: C_19  and  N_20
REMARK    6  A    between atoms: N_23  and  C_24
REMARK    7  A    between atoms: C_24  and  C_25
REMARK                            x       y       z     vdW  Elec       q    Type
REMARK                         _______ _______ _______ _____ _____    ______ ____
ROOT
ATOM      1  C   UNL     1       3.001   6.727  18.498  0.00  0.00    +0.000 A 
ATOM      2  C   UNL     1       2.434   6.701  19.846  0.00  0.00    +0.000 A 
ATOM      3  C   UNL     1       1.705   7.739  20.281  0.00  0.00    +0.000 A 
ATOM      4  N   UNL     1       1.539   8.865  19.467  0.00  0.00    +0.000 N 
ATOM      5  C   UNL     1       0.840  10.053  19.679  0.00  0.00    +0.000 A 
ATOM      6  C   UNL     1       1.012  10.757  18.495  0.00  0.00    +0.000 A 
ATOM      7  N   UNL     1       1.785  10.073  17.594  0.00  0.00    +0.000 NA
ATOM      8  C   UNL     1       2.099   8.943  18.192  0.00  0.00    +0.000 A 
ATOM      9  C   UNL     1       2.847   7.823  17.720  0.00  0.00    +0.000 A 
ENDROOT
BRANCH   1  16
ATOM     10  C   UNL     1       2.900   4.337  17.815  0.00  0.00    +0.000 A 
ATOM     11  C   UNL     1       3.607   3.265  17.314  0.00  0.00    +0.000 A 
ATOM     12  N   UNL     1       4.905   3.325  16.953  0.00  0.00    +0.000 NA
ATOM     13  C   UNL     1       5.489   4.523  17.098  0.00  0.00    +0.000 A 
ATOM     14 CL   UNL     1       7.133   4.619  16.657  0.00  0.00    +0.000 Cl
ATOM     15  N   UNL     1       4.925   5.642  17.560  0.00  0.00    +0.000 NA
ATOM     16  C   UNL     1       3.626   5.525  17.909  0.00  0.00    +0.000 A 
BRANCH  10  18
ATOM     17  C   UNL     1       1.021   3.079  18.527  0.00  0.00    +0.000 C 
ATOM     18  O   UNL     1       1.587   4.339  18.184  0.00  0.00    +0.000 OA
ENDBRANCH  10  18
ENDBRANCH   1  16
BRANCH   5  19
ATOM     19  C   UNL     1       0.098  10.421  20.891  0.00  0.00    +0.000 A 
ATOM     20  C   UNL     1       0.176   9.625  22.039  0.00  0.00    +0.000 A 
ATOM     21  C   UNL     1      -0.578   9.926  23.166  0.00  0.00    +0.000 A 
ATOM     22  C   UNL     1      -1.379  11.064  23.183  0.00  0.00    +0.000 A 
ATOM     23  C   UNL     1      -1.440  11.920  22.083  0.00  0.00    +0.000 A 
ATOM     24  C   UNL     1      -0.698  11.586  20.933  0.00  0.00    +0.000 A 
BRANCH  23  25
ATOM     25  N   UNL     1      -2.232  13.097  22.066  0.00  0.00    +0.000 N 
ATOM     26  C   UNL     1      -3.598  13.155  22.244  0.00  0.00    +0.000 C 
ATOM     27  O   UNL     1      -4.357  12.229  22.504  0.00  0.00    +0.000 OA
ATOM     28  N   UNL     1      -4.104  14.420  22.031  0.00  0.00    +0.000 N 
ATOM     29  H   UNL     1      -1.755  13.965  21.875  0.00  0.00    +0.000 HD
ATOM     30  H   UNL     1      -3.516  15.197  22.298  0.00  0.00    +0.000 HD
BRANCH  28  31
ATOM     31  C   UNL     1      -5.558  14.604  22.158  0.00  0.00    +0.000 C 
BRANCH  31  32
ATOM     32  C   UNL     1      -6.069  15.047  23.537  0.00  0.00    +0.000 C 
ATOM     33  F   UNL     1      -7.029  15.996  23.445  0.00  0.00    +0.000 F 
ATOM     34  F   UNL     1      -6.628  13.990  24.179  0.00  0.00    +0.000 F 
ATOM     35  F   UNL     1      -5.082  15.517  24.327  0.00  0.00    +0.000 F 
ENDBRANCH  31  32
ENDBRANCH  28  31
ENDBRANCH  23  25
ENDBRANCH   5  19
TORSDOF 6
ENDMDL
MODEL 9
REMARK VINA RESULT:      -8.1      6.083     10.546
REMARK  Name = 
REMARK  7 active torsions:
REMARK  status: ('A' for Active; 'I' for Inactive)
REMARK    1  A    between atoms: C_1  and  O_2
REMARK    2  A    between atoms: O_2  and  C_3
REMARK    3  A    between atoms: C_9  and  C_10
REMARK    4  A    between atoms: C_14  and  C_15
REMARK    5  A    between atoms: C_19  and  N_20
REMARK    6  A    between atoms: N_23  and  C_24
REMARK    7  A    between atoms: C_24  and  C_25
REMARK                            x       y       z     vdW  Elec       q    Type
REMARK                         _______ _______ _______ _____ _____    ______ ____
ROOT
ATOM      1  C   UNL     1       2.620   7.020  18.452  0.00  0.00    +0.000 A 
ATOM      2  C   UNL     1       2.280   8.228  17.701  0.00  0.00    +0.000 A 
ATOM      3  C   UNL     1       1.689   9.256  18.327  0.00  0.00    +0.000 A 
ATOM      4  N   UNL     1       1.349   9.146  19.680  0.00  0.00    +0.000 N 
ATOM      5  C   UNL     1       0.741  10.054  20.547  0.00  0.00    +0.000 A 
ATOM      6  C   UNL     1       0.712   9.386  21.763  0.00  0.00    +0.000 A 
ATOM      7  N   UNL     1       1.248   8.127  21.674  0.00  0.00    +0.000 NA
ATOM      8  C   UNL     1       1.620   7.996  20.419  0.00  0.00    +0.000 A 
ATOM      9  C   UNL     1       2.278   6.915  19.757  0.00  0.00    +0.000 A 
ENDROOT
BRANCH   1  16
ATOM     10  C   UNL     1       2.932   4.675  17.681  0.00  0.00    +0.000 A 
ATOM     11  C   UNL     1       3.823   3.750  17.180  0.00  0.00    +0.000 A 
ATOM     12  N   UNL     1       5.110   4.029  16.890  0.00  0.00    +0.000 NA
ATOM     13  C   UNL     1       5.489   5.296  17.107  0.00  0.00    +0.000 A 
ATOM     14 CL   UNL     1       7.115   5.668  16.757  0.00  0.00    +0.000 Cl
ATOM     15  N   UNL     1       4.734   6.291  17.578  0.00  0.00    +0.000 NA
ATOM     16  C   UNL     1       3.455   5.957  17.854  0.00  0.00    +0.000 A 
BRANCH  10  18
ATOM     17  C   UNL     1       1.275   3.138  18.397  0.00  0.00    +0.000 C 
ATOM     18  O   UNL     1       1.621   4.455  17.981  0.00  0.00    +0.000 OA
ENDBRANCH  10  18
ENDBRANCH   1  16
BRANCH   5  19
ATOM     19  C   UNL     1       0.269  11.402  20.205  0.00  0.00    +0.000 A 
ATOM     20  C   UNL     1      -1.067  11.615  19.848  0.00  0.00    +0.000 A 
ATOM     21  C   UNL     1      -1.506  12.873  19.455  0.00  0.00    +0.000 A 
ATOM     22  C   UNL     1      -0.627  13.952  19.469  0.00  0.00    +0.000 A 
ATOM     23  C   UNL     1       0.698  13.797  19.878  0.00  0.00    +0.000 A 
ATOM     24  C   UNL     1       1.142  12.510  20.242  0.00  0.00    +0.000 A 
BRANCH  23  25
ATOM     25  N   UNL     1       1.620  14.874  19.922  0.00  0.00    +0.000 N 
ATOM     26  C   UNL     1       2.564  15.172  18.960  0.00  0.00    +0.000 C 
ATOM     27  O   UNL     1       2.736  14.609  17.886  0.00  0.00    +0.000 OA
ATOM     28  N   UNL     1       3.410  16.189  19.348  0.00  0.00    +0.000 N 
ATOM     29  H   UNL     1       1.605  15.455  20.746  0.00  0.00    +0.000 HD
ATOM     30  H   UNL     1       3.012  16.918  19.923  0.00  0.00    +0.000 HD
BRANCH  28  31
ATOM     31  C   UNL     1       4.484  16.575  18.420  0.00  0.00    +0.000 C 
BRANCH  31  32
ATOM     32  C   UNL     1       5.796  15.786  18.536  0.00  0.00    +0.000 C 
ATOM     33  F   UNL     1       5.870  15.083  19.690  0.00  0.00    +0.000 F 
ATOM     34  F   UNL     1       5.877  14.882  17.526  0.00  0.00    +0.000 F 
ATOM     35  F   UNL     1       6.886  16.577  18.451  0.00  0.00    +0.000 F 
ENDBRANCH  31  32
ENDBRANCH  28  31
ENDBRANCH  23  25
ENDBRANCH   5  19
TORSDOF 6
ENDMDL
