MODEL 1
REMARK VINA RESULT:      -9.2      0.000      0.000
REMARK  Name = 
REMARK  5 active torsions:
REMARK  status: ('A' for Active; 'I' for Inactive)
REMARK    1  A    between atoms: C_1  and  C_2
REMARK    2  A    between atoms: N_9  and  C_10
REMARK    3  A    between atoms: C_13  and  N_14
REMARK    4  A    between atoms: C_15  and  C_17
REMARK    5  A    between atoms: N_30  and  C_31
REMARK                            x       y       z     vdW  Elec       q    Type
REMARK                         _______ _______ _______ _____ _____    ______ ____
ROOT
ATOM      1  C   UNL     1      -5.324  12.659  23.679  0.00  0.00    +0.000 C 
ATOM      2  C   UNL     1      -4.617  13.641  22.836  0.00  0.00    +0.000 A 
ATOM      3  C   UNL     1      -3.768  13.469  21.770  0.00  0.00    +0.000 A 
ATOM      4  C   UNL     1      -3.326  14.762  21.412  0.00  0.00    +0.000 A 
ATOM      5  N   UNL     1      -2.393  15.046  20.487  0.00  0.00    +0.000 N 
ATOM      6  C   UNL     1      -1.335  14.237  20.067  0.00  0.00    +0.000 A 
ATOM      7  N   UNL     1      -1.395  12.922  20.228  0.00  0.00    +0.000 NA
ATOM      8  C   UNL     1      -0.329  12.239  19.865  0.00  0.00    +0.000 A 
ATOM      9  N   UNL     1      -0.387  10.865  20.057  0.00  0.00    +0.000 N 
ATOM     10  N   UNL     1       0.775  12.802  19.414  0.00  0.00    +0.000 NA
ATOM     11  C   UNL     1       0.782  14.117  19.307  0.00  0.00    +0.000 A 
ATOM     12  N   UNL     1       1.975  14.731  19.013  0.00  0.00    +0.000 N 
ATOM     13  C   UNL     1       3.130  13.907  18.648  0.00  0.00    +0.000 C 
ATOM     14  C   UNL     1       4.428  14.695  18.939  0.00  0.00    +0.000 C 
ATOM     15  N   UNL     1       4.449  16.030  18.294  0.00  0.00    +0.000 NA
ATOM     16  C   UNL     1       5.656  16.759  18.674  0.00  0.00    +0.000 C 
ATOM     17  C   UNL     1       3.244  16.792  18.696  0.00  0.00    +0.000 C 
ATOM     18  C   UNL     1       1.933  16.045  18.379  0.00  0.00    +0.000 C 
ATOM     19  N   UNL     1      -0.279  14.869  19.583  0.00  0.00    +0.000 NA
ATOM     20  N   UNL     1      -3.937  15.694  22.150  0.00  0.00    +0.000 NA
ATOM     21  N   UNL     1      -4.690  14.993  23.016  0.00  0.00    +0.000 N 
ATOM     22  H   UNL     1      -2.126  16.016  20.384  0.00  0.00    +0.000 HD
ATOM     23  H   UNL     1      -1.139  10.623  20.686  0.00  0.00    +0.000 HD
ATOM     24  H   UNL     1      -5.220  15.506  23.712  0.00  0.00    +0.000 HD
ENDROOT
BRANCH   9  25
ATOM     25  C   UNL     1       0.514   9.863  19.699  0.00  0.00    +0.000 A 
ATOM     26  C   UNL     1       0.914   9.756  18.370  0.00  0.00    +0.000 A 
ATOM     27  C   UNL     1       1.771   8.731  17.956  0.00  0.00    +0.000 A 
ATOM     28  C   UNL     1       2.248   7.783  18.862  0.00  0.00    +0.000 A 
ATOM     29  C   UNL     1       1.862   7.884  20.197  0.00  0.00    +0.000 A 
ATOM     30  C   UNL     1       1.007   8.918  20.611  0.00  0.00    +0.000 A 
BRANCH  28  31
ATOM     31  N   UNL     1       3.124   6.733  18.495  0.00  0.00    +0.000 N 
ATOM     32  C   UNL     1       2.750   5.472  18.061  0.00  0.00    +0.000 C 
ATOM     33  O   UNL     1       1.597   5.047  18.028  0.00  0.00    +0.000 OA
ATOM     34  H   UNL     1       4.112   6.940  18.555  0.00  0.00    +0.000 HD
BRANCH  32  35
ATOM     35  C   UNL     1       3.924   4.583  17.631  0.00  0.00    +0.000 C 
ATOM     36  C   UNL     1       4.784   4.166  18.841  0.00  0.00    +0.000 C 
ATOM     37  C   UNL     1       4.101   3.127  19.735  0.00  0.00    +0.000 C 
ATOM     38  C   UNL     1       3.623   1.917  18.938  0.00  0.00    +0.000 C 
ATOM     39  C   UNL     1       2.764   2.325  17.747  0.00  0.00    +0.000 C 
ATOM     40  C   UNL     1       3.477   3.340  16.855  0.00  0.00    +0.000 C 
ENDBRANCH  32  35
ENDBRANCH  28  31
ENDBRANCH   9  25
TORSDOF 3
ENDMDL
MODEL 2
REMARK VINA RESULT:      -9.2      0.695      1.063
REMARK  Name = 
REMARK  5 active torsions:
REMARK  status: ('A' for Active; 'I' for Inactive)
REMARK    1  A    between atoms: C_1  and  C_2
REMARK    2  A    between atoms: N_9  and  C_10
REMARK    3  A    between atoms: C_13  and  N_14
REMARK    4  A    between atoms: C_15  and  C_17
REMARK    5  A    between atoms: N_30  and  C_31
REMARK                            x       y       z     vdW  Elec       q    Type
REMARK                         _______ _______ _______ _____ _____    ______ ____
ROOT
ATOM      1  C   UNL     1      -4.839  12.261  24.949  0.00  0.00    +0.000 C 
ATOM      2  C   UNL     1      -4.256  13.276  24.052  0.00  0.00    +0.000 A 
ATOM      3  C   UNL     1      -3.560  13.146  22.876  0.00  0.00    +0.000 A 
ATOM      4  C   UNL     1      -3.175  14.455  22.505  0.00  0.00    +0.000 A 
ATOM      5  N   UNL     1      -2.377  14.776  21.472  0.00  0.00    +0.000 N 
ATOM      6  C   UNL     1      -1.383  13.990  20.885  0.00  0.00    +0.000 A 
ATOM      7  N   UNL     1      -1.416  12.670  21.008  0.00  0.00    +0.000 NA
ATOM      8  C   UNL     1      -0.407  12.009  20.481  0.00  0.00    +0.000 A 
ATOM      9  N   UNL     1      -0.434  10.628  20.633  0.00  0.00    +0.000 N 
ATOM     10  N   UNL     1       0.623  12.595  19.904  0.00  0.00    +0.000 NA
ATOM     11  C   UNL     1       0.611  13.913  19.842  0.00  0.00    +0.000 A 
ATOM     12  N   UNL     1       1.751  14.546  19.409  0.00  0.00    +0.000 N 
ATOM     13  C   UNL     1       2.848  13.744  18.863  0.00  0.00    +0.000 C 
ATOM     14  C   UNL     1       4.171  14.533  19.002  0.00  0.00    +0.000 C 
ATOM     15  N   UNL     1       4.100  15.888  18.405  0.00  0.00    +0.000 NA
ATOM     16  C   UNL     1       5.344  16.614  18.643  0.00  0.00    +0.000 C 
ATOM     17  C   UNL     1       2.958  16.627  18.993  0.00  0.00    +0.000 C 
ATOM     18  C   UNL     1       1.618  15.880  18.832  0.00  0.00    +0.000 C 
ATOM     19  N   UNL     1      -0.405  14.647  20.284  0.00  0.00    +0.000 NA
ATOM     20  N   UNL     1      -3.684  15.357  23.350  0.00  0.00    +0.000 NA
ATOM     21  N   UNL     1      -4.310  14.621  24.285  0.00  0.00    +0.000 N 
ATOM     22  H   UNL     1      -2.131  15.751  21.367  0.00  0.00    +0.000 HD
ATOM     23  H   UNL     1      -1.092  10.360  21.349  0.00  0.00    +0.000 HD
ATOM     24  H   UNL     1      -4.743  15.106  25.064  0.00  0.00    +0.000 HD
ENDROOT
BRANCH   9  25
ATOM     25  C   UNL     1       0.414   9.646  20.122  0.00  0.00    +0.000 A 
ATOM     26  C   UNL     1       0.852   8.627  20.963  0.00  0.00    +0.000 A 
ATOM     27  C   UNL     1       1.749   7.654  20.509  0.00  0.00    +0.000 A 
ATOM     28  C   UNL     1       2.234   7.678  19.202  0.00  0.00    +0.000 A 
ATOM     29  C   UNL     1       1.797   8.689  18.347  0.00  0.00    +0.000 A 
ATOM     30  C   UNL     1       0.891   9.659  18.803  0.00  0.00    +0.000 A 
BRANCH  28  31
ATOM     31  N   UNL     1       3.135   6.713  18.691  0.00  0.00    +0.000 N 
ATOM     32  C   UNL     1       2.792   5.553  18.016  0.00  0.00    +0.000 C 
ATOM     33  O   UNL     1       1.646   5.142  17.850  0.00  0.00    +0.000 OA
ATOM     34  H   UNL     1       4.118   6.904  18.835  0.00  0.00    +0.000 HD
BRANCH  32  35
ATOM     35  C   UNL     1       3.992   4.757  17.486  0.00  0.00    +0.000 C 
ATOM     36  C   UNL     1       5.012   4.470  18.607  0.00  0.00    +0.000 C 
ATOM     37  C   UNL     1       4.529   3.410  19.602  0.00  0.00    +0.000 C 
ATOM     38  C   UNL     1       4.085   2.130  18.900  0.00  0.00    +0.000 C 
ATOM     39  C   UNL     1       3.069   2.410  17.799  0.00  0.00    +0.000 C 
ATOM     40  C   UNL     1       3.584   3.448  16.803  0.00  0.00    +0.000 C 
ENDBRANCH  32  35
ENDBRANCH  28  31
ENDBRANCH   9  25
TORSDOF 3
ENDMDL
MODEL 3
REMARK VINA RESULT:      -9.1      1.007      1.799
REMARK  Name = 
REMARK  5 active torsions:
REMARK  status: ('A' for Active; 'I' for Inactive)
REMARK    1  A    between atoms: C_1  and  C_2
REMARK    2  A    between atoms: N_9  and  C_10
REMARK    3  A    between atoms: C_13  and  N_14
REMARK    4  A    between atoms: C_15  and  C_17
REMARK    5  A    between atoms: N_30  and  C_31
REMARK                            x       y       z     vdW  Elec       q    Type
REMARK                         _______ _______ _______ _____ _____    ______ ____
ROOT
ATOM      1  C   UNL     1      -4.764  12.238  24.774  0.00  0.00    +0.000 C 
ATOM      2  C   UNL     1      -4.174  13.303  23.942  0.00  0.00    +0.000 A 
ATOM      3  C   UNL     1      -3.482  13.243  22.758  0.00  0.00    +0.000 A 
ATOM      4  C   UNL     1      -3.086  14.569  22.471  0.00  0.00    +0.000 A 
ATOM      5  N   UNL     1      -2.287  14.949  21.459  0.00  0.00    +0.000 N 
ATOM      6  C   UNL     1      -1.301  14.193  20.820  0.00  0.00    +0.000 A 
ATOM      7  N   UNL     1      -1.346  12.868  20.858  0.00  0.00    +0.000 NA
ATOM      8  C   UNL     1      -0.343  12.234  20.288  0.00  0.00    +0.000 A 
ATOM      9  N   UNL     1      -0.382  10.846  20.351  0.00  0.00    +0.000 N 
ATOM     10  N   UNL     1       0.691  12.846  19.746  0.00  0.00    +0.000 NA
ATOM     11  C   UNL     1       0.690  14.166  19.769  0.00  0.00    +0.000 A 
ATOM     12  N   UNL     1       1.835  14.816  19.375  0.00  0.00    +0.000 N 
ATOM     13  C   UNL     1       2.924  14.040  18.776  0.00  0.00    +0.000 C 
ATOM     14  C   UNL     1       4.254  14.807  18.962  0.00  0.00    +0.000 C 
ATOM     15  N   UNL     1       4.193  16.199  18.453  0.00  0.00    +0.000 NA
ATOM     16  C   UNL     1       5.445  16.897  18.734  0.00  0.00    +0.000 C 
ATOM     17  C   UNL     1       3.059  16.908  19.089  0.00  0.00    +0.000 C 
ATOM     18  C   UNL     1       1.713  16.184  18.884  0.00  0.00    +0.000 C 
ATOM     19  N   UNL     1      -0.318  14.878  20.260  0.00  0.00    +0.000 NA
ATOM     20  N   UNL     1      -3.585  15.419  23.373  0.00  0.00    +0.000 NA
ATOM     21  N   UNL     1      -4.216  14.631  24.261  0.00  0.00    +0.000 N 
ATOM     22  H   UNL     1      -2.032  15.926  21.415  0.00  0.00    +0.000 HD
ATOM     23  H   UNL     1      -1.041  10.538  21.050  0.00  0.00    +0.000 HD
ATOM     24  H   UNL     1      -4.642  15.069  25.070  0.00  0.00    +0.000 HD
ENDROOT
BRANCH   9  25
ATOM     25  C   UNL     1       0.457   9.892  19.776  0.00  0.00    +0.000 A 
ATOM     26  C   UNL     1       0.981   8.882  20.578  0.00  0.00    +0.000 A 
ATOM     27  C   UNL     1       1.872   7.938  20.057  0.00  0.00    +0.000 A 
ATOM     28  C   UNL     1       2.264   7.982  18.719  0.00  0.00    +0.000 A 
ATOM     29  C   UNL     1       1.739   8.982  17.903  0.00  0.00    +0.000 A 
ATOM     30  C   UNL     1       0.840   9.924  18.427  0.00  0.00    +0.000 A 
BRANCH  28  31
ATOM     31  N   UNL     1       3.155   7.045  18.141  0.00  0.00    +0.000 N 
ATOM     32  C   UNL     1       2.946   5.680  18.032  0.00  0.00    +0.000 C 
ATOM     33  O   UNL     1       1.996   5.068  18.516  0.00  0.00    +0.000 OA
ATOM     34  H   UNL     1       4.016   7.424  17.771  0.00  0.00    +0.000 HD
BRANCH  32  35
ATOM     35  C   UNL     1       4.043   4.938  17.258  0.00  0.00    +0.000 C 
ATOM     36  C   UNL     1       4.906   5.914  16.434  0.00  0.00    +0.000 C 
ATOM     37  C   UNL     1       5.848   6.759  17.297  0.00  0.00    +0.000 C 
ATOM     38  C   UNL     1       6.699   5.897  18.224  0.00  0.00    +0.000 C 
ATOM     39  C   UNL     1       5.848   4.937  19.048  0.00  0.00    +0.000 C 
ATOM     40  C   UNL     1       4.938   4.085  18.163  0.00  0.00    +0.000 C 
ENDBRANCH  32  35
ENDBRANCH  28  31
ENDBRANCH   9  25
TORSDOF 3
ENDMDL
MODEL 4
REMARK VINA RESULT:      -8.9      0.648      1.147
REMARK  Name = 
REMARK  5 active torsions:
REMARK  status: ('A' for Active; 'I' for Inactive)
REMARK    1  A    between atoms: C_1  and  C_2
REMARK    2  A    between atoms: N_9  and  C_10
REMARK    3  A    between atoms: C_13  and  N_14
REMARK    4  A    between atoms: C_15  and  C_17
REMARK    5  A    between atoms: N_30  and  C_31
REMARK                            x       y       z     vdW  Elec       q    Type
REMARK                         _______ _______ _______ _____ _____    ______ ____
ROOT
ATOM      1  C   UNL     1      -5.708  13.007  23.607  0.00  0.00    +0.000 C 
ATOM      2  C   UNL     1      -4.946  13.943  22.760  0.00  0.00    +0.000 A 
ATOM      3  C   UNL     1      -4.071  13.715  21.726  0.00  0.00    +0.000 A 
ATOM      4  C   UNL     1      -3.579  14.984  21.346  0.00  0.00    +0.000 A 
ATOM      5  N   UNL     1      -2.610  15.213  20.444  0.00  0.00    +0.000 N 
ATOM      6  C   UNL     1      -1.565  14.360  20.079  0.00  0.00    +0.000 A 
ATOM      7  N   UNL     1      -1.670  13.053  20.274  0.00  0.00    +0.000 NA
ATOM      8  C   UNL     1      -0.615  12.329  19.964  0.00  0.00    +0.000 A 
ATOM      9  N   UNL     1      -0.722  10.963  20.192  0.00  0.00    +0.000 N 
ATOM     10  N   UNL     1       0.519  12.845  19.532  0.00  0.00    +0.000 NA
ATOM     11  C   UNL     1       0.569  14.156  19.389  0.00  0.00    +0.000 A 
ATOM     12  N   UNL     1       1.789  14.725  19.116  0.00  0.00    +0.000 N 
ATOM     13  C   UNL     1       2.929  13.856  18.810  0.00  0.00    +0.000 C 
ATOM     14  C   UNL     1       4.241  14.614  19.119  0.00  0.00    +0.000 C 
ATOM     15  N   UNL     1       4.323  15.928  18.438  0.00  0.00    +0.000 NA
ATOM     16  C   UNL     1       5.539  16.631  18.836  0.00  0.00    +0.000 C 
ATOM     17  C   UNL     1       3.130  16.737  18.781  0.00  0.00    +0.000 C 
ATOM     18  C   UNL     1       1.807  16.021  18.444  0.00  0.00    +0.000 C 
ATOM     19  N   UNL     1      -0.475  14.947  19.611  0.00  0.00    +0.000 NA
ATOM     20  N   UNL     1      -4.183  15.955  22.039  0.00  0.00    +0.000 NA
ATOM     21  N   UNL     1      -4.984  15.301  22.899  0.00  0.00    +0.000 N 
ATOM     22  H   UNL     1      -2.310  16.171  20.322  0.00  0.00    +0.000 HD
ATOM     23  H   UNL     1      -1.499  10.762  20.804  0.00  0.00    +0.000 HD
ATOM     24  H   UNL     1      -5.519  15.849  23.564  0.00  0.00    +0.000 HD
ENDROOT
BRANCH   9  25
ATOM     25  C   UNL     1       0.159   9.925  19.891  0.00  0.00    +0.000 A 
ATOM     26  C   UNL     1       0.597   9.090  20.915  0.00  0.00    +0.000 A 
ATOM     27  C   UNL     1       1.525   8.073  20.669  0.00  0.00    +0.000 A 
ATOM     28  C   UNL     1       2.042   7.866  19.390  0.00  0.00    +0.000 A 
ATOM     29  C   UNL     1       1.604   8.689  18.353  0.00  0.00    +0.000 A 
ATOM     30  C   UNL     1       0.668   9.704  18.603  0.00  0.00    +0.000 A 
BRANCH  28  31
ATOM     31  N   UNL     1       2.974   6.845  19.086  0.00  0.00    +0.000 N 
ATOM     32  C   UNL     1       2.960   5.553  19.583  0.00  0.00    +0.000 C 
ATOM     33  O   UNL     1       2.190   5.133  20.444  0.00  0.00    +0.000 OA
ATOM     34  H   UNL     1       3.710   7.096  18.439  0.00  0.00    +0.000 HD
BRANCH  32  35
ATOM     35  C   UNL     1       4.039   4.639  18.986  0.00  0.00    +0.000 C 
ATOM     36  C   UNL     1       4.068   3.270  19.695  0.00  0.00    +0.000 C 
ATOM     37  C   UNL     1       2.874   2.381  19.336  0.00  0.00    +0.000 C 
ATOM     38  C   UNL     1       2.707   2.233  17.827  0.00  0.00    +0.000 C 
ATOM     39  C   UNL     1       2.667   3.585  17.124  0.00  0.00    +0.000 C 
ATOM     40  C   UNL     1       3.883   4.442  17.475  0.00  0.00    +0.000 C 
ENDBRANCH  32  35
ENDBRANCH  28  31
ENDBRANCH   9  25
TORSDOF 3
ENDMDL
MODEL 5
REMARK VINA RESULT:      -8.8      2.858      4.884
REMARK  Name = 
REMARK  5 active torsions:
REMARK  status: ('A' for Active; 'I' for Inactive)
REMARK    1  A    between atoms: C_1  and  C_2
REMARK    2  A    between atoms: N_9  and  C_10
REMARK    3  A    between atoms: C_13  and  N_14
REMARK    4  A    between atoms: C_15  and  C_17
REMARK    5  A    between atoms: N_30  and  C_31
REMARK                            x       y       z     vdW  Elec       q    Type
REMARK                         _______ _______ _______ _____ _____    ______ ____
ROOT
ATOM      1  C   UNL     1       1.809  16.304  22.767  0.00  0.00    +0.000 C 
ATOM      2  C   UNL     1       0.541  15.978  22.088  0.00  0.00    +0.000 A 
ATOM      3  C   UNL     1      -0.020  14.769  21.760  0.00  0.00    +0.000 A 
ATOM      4  C   UNL     1      -1.200  15.069  21.042  0.00  0.00    +0.000 A 
ATOM      5  N   UNL     1      -2.000  14.176  20.435  0.00  0.00    +0.000 N 
ATOM      6  C   UNL     1      -1.649  12.921  19.931  0.00  0.00    +0.000 A 
ATOM      7  N   UNL     1      -0.573  12.295  20.387  0.00  0.00    +0.000 NA
ATOM      8  C   UNL     1      -0.277  11.148  19.812  0.00  0.00    +0.000 A 
ATOM      9  N   UNL     1       0.864  10.507  20.277  0.00  0.00    +0.000 N 
ATOM     10  N   UNL     1      -0.957  10.646  18.800  0.00  0.00    +0.000 NA
ATOM     11  C   UNL     1      -1.998  11.334  18.372  0.00  0.00    +0.000 A 
ATOM     12  N   UNL     1      -2.607  10.922  17.211  0.00  0.00    +0.000 N 
ATOM     13  C   UNL     1      -2.204   9.649  16.609  0.00  0.00    +0.000 C 
ATOM     14  C   UNL     1      -2.543   9.672  15.100  0.00  0.00    +0.000 C 
ATOM     15  N   UNL     1      -3.962  10.010  14.833  0.00  0.00    +0.000 NA
ATOM     16  C   UNL     1      -4.199  10.102  13.395  0.00  0.00    +0.000 C 
ATOM     17  C   UNL     1      -4.295  11.296  15.489  0.00  0.00    +0.000 C 
ATOM     18  C   UNL     1      -4.005  11.285  17.003  0.00  0.00    +0.000 C 
ATOM     19  N   UNL     1      -2.404  12.461  18.947  0.00  0.00    +0.000 NA
ATOM     20  N   UNL     1      -1.411  16.389  21.007  0.00  0.00    +0.000 NA
ATOM     21  N   UNL     1      -0.337  16.915  21.622  0.00  0.00    +0.000 N 
ATOM     22  H   UNL     1      -2.775  14.541  19.899  0.00  0.00    +0.000 HD
ATOM     23  H   UNL     1       1.440  11.143  20.810  0.00  0.00    +0.000 HD
ATOM     24  H   UNL     1      -0.264  17.925  21.675  0.00  0.00    +0.000 HD
ENDROOT
BRANCH   9  25
ATOM     25  C   UNL     1       1.393   9.258  19.956  0.00  0.00    +0.000 A 
ATOM     26  C   UNL     1       1.905   9.048  18.679  0.00  0.00    +0.000 A 
ATOM     27  C   UNL     1       2.393   7.794  18.294  0.00  0.00    +0.000 A 
ATOM     28  C   UNL     1       2.378   6.716  19.179  0.00  0.00    +0.000 A 
ATOM     29  C   UNL     1       1.876   6.915  20.464  0.00  0.00    +0.000 A 
ATOM     30  C   UNL     1       1.395   8.175  20.848  0.00  0.00    +0.000 A 
BRANCH  28  31
ATOM     31  N   UNL     1       2.868   5.431  18.842  0.00  0.00    +0.000 N 
ATOM     32  C   UNL     1       4.122   4.930  19.149  0.00  0.00    +0.000 C 
ATOM     33  O   UNL     1       5.033   5.569  19.671  0.00  0.00    +0.000 OA
ATOM     34  H   UNL     1       2.229   4.832  18.337  0.00  0.00    +0.000 HD
BRANCH  32  35
ATOM     35  C   UNL     1       4.327   3.463  18.748  0.00  0.00    +0.000 C 
ATOM     36  C   UNL     1       4.107   2.519  19.948  0.00  0.00    +0.000 C 
ATOM     37  C   UNL     1       2.635   2.384  20.346  0.00  0.00    +0.000 C 
ATOM     38  C   UNL     1       1.757   2.002  19.159  0.00  0.00    +0.000 C 
ATOM     39  C   UNL     1       1.963   2.939  17.975  0.00  0.00    +0.000 C 
ATOM     40  C   UNL     1       3.435   3.035  17.578  0.00  0.00    +0.000 C 
ENDBRANCH  32  35
ENDBRANCH  28  31
ENDBRANCH   9  25
TORSDOF 3
ENDMDL
MODEL 6
REMARK VINA RESULT:      -8.7      1.650      2.172
REMARK  Name = 
REMARK  5 active torsions:
REMARK  status: ('A' for Active; 'I' for Inactive)
REMARK    1  A    between atoms: C_1  and  C_2
REMARK    2  A    between atoms: N_9  and  C_10
REMARK    3  A    between atoms: C_13  and  N_14
REMARK    4  A    between atoms: C_15  and  C_17
REMARK    5  A    between atoms: N_30  and  C_31
REMARK                            x       y       z     vdW  Elec       q    Type
REMARK                         _______ _______ _______ _____ _____    ______ ____
ROOT
ATOM      1  C   UNL     1      -6.990  12.113  21.653  0.00  0.00    +0.000 C 
ATOM      2  C   UNL     1      -6.017  13.177  21.346  0.00  0.00    +0.000 A 
ATOM      3  C   UNL     1      -4.803  13.130  20.705  0.00  0.00    +0.000 A 
ATOM      4  C   UNL     1      -4.275  14.439  20.777  0.00  0.00    +0.000 A 
ATOM      5  N   UNL     1      -3.050  14.815  20.372  0.00  0.00    +0.000 N 
ATOM      6  C   UNL     1      -1.899  14.028  20.291  0.00  0.00    +0.000 A 
ATOM      7  N   UNL     1      -1.998  12.709  20.193  0.00  0.00    +0.000 NA
ATOM      8  C   UNL     1      -0.865  12.037  20.188  0.00  0.00    +0.000 A 
ATOM      9  N   UNL     1      -0.974  10.654  20.109  0.00  0.00    +0.000 N 
ATOM     10  N   UNL     1       0.317  12.604  20.324  0.00  0.00    +0.000 NA
ATOM     11  C   UNL     1       0.345  13.918  20.449  0.00  0.00    +0.000 A 
ATOM     12  N   UNL     1       1.544  14.507  20.771  0.00  0.00    +0.000 N 
ATOM     13  C   UNL     1       2.760  13.690  20.776  0.00  0.00    +0.000 C 
ATOM     14  C   UNL     1       3.811  14.353  21.696  0.00  0.00    +0.000 C 
ATOM     15  N   UNL     1       4.073  15.770  21.346  0.00  0.00    +0.000 NA
ATOM     16  C   UNL     1       5.005  16.365  22.299  0.00  0.00    +0.000 C 
ATOM     17  C   UNL     1       2.797  16.522  21.343  0.00  0.00    +0.000 C 
ATOM     18  C   UNL     1       1.743  15.904  20.402  0.00  0.00    +0.000 C 
ATOM     19  N   UNL     1      -0.748  14.672  20.390  0.00  0.00    +0.000 NA
ATOM     20  N   UNL     1      -5.150  15.274  21.346  0.00  0.00    +0.000 NA
ATOM     21  N   UNL     1      -6.180  14.486  21.701  0.00  0.00    +0.000 N 
ATOM     22  H   UNL     1      -2.780  15.774  20.548  0.00  0.00    +0.000 HD
ATOM     23  H   UNL     1      -1.914  10.356  20.329  0.00  0.00    +0.000 HD
ATOM     24  H   UNL     1      -6.957  14.910  22.196  0.00  0.00    +0.000 HD
ENDROOT
BRANCH   9  25
ATOM     25  C   UNL     1       0.011   9.675  19.988  0.00  0.00    +0.000 A 
ATOM     26  C   UNL     1       0.265   8.834  21.068  0.00  0.00    +0.000 A 
ATOM     27  C   UNL     1       1.283   7.877  21.012  0.00  0.00    +0.000 A 
ATOM     28  C   UNL     1       2.077   7.738  19.873  0.00  0.00    +0.000 A 
ATOM     29  C   UNL     1       1.827   8.568  18.782  0.00  0.00    +0.000 A 
ATOM     30  C   UNL     1       0.800   9.523  18.839  0.00  0.00    +0.000 A 
BRANCH  28  31
ATOM     31  N   UNL     1       3.113   6.780  19.762  0.00  0.00    +0.000 N 
ATOM     32  C   UNL     1       2.951   5.430  19.496  0.00  0.00    +0.000 C 
ATOM     33  O   UNL     1       1.871   4.848  19.418  0.00  0.00    +0.000 OA
ATOM     34  H   UNL     1       4.054   7.129  19.884  0.00  0.00    +0.000 HD
BRANCH  32  35
ATOM     35  C   UNL     1       4.268   4.662  19.326  0.00  0.00    +0.000 C 
ATOM     36  C   UNL     1       4.081   3.424  18.426  0.00  0.00    +0.000 C 
ATOM     37  C   UNL     1       3.898   3.777  16.947  0.00  0.00    +0.000 C 
ATOM     38  C   UNL     1       5.012   4.685  16.435  0.00  0.00    +0.000 C 
ATOM     39  C   UNL     1       5.192   5.915  17.317  0.00  0.00    +0.000 C 
ATOM     40  C   UNL     1       5.402   5.537  18.782  0.00  0.00    +0.000 C 
ENDBRANCH  32  35
ENDBRANCH  28  31
ENDBRANCH   9  25
TORSDOF 3
ENDMDL
MODEL 7
REMARK VINA RESULT:      -8.6      3.041      4.851
REMARK  Name = 
REMARK  5 active torsions:
REMARK  status: ('A' for Active; 'I' for Inactive)
REMARK    1  A    between atoms: C_1  and  C_2
REMARK    2  A    between atoms: N_9  and  C_10
REMARK    3  A    between atoms: C_13  and  N_14
REMARK    4  A    between atoms: C_15  and  C_17
REMARK    5  A    between atoms: N_30  and  C_31
REMARK                            x       y       z     vdW  Elec       q    Type
REMARK                         _______ _______ _______ _____ _____    ______ ____
ROOT
ATOM      1  C   UNL     1       0.457  16.409  23.373  0.00  0.00    +0.000 C 
ATOM      2  C   UNL     1      -0.702  15.994  22.561  0.00  0.00    +0.000 A 
ATOM      3  C   UNL     1      -1.113  14.751  22.147  0.00  0.00    +0.000 A 
ATOM      4  C   UNL     1      -2.240  14.969  21.322  0.00  0.00    +0.000 A 
ATOM      5  N   UNL     1      -2.888  14.028  20.614  0.00  0.00    +0.000 N 
ATOM      6  C   UNL     1      -2.374  12.830  20.114  0.00  0.00    +0.000 A 
ATOM      7  N   UNL     1      -1.294  12.288  20.660  0.00  0.00    +0.000 NA
ATOM      8  C   UNL     1      -0.836  11.194  20.087  0.00  0.00    +0.000 A 
ATOM      9  N   UNL     1       0.309  10.643  20.648  0.00  0.00    +0.000 N 
ATOM     10  N   UNL     1      -1.364  10.669  18.999  0.00  0.00    +0.000 NA
ATOM     11  C   UNL     1      -2.418  11.274  18.487  0.00  0.00    +0.000 A 
ATOM     12  N   UNL     1      -2.869  10.850  17.260  0.00  0.00    +0.000 N 
ATOM     13  C   UNL     1      -2.291   9.641  16.667  0.00  0.00    +0.000 C 
ATOM     14  C   UNL     1      -2.482   9.688  15.134  0.00  0.00    +0.000 C 
ATOM     15  N   UNL     1      -3.893   9.905  14.734  0.00  0.00    +0.000 NA
ATOM     16  C   UNL     1      -3.996  10.026  13.282  0.00  0.00    +0.000 C 
ATOM     17  C   UNL     1      -4.408  11.131  15.386  0.00  0.00    +0.000 C 
ATOM     18  C   UNL     1      -4.268  11.092  16.921  0.00  0.00    +0.000 C 
ATOM     19  N   UNL     1      -2.982  12.338  19.048  0.00  0.00    +0.000 NA
ATOM     20  N   UNL     1      -2.569  16.264  21.300  0.00  0.00    +0.000 NA
ATOM     21  N   UNL     1      -1.615  16.863  22.034  0.00  0.00    +0.000 N 
ATOM     22  H   UNL     1      -3.638  14.341  20.012  0.00  0.00    +0.000 HD
ATOM     23  H   UNL     1       0.768  11.309  21.252  0.00  0.00    +0.000 HD
ATOM     24  H   UNL     1      -1.643  17.873  22.121  0.00  0.00    +0.000 HD
ENDROOT
BRANCH   9  25
ATOM     25  C   UNL     1       0.982   9.459  20.348  0.00  0.00    +0.000 A 
ATOM     26  C   UNL     1       1.589   9.322  19.103  0.00  0.00    +0.000 A 
ATOM     27  C   UNL     1       2.225   8.131  18.738  0.00  0.00    +0.000 A 
ATOM     28  C   UNL     1       2.268   7.043  19.610  0.00  0.00    +0.000 A 
ATOM     29  C   UNL     1       1.672   7.170  20.864  0.00  0.00    +0.000 A 
ATOM     30  C   UNL     1       1.040   8.369  21.229  0.00  0.00    +0.000 A 
BRANCH  28  31
ATOM     31  N   UNL     1       2.906   5.820  19.293  0.00  0.00    +0.000 N 
ATOM     32  C   UNL     1       2.512   4.922  18.316  0.00  0.00    +0.000 C 
ATOM     33  O   UNL     1       1.484   5.009  17.647  0.00  0.00    +0.000 OA
ATOM     34  H   UNL     1       3.731   5.598  19.835  0.00  0.00    +0.000 HD
BRANCH  32  35
ATOM     35  C   UNL     1       3.467   3.736  18.130  0.00  0.00    +0.000 C 
ATOM     36  C   UNL     1       4.110   3.749  16.728  0.00  0.00    +0.000 C 
ATOM     37  C   UNL     1       5.164   4.846  16.559  0.00  0.00    +0.000 C 
ATOM     38  C   UNL     1       6.217   4.800  17.663  0.00  0.00    +0.000 C 
ATOM     39  C   UNL     1       5.586   4.798  19.050  0.00  0.00    +0.000 C 
ATOM     40  C   UNL     1       4.559   3.677  19.204  0.00  0.00    +0.000 C 
ENDBRANCH  32  35
ENDBRANCH  28  31
ENDBRANCH   9  25
TORSDOF 3
ENDMDL
MODEL 8
REMARK VINA RESULT:      -8.6      0.876      1.573
REMARK  Name = 
REMARK  5 active torsions:
REMARK  status: ('A' for Active; 'I' for Inactive)
REMARK    1  A    between atoms: C_1  and  C_2
REMARK    2  A    between atoms: N_9  and  C_10
REMARK    3  A    between atoms: C_13  and  N_14
REMARK    4  A    between atoms: C_15  and  C_17
REMARK    5  A    between atoms: N_30  and  C_31
REMARK                            x       y       z     vdW  Elec       q    Type
REMARK                         _______ _______ _______ _____ _____    ______ ____
ROOT
ATOM      1  C   UNL     1      -5.926  13.009  23.225  0.00  0.00    +0.000 C 
ATOM      2  C   UNL     1      -5.119  13.904  22.376  0.00  0.00    +0.000 A 
ATOM      3  C   UNL     1      -4.157  13.629  21.436  0.00  0.00    +0.000 A 
ATOM      4  C   UNL     1      -3.664  14.882  21.005  0.00  0.00    +0.000 A 
ATOM      5  N   UNL     1      -2.630  15.075  20.169  0.00  0.00    +0.000 N 
ATOM      6  C   UNL     1      -1.538  14.230  19.953  0.00  0.00    +0.000 A 
ATOM      7  N   UNL     1      -1.629  12.937  20.234  0.00  0.00    +0.000 NA
ATOM      8  C   UNL     1      -0.535  12.224  20.064  0.00  0.00    +0.000 A 
ATOM      9  N   UNL     1      -0.628  10.875  20.382  0.00  0.00    +0.000 N 
ATOM     10  N   UNL     1       0.618  12.741  19.688  0.00  0.00    +0.000 NA
ATOM     11  C   UNL     1       0.649  14.039  19.454  0.00  0.00    +0.000 A 
ATOM     12  N   UNL     1       1.874  14.624  19.239  0.00  0.00    +0.000 N 
ATOM     13  C   UNL     1       3.055  13.769  19.091  0.00  0.00    +0.000 C 
ATOM     14  C   UNL     1       4.319  14.584  19.448  0.00  0.00    +0.000 C 
ATOM     15  N   UNL     1       4.426  15.849  18.682  0.00  0.00    +0.000 NA
ATOM     16  C   UNL     1       5.588  16.614  19.124  0.00  0.00    +0.000 C 
ATOM     17  C   UNL     1       3.190  16.645  18.868  0.00  0.00    +0.000 C 
ATOM     18  C   UNL     1       1.917  15.868  18.479  0.00  0.00    +0.000 C 
ATOM     19  N   UNL     1      -0.428  14.813  19.533  0.00  0.00    +0.000 NA
ATOM     20  N   UNL     1      -4.346  15.881  21.574  0.00  0.00    +0.000 NA
ATOM     21  N   UNL     1      -5.199  15.267  22.413  0.00  0.00    +0.000 N 
ATOM     22  H   UNL     1      -2.344  16.030  20.002  0.00  0.00    +0.000 HD
ATOM     23  H   UNL     1      -1.449  10.695  20.942  0.00  0.00    +0.000 HD
ATOM     24  H   UNL     1      -5.800  15.845  22.990  0.00  0.00    +0.000 HD
ENDROOT
BRANCH   9  25
ATOM     25  C   UNL     1       0.298   9.844  20.229  0.00  0.00    +0.000 A 
ATOM     26  C   UNL     1       0.959   9.704  19.012  0.00  0.00    +0.000 A 
ATOM     27  C   UNL     1       1.853   8.650  18.795  0.00  0.00    +0.000 A 
ATOM     28  C   UNL     1       2.106   7.706  19.791  0.00  0.00    +0.000 A 
ATOM     29  C   UNL     1       1.458   7.841  21.017  0.00  0.00    +0.000 A 
ATOM     30  C   UNL     1       0.567   8.903  21.234  0.00  0.00    +0.000 A 
BRANCH  28  31
ATOM     31  N   UNL     1       3.009   6.628  19.625  0.00  0.00    +0.000 N 
ATOM     32  C   UNL     1       2.883   5.591  18.715  0.00  0.00    +0.000 C 
ATOM     33  O   UNL     1       1.912   5.402  17.986  0.00  0.00    +0.000 OA
ATOM     34  H   UNL     1       3.819   6.632  20.229  0.00  0.00    +0.000 HD
BRANCH  32  35
ATOM     35  C   UNL     1       4.077   4.627  18.694  0.00  0.00    +0.000 C 
ATOM     36  C   UNL     1       4.112   3.808  17.388  0.00  0.00    +0.000 C 
ATOM     37  C   UNL     1       4.538   4.634  16.171  0.00  0.00    +0.000 C 
ATOM     38  C   UNL     1       5.853   5.369  16.413  0.00  0.00    +0.000 C 
ATOM     39  C   UNL     1       5.818   6.188  17.697  0.00  0.00    +0.000 C 
ATOM     40  C   UNL     1       5.419   5.336  18.902  0.00  0.00    +0.000 C 
ENDBRANCH  32  35
ENDBRANCH  28  31
ENDBRANCH   9  25
TORSDOF 3
ENDMDL
MODEL 9
REMARK VINA RESULT:      -8.6      1.067      1.067
REMARK  Name = 
REMARK  5 active torsions:
REMARK  status: ('A' for Active; 'I' for Inactive)
REMARK    1  A    between atoms: C_1  and  C_2
REMARK    2  A    between atoms: N_9  and  C_10
REMARK    3  A    between atoms: C_13  and  N_14
REMARK    4  A    between atoms: C_15  and  C_17
REMARK    5  A    between atoms: N_30  and  C_31
REMARK                            x       y       z     vdW  Elec       q    Type
REMARK                         _______ _______ _______ _____ _____    ______ ____
ROOT
ATOM      1  C   UNL     1      -6.435  12.368  22.293  0.00  0.00    +0.000 C 
ATOM      2  C   UNL     1      -5.502  13.437  21.894  0.00  0.00    +0.000 A 
ATOM      3  C   UNL     1      -4.383  13.407  21.099  0.00  0.00    +0.000 A 
ATOM      4  C   UNL     1      -3.839  14.711  21.143  0.00  0.00    +0.000 A 
ATOM      5  N   UNL     1      -2.675  15.096  20.593  0.00  0.00    +0.000 N 
ATOM      6  C   UNL     1      -1.551  14.307  20.336  0.00  0.00    +0.000 A 
ATOM      7  N   UNL     1      -1.672  12.992  20.211  0.00  0.00    +0.000 NA
ATOM      8  C   UNL     1      -0.555  12.317  20.036  0.00  0.00    +0.000 A 
ATOM      9  N   UNL     1      -0.685  10.938  19.928  0.00  0.00    +0.000 N 
ATOM     10  N   UNL     1       0.639  12.875  20.034  0.00  0.00    +0.000 NA
ATOM     11  C   UNL     1       0.693  14.184  20.196  0.00  0.00    +0.000 A 
ATOM     12  N   UNL     1       1.929  14.758  20.377  0.00  0.00    +0.000 N 
ATOM     13  C   UNL     1       3.129  13.937  20.197  0.00  0.00    +0.000 C 
ATOM     14  C   UNL     1       4.297  14.566  20.991  0.00  0.00    +0.000 C 
ATOM     15  N   UNL     1       4.522  15.992  20.655  0.00  0.00    +0.000 NA
ATOM     16  C   UNL     1       5.575  16.552  21.496  0.00  0.00    +0.000 C 
ATOM     17  C   UNL     1       3.262  16.748  20.844  0.00  0.00    +0.000 C 
ATOM     18  C   UNL     1       2.089  16.166  20.029  0.00  0.00    +0.000 C 
ATOM     19  N   UNL     1      -0.392  14.943  20.305  0.00  0.00    +0.000 NA
ATOM     20  N   UNL     1      -4.626  15.530  21.848  0.00  0.00    +0.000 NA
ATOM     21  N   UNL     1      -5.607  14.735  22.309  0.00  0.00    +0.000 N 
ATOM     22  H   UNL     1      -2.377  16.047  20.763  0.00  0.00    +0.000 HD
ATOM     23  H   UNL     1      -1.590  10.636  20.259  0.00  0.00    +0.000 HD
ATOM     24  H   UNL     1      -6.309  15.145  22.915  0.00  0.00    +0.000 HD
ENDROOT
BRANCH   9  25
ATOM     25  C   UNL     1       0.268   9.960  19.648  0.00  0.00    +0.000 A 
ATOM     26  C   UNL     1       0.744   9.831  18.346  0.00  0.00    +0.000 A 
ATOM     27  C   UNL     1       1.657   8.827  18.008  0.00  0.00    +0.000 A 
ATOM     28  C   UNL     1       2.115   7.921  18.965  0.00  0.00    +0.000 A 
ATOM     29  C   UNL     1       1.654   8.044  20.274  0.00  0.00    +0.000 A 
ATOM     30  C   UNL     1       0.743   9.058  20.612  0.00  0.00    +0.000 A 
BRANCH  28  31
ATOM     31  N   UNL     1       3.046   6.894  18.677  0.00  0.00    +0.000 N 
ATOM     32  C   UNL     1       2.764   5.687  18.058  0.00  0.00    +0.000 C 
ATOM     33  O   UNL     1       1.640   5.289  17.760  0.00  0.00    +0.000 OA
ATOM     34  H   UNL     1       4.003   7.075  18.947  0.00  0.00    +0.000 HD
BRANCH  32  35
ATOM     35  C   UNL     1       3.999   4.820  17.781  0.00  0.00    +0.000 C 
ATOM     36  C   UNL     1       4.718   4.435  19.089  0.00  0.00    +0.000 C 
ATOM     37  C   UNL     1       3.956   3.390  19.909  0.00  0.00    +0.000 C 
ATOM     38  C   UNL     1       3.601   2.162  19.078  0.00  0.00    +0.000 C 
ATOM     39  C   UNL     1       2.880   2.538  17.788  0.00  0.00    +0.000 C 
ATOM     40  C   UNL     1       3.673   3.559  16.973  0.00  0.00    +0.000 C 
ENDBRANCH  32  35
ENDBRANCH  28  31
ENDBRANCH   9  25
TORSDOF 3
ENDMDL
