MODEL 1
REMARK VINA RESULT:      -7.8      0.000      0.000
REMARK  Name = 
REMARK  6 active torsions:
REMARK  status: ('A' for Active; 'I' for Inactive)
REMARK    1  A    between atoms: C_2  and  C_3
REMARK    2  A    between atoms: C_3  and  N_4
REMARK    3  A    between atoms: N_13  and  C_14
REMARK    4  A    between atoms: C_14  and  C_15
REMARK    5  A    between atoms: C_14  and  C_22
REMARK    6  A    between atoms: C_24  and  O_25
REMARK                            x       y       z     vdW  Elec       q    Type
REMARK                         _______ _______ _______ _____ _____    ______ ____
ROOT
ATOM      1  O   UNL     1       2.340   3.166  17.006  0.00  0.00    +0.000 OA
ATOM      2  C   UNL     1       3.294   3.857  17.347  0.00  0.00    +0.000 C 
ATOM      3  N   UNL     1       3.209   4.851  18.295  0.00  0.00    +0.000 N 
ATOM      4  H   UNL     1       4.045   5.363  18.539  0.00  0.00    +0.000 HD
ENDROOT
BRANCH   2   5
ATOM      5  C   UNL     1       4.668   3.698  16.732  0.00  0.00    +0.000 C 
BRANCH   5   6
ATOM      6  N   UNL     1       5.391   4.942  16.538  0.00  0.00    +0.000 N 
ATOM      7  C   UNL     1       5.265   5.833  15.509  0.00  0.00    +0.000 A 
ATOM      8  N   UNL     1       6.014   6.898  15.693  0.00  0.00    +0.000 NA
ATOM      9  C   UNL     1       6.685   6.673  16.867  0.00  0.00    +0.000 A 
ATOM     10  C   UNL     1       7.624   7.476  17.528  0.00  0.00    +0.000 A 
ATOM     11  C   UNL     1       8.180   7.016  18.728  0.00  0.00    +0.000 A 
ATOM     12  C   UNL     1       7.811   5.779  19.258  0.00  0.00    +0.000 A 
ATOM     13  C   UNL     1       6.872   4.964  18.614  0.00  0.00    +0.000 A 
ATOM     14  C   UNL     1       6.324   5.446  17.419  0.00  0.00    +0.000 A 
ENDBRANCH   5   6
ENDBRANCH   2   5
BRANCH   3  15
ATOM     15  C   UNL     1       1.971   5.206  18.979  0.00  0.00    +0.000 C 
BRANCH  15  16
ATOM     16  C   UNL     1       1.831   6.709  19.161  0.00  0.00    +0.000 A 
ATOM     17  C   UNL     1       2.055   7.563  18.062  0.00  0.00    +0.000 A 
ATOM     18  C   UNL     1       1.923   8.948  18.181  0.00  0.00    +0.000 A 
ATOM     19  C   UNL     1       1.572   9.501  19.408  0.00  0.00    +0.000 A 
ATOM     20  F   UNL     1       1.432  10.827  19.526  0.00  0.00    +0.000 F 
ATOM     21  C   UNL     1       1.370   8.690  20.515  0.00  0.00    +0.000 A 
ATOM     22  C   UNL     1       1.503   7.303  20.395  0.00  0.00    +0.000 A 
ENDBRANCH  15  16
BRANCH  15  23
ATOM     23  C   UNL     1       1.999   4.397  20.291  0.00  0.00    +0.000 C 
ATOM     24  C   UNL     1       0.892   3.354  20.611  0.00  0.00    +0.000 C 
ATOM     25  C   UNL     1       1.931   2.227  20.502  0.00  0.00    +0.000 C 
ATOM     26  C   UNL     1       3.048   3.285  20.568  0.00  0.00    +0.000 C 
BRANCH  25  27
ATOM     27  O   UNL     1       1.868   1.402  19.327  0.00  0.00    +0.000 OA
ATOM     28  H   UNL     1       1.059   0.867  19.406  0.00  0.00    +0.000 HD
ENDBRANCH  25  27
ENDBRANCH  15  23
ENDBRANCH   3  15
TORSDOF 6
ENDMDL
MODEL 2
REMARK VINA RESULT:      -7.7      3.322      6.552
REMARK  Name = 
REMARK  6 active torsions:
REMARK  status: ('A' for Active; 'I' for Inactive)
REMARK    1  A    between atoms: C_2  and  C_3
REMARK    2  A    between atoms: C_3  and  N_4
REMARK    3  A    between atoms: N_13  and  C_14
REMARK    4  A    between atoms: C_14  and  C_15
REMARK    5  A    between atoms: C_14  and  C_22
REMARK    6  A    between atoms: C_24  and  O_25
REMARK                            x       y       z     vdW  Elec       q    Type
REMARK                         _______ _______ _______ _____ _____    ______ ____
ROOT
ATOM      1  O   UNL     1       0.884   8.277  17.515  0.00  0.00    +0.000 OA
ATOM      2  C   UNL     1       1.958   8.500  18.064  0.00  0.00    +0.000 C 
ATOM      3  N   UNL     1       2.956   7.562  18.186  0.00  0.00    +0.000 N 
ATOM      4  H   UNL     1       3.823   7.828  18.632  0.00  0.00    +0.000 HD
ENDROOT
BRANCH   2   5
ATOM      5  C   UNL     1       2.281   9.841  18.690  0.00  0.00    +0.000 C 
BRANCH   5   6
ATOM      6  N   UNL     1       1.165  10.476  19.367  0.00  0.00    +0.000 N 
ATOM      7  C   UNL     1       0.324  11.435  18.877  0.00  0.00    +0.000 A 
ATOM      8  N   UNL     1      -0.633  11.727  19.730  0.00  0.00    +0.000 NA
ATOM      9  C   UNL     1      -0.380  10.957  20.836  0.00  0.00    +0.000 A 
ATOM     10  C   UNL     1      -1.078  10.880  22.050  0.00  0.00    +0.000 A 
ATOM     11  C   UNL     1      -0.611  10.010  23.042  0.00  0.00    +0.000 A 
ATOM     12  C   UNL     1       0.530   9.234  22.832  0.00  0.00    +0.000 A 
ATOM     13  C   UNL     1       1.238   9.295  21.625  0.00  0.00    +0.000 A 
ATOM     14  C   UNL     1       0.751  10.167  20.644  0.00  0.00    +0.000 A 
ENDBRANCH   5   6
ENDBRANCH   2   5
BRANCH   3  15
ATOM     15  C   UNL     1       2.837   6.193  17.697  0.00  0.00    +0.000 C 
BRANCH  15  16
ATOM     16  C   UNL     1       2.320   5.248  18.770  0.00  0.00    +0.000 A 
ATOM     17  C   UNL     1       2.606   5.516  20.125  0.00  0.00    +0.000 A 
ATOM     18  C   UNL     1       2.139   4.683  21.143  0.00  0.00    +0.000 A 
ATOM     19  C   UNL     1       1.384   3.561  20.820  0.00  0.00    +0.000 A 
ATOM     20  F   UNL     1       0.924   2.766  21.793  0.00  0.00    +0.000 F 
ATOM     21  C   UNL     1       1.107   3.256  19.496  0.00  0.00    +0.000 A 
ATOM     22  C   UNL     1       1.576   4.089  18.476  0.00  0.00    +0.000 A 
ENDBRANCH  15  16
BRANCH  15  23
ATOM     23  C   UNL     1       4.236   5.845  17.150  0.00  0.00    +0.000 C 
ATOM     24  C   UNL     1       5.484   5.865  18.075  0.00  0.00    +0.000 C 
ATOM     25  C   UNL     1       5.614   4.341  17.922  0.00  0.00    +0.000 C 
ATOM     26  C   UNL     1       4.637   4.403  16.734  0.00  0.00    +0.000 C 
BRANCH  25  27
ATOM     27  O   UNL     1       5.232   3.543  19.054  0.00  0.00    +0.000 OA
ATOM     28  H   UNL     1       4.691   2.812  18.710  0.00  0.00    +0.000 HD
ENDBRANCH  25  27
ENDBRANCH  15  23
ENDBRANCH   3  15
TORSDOF 6
ENDMDL
MODEL 3
REMARK VINA RESULT:      -7.7      3.840      7.085
REMARK  Name = 
REMARK  6 active torsions:
REMARK  status: ('A' for Active; 'I' for Inactive)
REMARK    1  A    between atoms: C_2  and  C_3
REMARK    2  A    between atoms: C_3  and  N_4
REMARK    3  A    between atoms: N_13  and  C_14
REMARK    4  A    between atoms: C_14  and  C_15
REMARK    5  A    between atoms: C_14  and  C_22
REMARK    6  A    between atoms: C_24  and  O_25
REMARK                            x       y       z     vdW  Elec       q    Type
REMARK                         _______ _______ _______ _____ _____    ______ ____
ROOT
ATOM      1  O   UNL     1       1.581   8.333  20.049  0.00  0.00    +0.000 OA
ATOM      2  C   UNL     1       1.911   8.452  18.874  0.00  0.00    +0.000 C 
ATOM      3  N   UNL     1       2.630   7.501  18.187  0.00  0.00    +0.000 N 
ATOM      4  H   UNL     1       2.845   7.662  17.213  0.00  0.00    +0.000 HD
ENDROOT
BRANCH   2   5
ATOM      5  C   UNL     1       1.577   9.687  18.063  0.00  0.00    +0.000 C 
BRANCH   5   6
ATOM      6  N   UNL     1       0.566  10.544  18.656  0.00  0.00    +0.000 N 
ATOM      7  C   UNL     1       0.737  11.497  19.621  0.00  0.00    +0.000 A 
ATOM      8  N   UNL     1      -0.379  12.147  19.867  0.00  0.00    +0.000 NA
ATOM      9  C   UNL     1      -1.323  11.566  19.060  0.00  0.00    +0.000 A 
ATOM     10  C   UNL     1      -2.687  11.859  18.926  0.00  0.00    +0.000 A 
ATOM     11  C   UNL     1      -3.454  11.109  18.026  0.00  0.00    +0.000 A 
ATOM     12  C   UNL     1      -2.874  10.086  17.275  0.00  0.00    +0.000 A 
ATOM     13  C   UNL     1      -1.512   9.781  17.392  0.00  0.00    +0.000 A 
ATOM     14  C   UNL     1      -0.763  10.547  18.293  0.00  0.00    +0.000 A 
ENDBRANCH   5   6
ENDBRANCH   2   5
BRANCH   3  15
ATOM     15  C   UNL     1       3.097   6.258  18.790  0.00  0.00    +0.000 C 
BRANCH  15  16
ATOM     16  C   UNL     1       4.376   5.754  18.139  0.00  0.00    +0.000 A 
ATOM     17  C   UNL     1       4.587   5.979  16.763  0.00  0.00    +0.000 A 
ATOM     18  C   UNL     1       5.753   5.548  16.128  0.00  0.00    +0.000 A 
ATOM     19  C   UNL     1       6.725   4.876  16.861  0.00  0.00    +0.000 A 
ATOM     20  F   UNL     1       7.850   4.470  16.261  0.00  0.00    +0.000 F 
ATOM     21  C   UNL     1       6.536   4.617  18.210  0.00  0.00    +0.000 A 
ATOM     22  C   UNL     1       5.368   5.048  18.846  0.00  0.00    +0.000 A 
ENDBRANCH  15  16
BRANCH  15  23
ATOM     23  C   UNL     1       1.898   5.293  18.686  0.00  0.00    +0.000 C 
ATOM     24  C   UNL     1       1.961   4.034  17.777  0.00  0.00    +0.000 C 
ATOM     25  C   UNL     1       1.909   3.138  19.025  0.00  0.00    +0.000 C 
ATOM     26  C   UNL     1       1.471   4.360  19.853  0.00  0.00    +0.000 C 
BRANCH  25  27
ATOM     27  O   UNL     1       3.132   2.486  19.402  0.00  0.00    +0.000 OA
ATOM     28  H   UNL     1       3.858   3.054  19.092  0.00  0.00    +0.000 HD
ENDBRANCH  25  27
ENDBRANCH  15  23
ENDBRANCH   3  15
TORSDOF 6
ENDMDL
MODEL 4
REMARK VINA RESULT:      -7.7      3.297      6.550
REMARK  Name = 
REMARK  6 active torsions:
REMARK  status: ('A' for Active; 'I' for Inactive)
REMARK    1  A    between atoms: C_2  and  C_3
REMARK    2  A    between atoms: C_3  and  N_4
REMARK    3  A    between atoms: N_13  and  C_14
REMARK    4  A    between atoms: C_14  and  C_15
REMARK    5  A    between atoms: C_14  and  C_22
REMARK    6  A    between atoms: C_24  and  O_25
REMARK                            x       y       z     vdW  Elec       q    Type
REMARK                         _______ _______ _______ _____ _____    ______ ____
ROOT
ATOM      1  O   UNL     1       0.832   8.479  17.391  0.00  0.00    +0.000 OA
ATOM      2  C   UNL     1       1.875   8.951  17.831  0.00  0.00    +0.000 C 
ATOM      3  N   UNL     1       3.054   8.246  17.906  0.00  0.00    +0.000 N 
ATOM      4  H   UNL     1       3.878   8.711  18.260  0.00  0.00    +0.000 HD
ENDROOT
BRANCH   2   5
ATOM      5  C   UNL     1       1.960  10.366  18.364  0.00  0.00    +0.000 C 
BRANCH   5   6
ATOM      6  N   UNL     1       0.877  10.741  19.256  0.00  0.00    +0.000 N 
ATOM      7  C   UNL     1      -0.170  11.579  18.997  0.00  0.00    +0.000 A 
ATOM      8  N   UNL     1      -1.015  11.629  20.003  0.00  0.00    +0.000 NA
ATOM      9  C   UNL     1      -0.474  10.824  20.972  0.00  0.00    +0.000 A 
ATOM     10  C   UNL     1      -0.952  10.525  22.255  0.00  0.00    +0.000 A 
ATOM     11  C   UNL     1      -0.205   9.667  23.071  0.00  0.00    +0.000 A 
ATOM     12  C   UNL     1       0.997   9.119  22.618  0.00  0.00    +0.000 A 
ATOM     13  C   UNL     1       1.489   9.403  21.339  0.00  0.00    +0.000 A 
ATOM     14  C   UNL     1       0.722  10.258  20.537  0.00  0.00    +0.000 A 
ENDBRANCH   5   6
ENDBRANCH   2   5
BRANCH   3  15
ATOM     15  C   UNL     1       3.185   6.854  17.492  0.00  0.00    +0.000 C 
BRANCH  15  16
ATOM     16  C   UNL     1       2.536   5.901  18.484  0.00  0.00    +0.000 A 
ATOM     17  C   UNL     1       1.924   4.722  18.012  0.00  0.00    +0.000 A 
ATOM     18  C   UNL     1       1.330   3.812  18.889  0.00  0.00    +0.000 A 
ATOM     19  C   UNL     1       1.332   4.074  20.255  0.00  0.00    +0.000 A 
ATOM     20  F   UNL     1       0.774   3.200  21.101  0.00  0.00    +0.000 F 
ATOM     21  C   UNL     1       1.903   5.238  20.748  0.00  0.00    +0.000 A 
ATOM     22  C   UNL     1       2.497   6.149  19.870  0.00  0.00    +0.000 A 
ENDBRANCH  15  16
BRANCH  15  23
ATOM     23  C   UNL     1       4.699   6.641  17.291  0.00  0.00    +0.000 C 
ATOM     24  C   UNL     1       5.500   5.674  18.207  0.00  0.00    +0.000 C 
ATOM     25  C   UNL     1       5.736   4.743  17.006  0.00  0.00    +0.000 C 
ATOM     26  C   UNL     1       5.282   5.879  16.069  0.00  0.00    +0.000 C 
BRANCH  25  27
ATOM     27  O   UNL     1       4.982   3.520  16.979  0.00  0.00    +0.000 OA
ATOM     28  H   UNL     1       5.585   2.829  16.657  0.00  0.00    +0.000 HD
ENDBRANCH  25  27
ENDBRANCH  15  23
ENDBRANCH   3  15
TORSDOF 6
ENDMDL
MODEL 5
REMARK VINA RESULT:      -7.6      0.742      1.217
REMARK  Name = 
REMARK  6 active torsions:
REMARK  status: ('A' for Active; 'I' for Inactive)
REMARK    1  A    between atoms: C_2  and  C_3
REMARK    2  A    between atoms: C_3  and  N_4
REMARK    3  A    between atoms: N_13  and  C_14
REMARK    4  A    between atoms: C_14  and  C_15
REMARK    5  A    between atoms: C_14  and  C_22
REMARK    6  A    between atoms: C_24  and  O_25
REMARK                            x       y       z     vdW  Elec       q    Type
REMARK                         _______ _______ _______ _____ _____    ______ ____
ROOT
ATOM      1  O   UNL     1       2.169   3.392  16.799  0.00  0.00    +0.000 OA
ATOM      2  C   UNL     1       3.114   3.738  17.500  0.00  0.00    +0.000 C 
ATOM      3  N   UNL     1       2.972   4.466  18.659  0.00  0.00    +0.000 N 
ATOM      4  H   UNL     1       3.797   4.694  19.195  0.00  0.00    +0.000 HD
ENDROOT
BRANCH   2   5
ATOM      5  C   UNL     1       4.549   3.414  17.140  0.00  0.00    +0.000 C 
BRANCH   5   6
ATOM      6  N   UNL     1       5.342   4.559  16.728  0.00  0.00    +0.000 N 
ATOM      7  C   UNL     1       5.316   5.206  15.525  0.00  0.00    +0.000 A 
ATOM      8  N   UNL     1       6.105   6.258  15.521  0.00  0.00    +0.000 NA
ATOM      9  C   UNL     1       6.698   6.272  16.756  0.00  0.00    +0.000 A 
ATOM     10  C   UNL     1       7.638   7.167  17.287  0.00  0.00    +0.000 A 
ATOM     11  C   UNL     1       8.105   6.961  18.591  0.00  0.00    +0.000 A 
ATOM     12  C   UNL     1       7.646   5.884  19.351  0.00  0.00    +0.000 A 
ATOM     13  C   UNL     1       6.705   4.982  18.840  0.00  0.00    +0.000 A 
ATOM     14  C   UNL     1       6.248   5.209  17.536  0.00  0.00    +0.000 A 
ENDBRANCH   5   6
ENDBRANCH   2   5
BRANCH   3  15
ATOM     15  C   UNL     1       1.684   4.925  19.166  0.00  0.00    +0.000 C 
BRANCH  15  16
ATOM     16  C   UNL     1       1.637   6.438  19.314  0.00  0.00    +0.000 A 
ATOM     17  C   UNL     1       1.265   7.001  20.553  0.00  0.00    +0.000 A 
ATOM     18  C   UNL     1       1.224   8.384  20.737  0.00  0.00    +0.000 A 
ATOM     19  C   UNL     1       1.546   9.227  19.680  0.00  0.00    +0.000 A 
ATOM     20  F   UNL     1       1.518  10.554  19.854  0.00  0.00    +0.000 F 
ATOM     21  C   UNL     1       1.890   8.706  18.442  0.00  0.00    +0.000 A 
ATOM     22  C   UNL     1       1.931   7.320  18.257  0.00  0.00    +0.000 A 
ENDBRANCH  15  16
BRANCH  15  23
ATOM     23  C   UNL     1       1.473   4.142  20.477  0.00  0.00    +0.000 C 
ATOM     24  C   UNL     1       1.475   2.588  20.490  0.00  0.00    +0.000 C 
ATOM     25  C   UNL     1       2.772   2.604  21.316  0.00  0.00    +0.000 C 
ATOM     26  C   UNL     1       2.539   4.098  21.607  0.00  0.00    +0.000 C 
BRANCH  25  27
ATOM     27  O   UNL     1       3.980   2.243  20.627  0.00  0.00    +0.000 OA
ATOM     28  H   UNL     1       3.712   1.740  19.839  0.00  0.00    +0.000 HD
ENDBRANCH  25  27
ENDBRANCH  15  23
ENDBRANCH   3  15
TORSDOF 6
ENDMDL
MODEL 6
REMARK VINA RESULT:      -7.3      3.549      7.230
REMARK  Name = 
REMARK  6 active torsions:
REMARK  status: ('A' for Active; 'I' for Inactive)
REMARK    1  A    between atoms: C_2  and  C_3
REMARK    2  A    between atoms: C_3  and  N_4
REMARK    3  A    between atoms: N_13  and  C_14
REMARK    4  A    between atoms: C_14  and  C_15
REMARK    5  A    between atoms: C_14  and  C_22
REMARK    6  A    between atoms: C_24  and  O_25
REMARK                            x       y       z     vdW  Elec       q    Type
REMARK                         _______ _______ _______ _____ _____    ______ ____
ROOT
ATOM      1  O   UNL     1       0.660   8.798  17.329  0.00  0.00    +0.000 OA
ATOM      2  C   UNL     1       1.542   9.059  18.141  0.00  0.00    +0.000 C 
ATOM      3  N   UNL     1       2.642   8.260  18.349  0.00  0.00    +0.000 N 
ATOM      4  H   UNL     1       3.338   8.553  19.020  0.00  0.00    +0.000 HD
ENDROOT
BRANCH   2   5
ATOM      5  C   UNL     1       1.491  10.290  19.022  0.00  0.00    +0.000 C 
BRANCH   5   6
ATOM      6  N   UNL     1       0.721  10.127  20.243  0.00  0.00    +0.000 N 
ATOM      7  C   UNL     1       0.488   8.975  20.938  0.00  0.00    +0.000 A 
ATOM      8  N   UNL     1      -0.179   9.202  22.048  0.00  0.00    +0.000 NA
ATOM      9  C   UNL     1      -0.425  10.551  22.054  0.00  0.00    +0.000 A 
ATOM     10  C   UNL     1      -1.111  11.330  22.996  0.00  0.00    +0.000 A 
ATOM     11  C   UNL     1      -1.236  12.707  22.771  0.00  0.00    +0.000 A 
ATOM     12  C   UNL     1      -0.690  13.295  21.629  0.00  0.00    +0.000 A 
ATOM     13  C   UNL     1       0.001  12.534  20.679  0.00  0.00    +0.000 A 
ATOM     14  C   UNL     1       0.119  11.161  20.926  0.00  0.00    +0.000 A 
ENDBRANCH   5   6
ENDBRANCH   2   5
BRANCH   3  15
ATOM     15  C   UNL     1       2.867   7.003  17.643  0.00  0.00    +0.000 C 
BRANCH  15  16
ATOM     16  C   UNL     1       2.307   5.813  18.407  0.00  0.00    +0.000 A 
ATOM     17  C   UNL     1       2.269   5.851  19.816  0.00  0.00    +0.000 A 
ATOM     18  C   UNL     1       1.749   4.787  20.556  0.00  0.00    +0.000 A 
ATOM     19  C   UNL     1       1.268   3.662  19.895  0.00  0.00    +0.000 A 
ATOM     20  F   UNL     1       0.758   2.644  20.599  0.00  0.00    +0.000 F 
ATOM     21  C   UNL     1       1.315   3.584  18.512  0.00  0.00    +0.000 A 
ATOM     22  C   UNL     1       1.835   4.649  17.771  0.00  0.00    +0.000 A 
ENDBRANCH  15  16
BRANCH  15  23
ATOM     23  C   UNL     1       4.388   6.954  17.398  0.00  0.00    +0.000 C 
ATOM     24  C   UNL     1       5.254   5.799  17.973  0.00  0.00    +0.000 C 
ATOM     25  C   UNL     1       5.531   5.303  16.544  0.00  0.00    +0.000 C 
ATOM     26  C   UNL     1       5.002   6.645  16.004  0.00  0.00    +0.000 C 
BRANCH  25  27
ATOM     27  O   UNL     1       4.850   4.107  16.133  0.00  0.00    +0.000 OA
ATOM     28  H   UNL     1       4.699   3.582  16.937  0.00  0.00    +0.000 HD
ENDBRANCH  25  27
ENDBRANCH  15  23
ENDBRANCH   3  15
TORSDOF 6
ENDMDL
MODEL 7
REMARK VINA RESULT:      -7.3      1.449      2.338
REMARK  Name = 
REMARK  6 active torsions:
REMARK  status: ('A' for Active; 'I' for Inactive)
REMARK    1  A    between atoms: C_2  and  C_3
REMARK    2  A    between atoms: C_3  and  N_4
REMARK    3  A    between atoms: N_13  and  C_14
REMARK    4  A    between atoms: C_14  and  C_15
REMARK    5  A    between atoms: C_14  and  C_22
REMARK    6  A    between atoms: C_24  and  O_25
REMARK                            x       y       z     vdW  Elec       q    Type
REMARK                         _______ _______ _______ _____ _____    ______ ____
ROOT
ATOM      1  O   UNL     1       3.329   3.742  17.398  0.00  0.00    +0.000 OA
ATOM      2  C   UNL     1       4.036   4.387  18.166  0.00  0.00    +0.000 C 
ATOM      3  N   UNL     1       3.546   5.337  19.032  0.00  0.00    +0.000 N 
ATOM      4  H   UNL     1       4.189   5.810  19.650  0.00  0.00    +0.000 HD
ENDROOT
BRANCH   2   5
ATOM      5  C   UNL     1       5.540   4.215  18.216  0.00  0.00    +0.000 C 
BRANCH   5   6
ATOM      6  N   UNL     1       6.266   4.946  17.193  0.00  0.00    +0.000 N 
ATOM      7  C   UNL     1       7.034   6.066  17.349  0.00  0.00    +0.000 A 
ATOM      8  N   UNL     1       7.617   6.417  16.224  0.00  0.00    +0.000 NA
ATOM      9  C   UNL     1       7.178   5.515  15.290  0.00  0.00    +0.000 A 
ATOM     10  C   UNL     1       7.474   5.430  13.923  0.00  0.00    +0.000 A 
ATOM     11  C   UNL     1       6.887   4.406  13.168  0.00  0.00    +0.000 A 
ATOM     12  C   UNL     1       6.020   3.488  13.763  0.00  0.00    +0.000 A 
ATOM     13  C   UNL     1       5.715   3.556  15.128  0.00  0.00    +0.000 A 
ATOM     14  C   UNL     1       6.318   4.583  15.865  0.00  0.00    +0.000 A 
ENDBRANCH   5   6
ENDBRANCH   2   5
BRANCH   3  15
ATOM     15  C   UNL     1       2.135   5.696  19.115  0.00  0.00    +0.000 C 
BRANCH  15  16
ATOM     16  C   UNL     1       1.931   7.203  19.129  0.00  0.00    +0.000 A 
ATOM     17  C   UNL     1       2.265   7.958  17.986  0.00  0.00    +0.000 A 
ATOM     18  C   UNL     1       2.080   9.342  17.951  0.00  0.00    +0.000 A 
ATOM     19  C   UNL     1       1.564   9.993  19.065  0.00  0.00    +0.000 A 
ATOM     20  F   UNL     1       1.373  11.317  19.033  0.00  0.00    +0.000 F 
ATOM     21  C   UNL     1       1.249   9.283  20.214  0.00  0.00    +0.000 A 
ATOM     22  C   UNL     1       1.436   7.898  20.250  0.00  0.00    +0.000 A 
ENDBRANCH  15  16
BRANCH  15  23
ATOM     23  C   UNL     1       1.613   4.963  20.367  0.00  0.00    +0.000 C 
ATOM     24  C   UNL     1       0.644   3.754  20.240  0.00  0.00    +0.000 C 
ATOM     25  C   UNL     1       1.740   2.827  20.790  0.00  0.00    +0.000 C 
ATOM     26  C   UNL     1       2.523   4.069  21.254  0.00  0.00    +0.000 C 
BRANCH  25  27
ATOM     27  O   UNL     1       2.381   1.954  19.846  0.00  0.00    +0.000 OA
ATOM     28  H   UNL     1       2.027   1.062  20.007  0.00  0.00    +0.000 HD
ENDBRANCH  25  27
ENDBRANCH  15  23
ENDBRANCH   3  15
TORSDOF 6
ENDMDL
MODEL 8
REMARK VINA RESULT:      -7.3      3.673      7.171
REMARK  Name = 
REMARK  6 active torsions:
REMARK  status: ('A' for Active; 'I' for Inactive)
REMARK    1  A    between atoms: C_2  and  C_3
REMARK    2  A    between atoms: C_3  and  N_4
REMARK    3  A    between atoms: N_13  and  C_14
REMARK    4  A    between atoms: C_14  and  C_15
REMARK    5  A    between atoms: C_14  and  C_22
REMARK    6  A    between atoms: C_24  and  O_25
REMARK                            x       y       z     vdW  Elec       q    Type
REMARK                         _______ _______ _______ _____ _____    ______ ____
ROOT
ATOM      1  O   UNL     1       1.324   6.848  21.170  0.00  0.00    +0.000 OA
ATOM      2  C   UNL     1       1.704   7.552  20.240  0.00  0.00    +0.000 C 
ATOM      3  N   UNL     1       2.519   7.099  19.229  0.00  0.00    +0.000 N 
ATOM      4  H   UNL     1       2.771   7.734  18.485  0.00  0.00    +0.000 HD
ENDROOT
BRANCH   2   5
ATOM      5  C   UNL     1       1.328   9.015  20.129  0.00  0.00    +0.000 C 
BRANCH   5   6
ATOM      6  N   UNL     1       0.656   9.557  21.297  0.00  0.00    +0.000 N 
ATOM      7  C   UNL     1       0.881   9.251  22.610  0.00  0.00    +0.000 A 
ATOM      8  N   UNL     1       0.151   9.992  23.414  0.00  0.00    +0.000 NA
ATOM      9  C   UNL     1      -0.610  10.781  22.591  0.00  0.00    +0.000 A 
ATOM     10  C   UNL     1      -1.573  11.746  22.918  0.00  0.00    +0.000 A 
ATOM     11  C   UNL     1      -2.228  12.424  21.882  0.00  0.00    +0.000 A 
ATOM     12  C   UNL     1      -1.932  12.143  20.547  0.00  0.00    +0.000 A 
ATOM     13  C   UNL     1      -0.972  11.185  20.201  0.00  0.00    +0.000 A 
ATOM     14  C   UNL     1      -0.324  10.524  21.252  0.00  0.00    +0.000 A 
ENDBRANCH   5   6
ENDBRANCH   2   5
BRANCH   3  15
ATOM     15  C   UNL     1       3.038   5.737  19.165  0.00  0.00    +0.000 C 
BRANCH  15  16
ATOM     16  C   UNL     1       4.220   5.622  18.216  0.00  0.00    +0.000 A 
ATOM     17  C   UNL     1       4.290   6.470  17.092  0.00  0.00    +0.000 A 
ATOM     18  C   UNL     1       5.366   6.409  16.203  0.00  0.00    +0.000 A 
ATOM     19  C   UNL     1       6.385   5.489  16.423  0.00  0.00    +0.000 A 
ATOM     20  F   UNL     1       7.424   5.434  15.581  0.00  0.00    +0.000 F 
ATOM     21  C   UNL     1       6.333   4.624  17.505  0.00  0.00    +0.000 A 
ATOM     22  C   UNL     1       5.256   4.685  18.394  0.00  0.00    +0.000 A 
ENDBRANCH  15  16
BRANCH  15  23
ATOM     23  C   UNL     1       1.822   4.867  18.788  0.00  0.00    +0.000 C 
ATOM     24  C   UNL     1       1.882   3.887  17.584  0.00  0.00    +0.000 C 
ATOM     25  C   UNL     1       1.776   2.699  18.554  0.00  0.00    +0.000 C 
ATOM     26  C   UNL     1       1.341   3.676  19.662  0.00  0.00    +0.000 C 
BRANCH  25  27
ATOM     27  O   UNL     1       2.973   1.936  18.774  0.00  0.00    +0.000 OA
ATOM     28  H   UNL     1       3.034   1.785  19.733  0.00  0.00    +0.000 HD
ENDBRANCH  25  27
ENDBRANCH  15  23
ENDBRANCH   3  15
TORSDOF 6
ENDMDL
MODEL 9
REMARK VINA RESULT:      -7.3      4.030      6.665
REMARK  Name = 
REMARK  6 active torsions:
REMARK  status: ('A' for Active; 'I' for Inactive)
REMARK    1  A    between atoms: C_2  and  C_3
REMARK    2  A    between atoms: C_3  and  N_4
REMARK    3  A    between atoms: N_13  and  C_14
REMARK    4  A    between atoms: C_14  and  C_15
REMARK    5  A    between atoms: C_14  and  C_22
REMARK    6  A    between atoms: C_24  and  O_25
REMARK                            x       y       z     vdW  Elec       q    Type
REMARK                         _______ _______ _______ _____ _____    ______ ____
ROOT
ATOM      1  O   UNL     1       2.403  10.359  17.718  0.00  0.00    +0.000 OA
ATOM      2  C   UNL     1       1.837   9.274  17.808  0.00  0.00    +0.000 C 
ATOM      3  N   UNL     1       0.472   9.137  17.912  0.00  0.00    +0.000 N 
ATOM      4  H   UNL     1       0.079   8.208  17.960  0.00  0.00    +0.000 HD
ENDROOT
BRANCH   2   5
ATOM      5  C   UNL     1       2.600   7.966  17.840  0.00  0.00    +0.000 C 
BRANCH   5   6
ATOM      6  N   UNL     1       2.262   7.097  18.953  0.00  0.00    +0.000 N 
ATOM      7  C   UNL     1       2.084   7.444  20.263  0.00  0.00    +0.000 A 
ATOM      8  N   UNL     1       1.701   6.418  20.991  0.00  0.00    +0.000 NA
ATOM      9  C   UNL     1       1.669   5.352  20.128  0.00  0.00    +0.000 A 
ATOM     10  C   UNL     1       1.340   4.012  20.376  0.00  0.00    +0.000 A 
ATOM     11  C   UNL     1       1.389   3.099  19.315  0.00  0.00    +0.000 A 
ATOM     12  C   UNL     1       1.760   3.511  18.035  0.00  0.00    +0.000 A 
ATOM     13  C   UNL     1       2.088   4.846  17.768  0.00  0.00    +0.000 A 
ATOM     14  C   UNL     1       2.027   5.744  18.841  0.00  0.00    +0.000 A 
ENDBRANCH   5   6
ENDBRANCH   2   5
BRANCH   3  15
ATOM     15  C   UNL     1      -0.448  10.268  17.951  0.00  0.00    +0.000 C 
BRANCH  15  16
ATOM     16  C   UNL     1      -0.657  10.784  19.365  0.00  0.00    +0.000 A 
ATOM     17  C   UNL     1      -0.456   9.914  20.457  0.00  0.00    +0.000 A 
ATOM     18  C   UNL     1      -0.622  10.351  21.773  0.00  0.00    +0.000 A 
ATOM     19  C   UNL     1      -1.001  11.667  22.016  0.00  0.00    +0.000 A 
ATOM     20  F   UNL     1      -1.151  12.094  23.275  0.00  0.00    +0.000 F 
ATOM     21  C   UNL     1      -1.231  12.540  20.964  0.00  0.00    +0.000 A 
ATOM     22  C   UNL     1      -1.066  12.102  19.646  0.00  0.00    +0.000 A 
ENDBRANCH  15  16
BRANCH  15  23
ATOM     23  C   UNL     1      -1.727   9.760  17.254  0.00  0.00    +0.000 C 
ATOM     24  C   UNL     1      -3.096   9.771  17.989  0.00  0.00    +0.000 C 
ATOM     25  C   UNL     1      -3.608  10.838  17.008  0.00  0.00    +0.000 C 
ATOM     26  C   UNL     1      -2.409  10.532  16.091  0.00  0.00    +0.000 C 
BRANCH  25  27
ATOM     27  O   UNL     1      -3.730  12.176  17.516  0.00  0.00    +0.000 OA
ATOM     28  H   UNL     1      -4.673  12.408  17.465  0.00  0.00    +0.000 HD
ENDBRANCH  25  27
ENDBRANCH  15  23
ENDBRANCH   3  15
TORSDOF 6
ENDMDL
