MODEL 1
REMARK VINA RESULT:      -7.9      0.000      0.000
REMARK  Name = 
REMARK  4 active torsions:
REMARK  status: ('A' for Active; 'I' for Inactive)
REMARK    1  A    between atoms: C_2  and  C_3
REMARK    2  A    between atoms: C_2  and  C_16
REMARK    3  A    between atoms: C_4  and  C_5
REMARK    4  A    between atoms: C_8  and  N_9
REMARK                            x       y       z     vdW  Elec       q    Type
REMARK                         _______ _______ _______ _____ _____    ______ ____
ROOT
ATOM      1  C   UNL     1       3.274   5.494  19.534  0.00  0.00    +0.000 C 
ATOM      2  C   UNL     1       3.174   6.473  18.623  0.00  0.00    +0.000 C 
ENDROOT
BRANCH   2   3
ATOM      3  C   UNL     1       2.333   7.638  18.879  0.00  0.00    +0.000 A 
ATOM      4  C   UNL     1       1.819   7.860  20.157  0.00  0.00    +0.000 A 
ATOM      5  C   UNL     1       0.995   8.963  20.408  0.00  0.00    +0.000 A 
ATOM      6  C   UNL     1       0.670   9.857  19.377  0.00  0.00    +0.000 A 
ATOM      7  C   UNL     1       1.178   9.623  18.090  0.00  0.00    +0.000 A 
ATOM      8  C   UNL     1       2.003   8.520  17.845  0.00  0.00    +0.000 A 
BRANCH   6   9
ATOM      9  N   UNL     1      -0.161  10.988  19.637  0.00  0.00    +0.000 N 
ATOM     10  C   UNL     1      -0.807  11.299  20.816  0.00  0.00    +0.000 A 
ATOM     11  C   UNL     1      -1.473  12.479  20.591  0.00  0.00    +0.000 A 
ATOM     12  N   UNL     1      -1.272  12.912  19.312  0.00  0.00    +0.000 NA
ATOM     13  C   UNL     1      -0.486  12.008  18.768  0.00  0.00    +0.000 A 
ENDBRANCH   6   9
ENDBRANCH   2   3
BRANCH   1  15
ATOM     14  O   UNL     1       3.990   3.259  19.887  0.00  0.00    +0.000 OA
ATOM     15  C   UNL     1       4.111   4.298  19.251  0.00  0.00    +0.000 C 
BRANCH  15  16
ATOM     16  C   UNL     1       5.104   4.408  18.163  0.00  0.00    +0.000 A 
ATOM     17  C   UNL     1       4.780   3.977  16.876  0.00  0.00    +0.000 A 
ATOM     18  F   UNL     1       3.553   3.524  16.583  0.00  0.00    +0.000 F 
ATOM     19  C   UNL     1       5.719   4.036  15.844  0.00  0.00    +0.000 A 
ATOM     20  C   UNL     1       7.000   4.529  16.092  0.00  0.00    +0.000 A 
ATOM     21  C   UNL     1       7.336   4.959  17.372  0.00  0.00    +0.000 A 
ATOM     22  C   UNL     1       6.393   4.889  18.398  0.00  0.00    +0.000 A 
ATOM     23  F   UNL     1       6.772   5.285  19.622  0.00  0.00    +0.000 F 
ENDBRANCH  15  16
ENDBRANCH   1  15
TORSDOF 4
ENDMDL
MODEL 2
REMARK VINA RESULT:      -7.8      0.860      1.932
REMARK  Name = 
REMARK  4 active torsions:
REMARK  status: ('A' for Active; 'I' for Inactive)
REMARK    1  A    between atoms: C_2  and  C_3
REMARK    2  A    between atoms: C_2  and  C_16
REMARK    3  A    between atoms: C_4  and  C_5
REMARK    4  A    between atoms: C_8  and  N_9
REMARK                            x       y       z     vdW  Elec       q    Type
REMARK                         _______ _______ _______ _____ _____    ______ ____
ROOT
ATOM      1  C   UNL     1       4.184   5.524  19.232  0.00  0.00    +0.000 C 
ATOM      2  C   UNL     1       3.436   6.189  18.339  0.00  0.00    +0.000 C 
ENDROOT
BRANCH   2   3
ATOM      3  C   UNL     1       2.617   7.321  18.757  0.00  0.00    +0.000 A 
ATOM      4  C   UNL     1       2.117   7.377  20.059  0.00  0.00    +0.000 A 
ATOM      5  C   UNL     1       1.314   8.449  20.463  0.00  0.00    +0.000 A 
ATOM      6  C   UNL     1       0.997   9.480  19.566  0.00  0.00    +0.000 A 
ATOM      7  C   UNL     1       1.492   9.414  18.255  0.00  0.00    +0.000 A 
ATOM      8  C   UNL     1       2.296   8.340  17.855  0.00  0.00    +0.000 A 
BRANCH   6   9
ATOM      9  N   UNL     1       0.189  10.578  19.984  0.00  0.00    +0.000 N 
ATOM     10  C   UNL     1       0.428  11.444  21.031  0.00  0.00    +0.000 A 
ATOM     11  C   UNL     1      -0.615  12.338  21.039  0.00  0.00    +0.000 A 
ATOM     12  N   UNL     1      -1.500  12.058  20.039  0.00  0.00    +0.000 NA
ATOM     13  C   UNL     1      -0.997  11.009  19.426  0.00  0.00    +0.000 A 
ENDBRANCH   6   9
ENDBRANCH   2   3
BRANCH   1  15
ATOM     14  O   UNL     1       5.165   3.383  19.529  0.00  0.00    +0.000 OA
ATOM     15  C   UNL     1       4.992   4.352  18.801  0.00  0.00    +0.000 C 
BRANCH  15  16
ATOM     16  C   UNL     1       5.584   4.398  17.448  0.00  0.00    +0.000 A 
ATOM     17  C   UNL     1       6.881   4.878  17.270  0.00  0.00    +0.000 A 
ATOM     18  F   UNL     1       7.638   5.239  18.315  0.00  0.00    +0.000 F 
ATOM     19  C   UNL     1       7.443   4.967  15.995  0.00  0.00    +0.000 A 
ATOM     20  C   UNL     1       6.706   4.575  14.877  0.00  0.00    +0.000 A 
ATOM     21  C   UNL     1       5.409   4.097  15.042  0.00  0.00    +0.000 A 
ATOM     22  C   UNL     1       4.855   4.019  16.320  0.00  0.00    +0.000 A 
ATOM     23  F   UNL     1       3.591   3.582  16.426  0.00  0.00    +0.000 F 
ENDBRANCH  15  16
ENDBRANCH   1  15
TORSDOF 4
ENDMDL
MODEL 3
REMARK VINA RESULT:      -7.8      0.901      1.131
REMARK  Name = 
REMARK  4 active torsions:
REMARK  status: ('A' for Active; 'I' for Inactive)
REMARK    1  A    between atoms: C_2  and  C_3
REMARK    2  A    between atoms: C_2  and  C_16
REMARK    3  A    between atoms: C_4  and  C_5
REMARK    4  A    between atoms: C_8  and  N_9
REMARK                            x       y       z     vdW  Elec       q    Type
REMARK                         _______ _______ _______ _____ _____    ______ ____
ROOT
ATOM      1  C   UNL     1       4.114   5.524  19.256  0.00  0.00    +0.000 C 
ATOM      2  C   UNL     1       3.459   6.265  18.352  0.00  0.00    +0.000 C 
ENDROOT
BRANCH   2   3
ATOM      3  C   UNL     1       2.597   7.362  18.780  0.00  0.00    +0.000 A 
ATOM      4  C   UNL     1       2.094   7.388  20.082  0.00  0.00    +0.000 A 
ATOM      5  C   UNL     1       1.251   8.425  20.495  0.00  0.00    +0.000 A 
ATOM      6  C   UNL     1       0.896   9.451  19.607  0.00  0.00    +0.000 A 
ATOM      7  C   UNL     1       1.392   9.415  18.295  0.00  0.00    +0.000 A 
ATOM      8  C   UNL     1       2.237   8.376  17.886  0.00  0.00    +0.000 A 
BRANCH   6   9
ATOM      9  N   UNL     1       0.045  10.513  20.034  0.00  0.00    +0.000 N 
ATOM     10  C   UNL     1      -0.898  11.184  19.284  0.00  0.00    +0.000 A 
ATOM     11  C   UNL     1      -1.470  12.111  20.122  0.00  0.00    +0.000 A 
ATOM     12  N   UNL     1      -0.913  12.047  21.366  0.00  0.00    +0.000 NA
ATOM     13  C   UNL     1      -0.017  11.087  21.287  0.00  0.00    +0.000 A 
ENDBRANCH   6   9
ENDBRANCH   2   3
BRANCH   1  15
ATOM     14  O   UNL     1       5.170   3.415  19.524  0.00  0.00    +0.000 OA
ATOM     15  C   UNL     1       4.967   4.389  18.811  0.00  0.00    +0.000 C 
BRANCH  15  16
ATOM     16  C   UNL     1       5.565   4.480  17.464  0.00  0.00    +0.000 A 
ATOM     17  C   UNL     1       4.850   4.037  16.351  0.00  0.00    +0.000 A 
ATOM     18  F   UNL     1       3.593   3.589  16.466  0.00  0.00    +0.000 F 
ATOM     19  C   UNL     1       5.416   4.078  15.075  0.00  0.00    +0.000 A 
ATOM     20  C   UNL     1       6.711   4.564  14.899  0.00  0.00    +0.000 A 
ATOM     21  C   UNL     1       7.435   5.007  16.002  0.00  0.00    +0.000 A 
ATOM     22  C   UNL     1       6.864   4.955  17.274  0.00  0.00    +0.000 A 
ATOM     23  F   UNL     1       7.612   5.362  18.311  0.00  0.00    +0.000 F 
ENDBRANCH  15  16
ENDBRANCH   1  15
TORSDOF 4
ENDMDL
MODEL 4
REMARK VINA RESULT:      -7.8      0.460      1.256
REMARK  Name = 
REMARK  4 active torsions:
REMARK  status: ('A' for Active; 'I' for Inactive)
REMARK    1  A    between atoms: C_2  and  C_3
REMARK    2  A    between atoms: C_2  and  C_16
REMARK    3  A    between atoms: C_4  and  C_5
REMARK    4  A    between atoms: C_8  and  N_9
REMARK                            x       y       z     vdW  Elec       q    Type
REMARK                         _______ _______ _______ _____ _____    ______ ____
ROOT
ATOM      1  C   UNL     1       3.372   5.548  19.559  0.00  0.00    +0.000 C 
ATOM      2  C   UNL     1       3.105   6.429  18.584  0.00  0.00    +0.000 C 
ENDROOT
BRANCH   2   3
ATOM      3  C   UNL     1       2.313   7.622  18.861  0.00  0.00    +0.000 A 
ATOM      4  C   UNL     1       2.084   8.558  17.851  0.00  0.00    +0.000 A 
ATOM      5  C   UNL     1       1.342   9.715  18.112  0.00  0.00    +0.000 A 
ATOM      6  C   UNL     1       0.823   9.953  19.394  0.00  0.00    +0.000 A 
ATOM      7  C   UNL     1       1.066   9.017  20.409  0.00  0.00    +0.000 A 
ATOM      8  C   UNL     1       1.807   7.860  20.143  0.00  0.00    +0.000 A 
BRANCH   6   9
ATOM      9  N   UNL     1       0.057  11.128  19.655  0.00  0.00    +0.000 N 
ATOM     10  C   UNL     1      -0.739  11.824  18.768  0.00  0.00    +0.000 A 
ATOM     11  C   UNL     1      -1.280  12.871  19.474  0.00  0.00    +0.000 A 
ATOM     12  N   UNL     1      -0.846  12.857  20.768  0.00  0.00    +0.000 NA
ATOM     13  C   UNL     1      -0.055  11.810  20.849  0.00  0.00    +0.000 A 
ENDBRANCH   6   9
ENDBRANCH   2   3
BRANCH   1  15
ATOM     14  O   UNL     1       3.996   3.282  19.888  0.00  0.00    +0.000 OA
ATOM     15  C   UNL     1       4.155   4.319  19.259  0.00  0.00    +0.000 C 
BRANCH  15  16
ATOM     16  C   UNL     1       5.141   4.396  18.162  0.00  0.00    +0.000 A 
ATOM     17  C   UNL     1       4.802   3.946  16.885  0.00  0.00    +0.000 A 
ATOM     18  F   UNL     1       3.568   3.504  16.610  0.00  0.00    +0.000 F 
ATOM     19  C   UNL     1       5.734   3.975  15.846  0.00  0.00    +0.000 A 
ATOM     20  C   UNL     1       7.023   4.455  16.075  0.00  0.00    +0.000 A 
ATOM     21  C   UNL     1       7.374   4.904  17.345  0.00  0.00    +0.000 A 
ATOM     22  C   UNL     1       6.438   4.866  18.378  0.00  0.00    +0.000 A 
ATOM     23  F   UNL     1       6.831   5.279  19.592  0.00  0.00    +0.000 F 
ENDBRANCH  15  16
ENDBRANCH   1  15
TORSDOF 4
ENDMDL
MODEL 5
REMARK VINA RESULT:      -7.8      0.454      1.898
REMARK  Name = 
REMARK  4 active torsions:
REMARK  status: ('A' for Active; 'I' for Inactive)
REMARK    1  A    between atoms: C_2  and  C_3
REMARK    2  A    between atoms: C_2  and  C_16
REMARK    3  A    between atoms: C_4  and  C_5
REMARK    4  A    between atoms: C_8  and  N_9
REMARK                            x       y       z     vdW  Elec       q    Type
REMARK                         _______ _______ _______ _____ _____    ______ ____
ROOT
ATOM      1  C   UNL     1       3.432   5.597  19.565  0.00  0.00    +0.000 C 
ATOM      2  C   UNL     1       3.035   6.397  18.565  0.00  0.00    +0.000 C 
ENDROOT
BRANCH   2   3
ATOM      3  C   UNL     1       2.296   7.623  18.847  0.00  0.00    +0.000 A 
ATOM      4  C   UNL     1       1.785   7.851  20.125  0.00  0.00    +0.000 A 
ATOM      5  C   UNL     1       1.059   9.015  20.401  0.00  0.00    +0.000 A 
ATOM      6  C   UNL     1       0.830   9.966  19.396  0.00  0.00    +0.000 A 
ATOM      7  C   UNL     1       1.335   9.728  18.109  0.00  0.00    +0.000 A 
ATOM      8  C   UNL     1       2.062   8.563  17.838  0.00  0.00    +0.000 A 
BRANCH   6   9
ATOM      9  N   UNL     1       0.100  11.157  19.682  0.00  0.00    +0.000 N 
ATOM     10  C   UNL     1      -0.135  12.220  18.834  0.00  0.00    +0.000 A 
ATOM     11  C   UNL     1      -0.888  13.123  19.544  0.00  0.00    +0.000 A 
ATOM     12  N   UNL     1      -1.128  12.664  20.808  0.00  0.00    +0.000 NA
ATOM     13  C   UNL     1      -0.531  11.493  20.861  0.00  0.00    +0.000 A 
ENDBRANCH   6   9
ENDBRANCH   2   3
BRANCH   1  15
ATOM     14  O   UNL     1       3.951   3.305  19.894  0.00  0.00    +0.000 OA
ATOM     15  C   UNL     1       4.158   4.334  19.265  0.00  0.00    +0.000 C 
BRANCH  15  16
ATOM     16  C   UNL     1       5.146   4.366  18.168  0.00  0.00    +0.000 A 
ATOM     17  C   UNL     1       6.423   4.880  18.394  0.00  0.00    +0.000 A 
ATOM     18  F   UNL     1       6.803   5.288  19.612  0.00  0.00    +0.000 F 
ATOM     19  C   UNL     1       7.358   4.954  17.359  0.00  0.00    +0.000 A 
ATOM     20  C   UNL     1       7.021   4.514  16.079  0.00  0.00    +0.000 A 
ATOM     21  C   UNL     1       5.748   4.002  15.841  0.00  0.00    +0.000 A 
ATOM     22  C   UNL     1       4.820   3.938  16.880  0.00  0.00    +0.000 A 
ATOM     23  F   UNL     1       3.597   3.467  16.595  0.00  0.00    +0.000 F 
ENDBRANCH  15  16
ENDBRANCH   1  15
TORSDOF 4
ENDMDL
MODEL 6
REMARK VINA RESULT:      -7.8      0.525      2.103
REMARK  Name = 
REMARK  4 active torsions:
REMARK  status: ('A' for Active; 'I' for Inactive)
REMARK    1  A    between atoms: C_2  and  C_3
REMARK    2  A    between atoms: C_2  and  C_16
REMARK    3  A    between atoms: C_4  and  C_5
REMARK    4  A    between atoms: C_8  and  N_9
REMARK                            x       y       z     vdW  Elec       q    Type
REMARK                         _______ _______ _______ _____ _____    ______ ____
ROOT
ATOM      1  C   UNL     1       3.360   5.515  19.576  0.00  0.00    +0.000 C 
ATOM      2  C   UNL     1       3.099   6.393  18.598  0.00  0.00    +0.000 C 
ENDROOT
BRANCH   2   3
ATOM      3  C   UNL     1       2.313   7.592  18.870  0.00  0.00    +0.000 A 
ATOM      4  C   UNL     1       2.087   8.523  17.855  0.00  0.00    +0.000 A 
ATOM      5  C   UNL     1       1.351   9.685  18.111  0.00  0.00    +0.000 A 
ATOM      6  C   UNL     1       0.834   9.933  19.391  0.00  0.00    +0.000 A 
ATOM      7  C   UNL     1       1.074   9.001  20.412  0.00  0.00    +0.000 A 
ATOM      8  C   UNL     1       1.810   7.839  20.150  0.00  0.00    +0.000 A 
BRANCH   6   9
ATOM      9  N   UNL     1       0.075  11.113  19.647  0.00  0.00    +0.000 N 
ATOM     10  C   UNL     1      -1.152  11.452  19.113  0.00  0.00    +0.000 A 
ATOM     11  C   UNL     1      -1.488  12.666  19.659  0.00  0.00    +0.000 A 
ATOM     12  N   UNL     1      -0.514  13.101  20.510  0.00  0.00    +0.000 NA
ATOM     13  C   UNL     1       0.402  12.157  20.486  0.00  0.00    +0.000 A 
ENDBRANCH   6   9
ENDBRANCH   2   3
BRANCH   1  15
ATOM     14  O   UNL     1       3.969   3.245  19.913  0.00  0.00    +0.000 OA
ATOM     15  C   UNL     1       4.136   4.281  19.282  0.00  0.00    +0.000 C 
BRANCH  15  16
ATOM     16  C   UNL     1       5.126   4.349  18.187  0.00  0.00    +0.000 A 
ATOM     17  C   UNL     1       6.392   4.886  18.423  0.00  0.00    +0.000 A 
ATOM     18  F   UNL     1       6.761   5.283  19.649  0.00  0.00    +0.000 F 
ATOM     19  C   UNL     1       7.327   4.995  17.392  0.00  0.00    +0.000 A 
ATOM     20  C   UNL     1       7.001   4.567  16.105  0.00  0.00    +0.000 A 
ATOM     21  C   UNL     1       5.740   4.032  15.856  0.00  0.00    +0.000 A 
ATOM     22  C   UNL     1       4.811   3.934  16.892  0.00  0.00    +0.000 A 
ATOM     23  F   UNL     1       3.598   3.442  16.598  0.00  0.00    +0.000 F 
ENDBRANCH  15  16
ENDBRANCH   1  15
TORSDOF 4
ENDMDL
MODEL 7
REMARK VINA RESULT:      -7.6      0.947      2.260
REMARK  Name = 
REMARK  4 active torsions:
REMARK  status: ('A' for Active; 'I' for Inactive)
REMARK    1  A    between atoms: C_2  and  C_3
REMARK    2  A    between atoms: C_2  and  C_16
REMARK    3  A    between atoms: C_4  and  C_5
REMARK    4  A    between atoms: C_8  and  N_9
REMARK                            x       y       z     vdW  Elec       q    Type
REMARK                         _______ _______ _______ _____ _____    ______ ____
ROOT
ATOM      1  C   UNL     1       4.310   5.728  19.091  0.00  0.00    +0.000 C 
ATOM      2  C   UNL     1       3.279   6.155  18.347  0.00  0.00    +0.000 C 
ENDROOT
BRANCH   2   3
ATOM      3  C   UNL     1       2.526   7.342  18.738  0.00  0.00    +0.000 A 
ATOM      4  C   UNL     1       2.342   8.383  17.826  0.00  0.00    +0.000 A 
ATOM      5  C   UNL     1       1.638   9.533  18.198  0.00  0.00    +0.000 A 
ATOM      6  C   UNL     1       1.111   9.659  19.492  0.00  0.00    +0.000 A 
ATOM      7  C   UNL     1       1.309   8.616  20.409  0.00  0.00    +0.000 A 
ATOM      8  C   UNL     1       2.013   7.466  20.032  0.00  0.00    +0.000 A 
BRANCH   6   9
ATOM      9  N   UNL     1       0.383  10.827  19.865  0.00  0.00    +0.000 N 
ATOM     10  C   UNL     1       0.841  12.129  19.882  0.00  0.00    +0.000 A 
ATOM     11  C   UNL     1      -0.215  12.904  20.298  0.00  0.00    +0.000 A 
ATOM     12  N   UNL     1      -1.313  12.132  20.547  0.00  0.00    +0.000 NA
ATOM     13  C   UNL     1      -0.930  10.902  20.279  0.00  0.00    +0.000 A 
ENDBRANCH   6   9
ENDBRANCH   2   3
BRANCH   1  15
ATOM     14  O   UNL     1       5.179   3.551  19.463  0.00  0.00    +0.000 OA
ATOM     15  C   UNL     1       5.052   4.500  18.700  0.00  0.00    +0.000 C 
BRANCH  15  16
ATOM     16  C   UNL     1       5.636   4.465  17.344  0.00  0.00    +0.000 A 
ATOM     17  C   UNL     1       6.936   4.926  17.132  0.00  0.00    +0.000 A 
ATOM     18  F   UNL     1       7.701   5.341  18.150  0.00  0.00    +0.000 F 
ATOM     19  C   UNL     1       7.490   4.938  15.850  0.00  0.00    +0.000 A 
ATOM     20  C   UNL     1       6.744   4.488  14.761  0.00  0.00    +0.000 A 
ATOM     21  C   UNL     1       5.445   4.028  14.960  0.00  0.00    +0.000 A 
ATOM     22  C   UNL     1       4.899   4.027  16.243  0.00  0.00    +0.000 A 
ATOM     23  F   UNL     1       3.632   3.605  16.382  0.00  0.00    +0.000 F 
ENDBRANCH  15  16
ENDBRANCH   1  15
TORSDOF 4
ENDMDL
MODEL 8
REMARK VINA RESULT:      -7.6      1.519      2.341
REMARK  Name = 
REMARK  4 active torsions:
REMARK  status: ('A' for Active; 'I' for Inactive)
REMARK    1  A    between atoms: C_2  and  C_3
REMARK    2  A    between atoms: C_2  and  C_16
REMARK    3  A    between atoms: C_4  and  C_5
REMARK    4  A    between atoms: C_8  and  N_9
REMARK                            x       y       z     vdW  Elec       q    Type
REMARK                         _______ _______ _______ _____ _____    ______ ____
ROOT
ATOM      1  C   UNL     1       2.766   5.267  18.352  0.00  0.00    +0.000 C 
ATOM      2  C   UNL     1       2.855   6.568  18.040  0.00  0.00    +0.000 C 
ENDROOT
BRANCH   2   3
ATOM      3  C   UNL     1       2.210   7.575  18.876  0.00  0.00    +0.000 A 
ATOM      4  C   UNL     1       1.965   7.310  20.225  0.00  0.00    +0.000 A 
ATOM      5  C   UNL     1       1.330   8.261  21.030  0.00  0.00    +0.000 A 
ATOM      6  C   UNL     1       0.925   9.492  20.493  0.00  0.00    +0.000 A 
ATOM      7  C   UNL     1       1.162   9.750  19.134  0.00  0.00    +0.000 A 
ATOM      8  C   UNL     1       1.800   8.796  18.333  0.00  0.00    +0.000 A 
BRANCH   6   9
ATOM      9  N   UNL     1       0.288  10.465  21.318  0.00  0.00    +0.000 N 
ATOM     10  C   UNL     1       0.053  11.792  21.021  0.00  0.00    +0.000 A 
ATOM     11  C   UNL     1      -0.592  12.324  22.110  0.00  0.00    +0.000 A 
ATOM     12  N   UNL     1      -0.764  11.379  23.080  0.00  0.00    +0.000 NA
ATOM     13  C   UNL     1      -0.234  10.283  22.582  0.00  0.00    +0.000 A 
ENDBRANCH   6   9
ENDBRANCH   2   3
BRANCH   1  15
ATOM     14  O   UNL     1       2.755   3.344  16.961  0.00  0.00    +0.000 OA
ATOM     15  C   UNL     1       3.402   4.247  17.476  0.00  0.00    +0.000 C 
BRANCH  15  16
ATOM     16  C   UNL     1       4.856   4.363  17.247  0.00  0.00    +0.000 A 
ATOM     17  C   UNL     1       5.725   4.494  18.330  0.00  0.00    +0.000 A 
ATOM     18  F   UNL     1       5.276   4.447  19.592  0.00  0.00    +0.000 F 
ATOM     19  C   UNL     1       7.099   4.645  18.131  0.00  0.00    +0.000 A 
ATOM     20  C   UNL     1       7.620   4.669  16.837  0.00  0.00    +0.000 A 
ATOM     21  C   UNL     1       6.762   4.543  15.748  0.00  0.00    +0.000 A 
ATOM     22  C   UNL     1       5.391   4.399  15.958  0.00  0.00    +0.000 A 
ATOM     23  F   UNL     1       4.600   4.313  14.878  0.00  0.00    +0.000 F 
ENDBRANCH  15  16
ENDBRANCH   1  15
TORSDOF 4
ENDMDL
MODEL 9
REMARK VINA RESULT:      -7.5      2.222      3.396
REMARK  Name = 
REMARK  4 active torsions:
REMARK  status: ('A' for Active; 'I' for Inactive)
REMARK    1  A    between atoms: C_2  and  C_3
REMARK    2  A    between atoms: C_2  and  C_16
REMARK    3  A    between atoms: C_4  and  C_5
REMARK    4  A    between atoms: C_8  and  N_9
REMARK                            x       y       z     vdW  Elec       q    Type
REMARK                         _______ _______ _______ _____ _____    ______ ____
ROOT
ATOM      1  C   UNL     1       2.536   7.128  18.330  0.00  0.00    +0.000 C 
ATOM      2  C   UNL     1       2.333   7.241  19.651  0.00  0.00    +0.000 C 
ENDROOT
BRANCH   2   3
ATOM      3  C   UNL     1       1.480   8.300  20.180  0.00  0.00    +0.000 A 
ATOM      4  C   UNL     1       1.009   8.227  21.491  0.00  0.00    +0.000 A 
ATOM      5  C   UNL     1       0.174   9.227  22.002  0.00  0.00    +0.000 A 
ATOM      6  C   UNL     1      -0.204  10.316  21.201  0.00  0.00    +0.000 A 
ATOM      7  C   UNL     1       0.262  10.380  19.879  0.00  0.00    +0.000 A 
ATOM      8  C   UNL     1       1.098   9.377  19.374  0.00  0.00    +0.000 A 
BRANCH   6   9
ATOM      9  N   UNL     1      -1.045  11.341  21.727  0.00  0.00    +0.000 N 
ATOM     10  C   UNL     1      -1.668  12.354  21.028  0.00  0.00    +0.000 A 
ATOM     11  C   UNL     1      -2.374  13.084  21.953  0.00  0.00    +0.000 A 
ATOM     12  N   UNL     1      -2.210  12.566  23.205  0.00  0.00    +0.000 NA
ATOM     13  C   UNL     1      -1.417  11.530  23.042  0.00  0.00    +0.000 A 
ENDBRANCH   6   9
ENDBRANCH   2   3
BRANCH   1  15
ATOM     14  O   UNL     1       4.347   6.312  17.030  0.00  0.00    +0.000 OA
ATOM     15  C   UNL     1       3.431   6.063  17.804  0.00  0.00    +0.000 C 
BRANCH  15  16
ATOM     16  C   UNL     1       3.174   4.679  18.253  0.00  0.00    +0.000 A 
ATOM     17  C   UNL     1       4.139   3.995  18.992  0.00  0.00    +0.000 A 
ATOM     18  F   UNL     1       5.278   4.591  19.369  0.00  0.00    +0.000 F 
ATOM     19  C   UNL     1       3.930   2.673  19.391  0.00  0.00    +0.000 A 
ATOM     20  C   UNL     1       2.747   2.018  19.050  0.00  0.00    +0.000 A 
ATOM     21  C   UNL     1       1.778   2.690  18.310  0.00  0.00    +0.000 A 
ATOM     22  C   UNL     1       1.999   4.008  17.911  0.00  0.00    +0.000 A 
ATOM     23  F   UNL     1       1.051   4.604  17.171  0.00  0.00    +0.000 F 
ENDBRANCH  15  16
ENDBRANCH   1  15
TORSDOF 4
ENDMDL
