MODEL 1
REMARK VINA RESULT:      -6.7      0.000      0.000
REMARK  Name = 
REMARK  7 active torsions:
REMARK  status: ('A' for Active; 'I' for Inactive)
REMARK    1  A    between atoms: C_5  and  C_6
REMARK    2  A    between atoms: N_8  and  C_9
REMARK    3  A    between atoms: C_9  and  O_10
REMARK    4  A    between atoms: O_10  and  C_11
REMARK    5  A    between atoms: C_11  and  C_12
REMARK    6  A    between atoms: C_12  and  O_13
REMARK    7  A    between atoms: C_16  and  O_17
REMARK                            x       y       z     vdW  Elec       q    Type
REMARK                         _______ _______ _______ _____ _____    ______ ____
ROOT
ATOM      1  N   UNL     1       0.849   3.027  21.100  0.00  0.00    +0.000 N 
ATOM      2  C   UNL     1       1.965   3.332  20.353  0.00  0.00    +0.000 A 
ATOM      3  N   UNL     1       1.876   4.387  19.539  0.00  0.00    +0.000 NA
ATOM      4  C   UNL     1       2.958   4.646  18.777  0.00  0.00    +0.000 A 
ATOM      5  C   UNL     1       4.126   3.915  18.800  0.00  0.00    +0.000 A 
ATOM      6  C   UNL     1       4.109   2.882  19.720  0.00  0.00    +0.000 A 
ATOM      7  N   UNL     1       3.054   2.578  20.504  0.00  0.00    +0.000 NA
ATOM      8  H   UNL     1       0.266   3.842  21.211  0.00  0.00    +0.000 HD
ATOM      9  H   UNL     1       1.113   2.512  21.930  0.00  0.00    +0.000 HD
ENDROOT
BRANCH   5  10
ATOM     10  C   UNL     1       5.244   4.201  17.927  0.00  0.00    +0.000 A 
ATOM     11  C   UNL     1       5.231   4.205  16.548  0.00  0.00    +0.000 A 
ATOM     12  N   UNL     1       6.519   4.482  16.175  0.00  0.00    +0.000 N 
ATOM     13  C   UNL     1       7.252   4.644  17.316  0.00  0.00    +0.000 A 
ATOM     14  N   UNL     1       6.508   4.491  18.393  0.00  0.00    +0.000 NA
BRANCH  12  15
ATOM     15  C   UNL     1       7.000   4.633  14.816  0.00  0.00    +0.000 C 
BRANCH  15  16
ATOM     16  O   UNL     1       6.475   3.570  14.024  0.00  0.00    +0.000 OA
BRANCH  16  17
ATOM     17  C   UNL     1       6.458   3.931  12.637  0.00  0.00    +0.000 C 
BRANCH  17  18
ATOM     18  C   UNL     1       5.449   3.049  11.910  0.00  0.00    +0.000 C 
BRANCH  18  19
ATOM     19  O   UNL     1       6.002   1.757  11.680  0.00  0.00    +0.000 OA
ATOM     20  H   UNL     1       5.522   1.151  12.276  0.00  0.00    +0.000 HD
ENDBRANCH  18  19
ENDBRANCH  17  18
ENDBRANCH  16  17
ENDBRANCH  15  16
ENDBRANCH  12  15
ENDBRANCH   5  10
BRANCH   6  21
ATOM     21  O   UNL     1       5.192   2.063  19.912  0.00  0.00    +0.000 OA
ATOM     22  H   UNL     1       5.293   1.952  20.881  0.00  0.00    +0.000 HD
ENDBRANCH   6  21
TORSDOF 7
ENDMDL
MODEL 2
REMARK VINA RESULT:      -6.4      1.761      1.887
REMARK  Name = 
REMARK  7 active torsions:
REMARK  status: ('A' for Active; 'I' for Inactive)
REMARK    1  A    between atoms: C_5  and  C_6
REMARK    2  A    between atoms: N_8  and  C_9
REMARK    3  A    between atoms: C_9  and  O_10
REMARK    4  A    between atoms: O_10  and  C_11
REMARK    5  A    between atoms: C_11  and  C_12
REMARK    6  A    between atoms: C_12  and  O_13
REMARK    7  A    between atoms: C_16  and  O_17
REMARK                            x       y       z     vdW  Elec       q    Type
REMARK                         _______ _______ _______ _____ _____    ______ ____
ROOT
ATOM      1  N   UNL     1       1.067   2.544  22.201  0.00  0.00    +0.000 N 
ATOM      2  C   UNL     1       2.058   3.007  21.364  0.00  0.00    +0.000 A 
ATOM      3  N   UNL     1       1.933   4.258  20.915  0.00  0.00    +0.000 NA
ATOM      4  C   UNL     1       2.885   4.683  20.058  0.00  0.00    +0.000 A 
ATOM      5  C   UNL     1       3.958   3.926  19.643  0.00  0.00    +0.000 A 
ATOM      6  C   UNL     1       4.001   2.669  20.218  0.00  0.00    +0.000 A 
ATOM      7  N   UNL     1       3.075   2.194  21.078  0.00  0.00    +0.000 NA
ATOM      8  H   UNL     1       0.597   3.316  22.650  0.00  0.00    +0.000 HD
ATOM      9  H   UNL     1       1.420   1.796  22.782  0.00  0.00    +0.000 HD
ENDROOT
BRANCH   5  10
ATOM     10  C   UNL     1       4.928   4.407  18.682  0.00  0.00    +0.000 A 
ATOM     11  C   UNL     1       4.659   4.953  17.445  0.00  0.00    +0.000 A 
ATOM     12  N   UNL     1       5.883   5.211  16.889  0.00  0.00    +0.000 N 
ATOM     13  C   UNL     1       6.834   4.832  17.793  0.00  0.00    +0.000 A 
ATOM     14  N   UNL     1       6.289   4.350  18.893  0.00  0.00    +0.000 NA
BRANCH  12  15
ATOM     15  C   UNL     1       6.123   5.829  15.599  0.00  0.00    +0.000 C 
BRANCH  15  16
ATOM     16  O   UNL     1       7.347   5.327  15.072  0.00  0.00    +0.000 OA
BRANCH  16  17
ATOM     17  C   UNL     1       7.122   4.637  13.836  0.00  0.00    +0.000 C 
BRANCH  17  18
ATOM     18  C   UNL     1       7.853   5.374  12.719  0.00  0.00    +0.000 C 
BRANCH  18  19
ATOM     19  O   UNL     1       9.005   6.032  13.236  0.00  0.00    +0.000 OA
ATOM     20  H   UNL     1       8.911   6.012  14.207  0.00  0.00    +0.000 HD
ENDBRANCH  18  19
ENDBRANCH  17  18
ENDBRANCH  16  17
ENDBRANCH  15  16
ENDBRANCH  12  15
ENDBRANCH   5  10
BRANCH   6  21
ATOM     21  O   UNL     1       5.013   1.782  19.953  0.00  0.00    +0.000 OA
ATOM     22  H   UNL     1       4.593   0.905  19.832  0.00  0.00    +0.000 HD
ENDBRANCH   6  21
TORSDOF 7
ENDMDL
MODEL 3
REMARK VINA RESULT:      -6.2      2.894      6.958
REMARK  Name = 
REMARK  7 active torsions:
REMARK  status: ('A' for Active; 'I' for Inactive)
REMARK    1  A    between atoms: C_5  and  C_6
REMARK    2  A    between atoms: N_8  and  C_9
REMARK    3  A    between atoms: C_9  and  O_10
REMARK    4  A    between atoms: O_10  and  C_11
REMARK    5  A    between atoms: C_11  and  C_12
REMARK    6  A    between atoms: C_12  and  O_13
REMARK    7  A    between atoms: C_16  and  O_17
REMARK                            x       y       z     vdW  Elec       q    Type
REMARK                         _______ _______ _______ _____ _____    ______ ____
ROOT
ATOM      1  N   UNL     1       8.339   5.447  13.232  0.00  0.00    +0.000 N 
ATOM      2  C   UNL     1       7.354   5.225  14.169  0.00  0.00    +0.000 A 
ATOM      3  N   UNL     1       6.320   4.470  13.791  0.00  0.00    +0.000 NA
ATOM      4  C   UNL     1       5.339   4.300  14.701  0.00  0.00    +0.000 A 
ATOM      5  C   UNL     1       5.349   4.834  15.971  0.00  0.00    +0.000 A 
ATOM      6  C   UNL     1       6.496   5.552  16.257  0.00  0.00    +0.000 A 
ATOM      7  N   UNL     1       7.505   5.754  15.384  0.00  0.00    +0.000 NA
ATOM      8  H   UNL     1       8.331   4.718  12.535  0.00  0.00    +0.000 HD
ATOM      9  H   UNL     1       9.215   5.662  13.689  0.00  0.00    +0.000 HD
ENDROOT
BRANCH   5  10
ATOM     10  C   UNL     1       4.250   4.666  16.897  0.00  0.00    +0.000 A 
ATOM     11  C   UNL     1       3.539   3.508  17.129  0.00  0.00    +0.000 A 
ATOM     12  N   UNL     1       2.578   3.850  18.043  0.00  0.00    +0.000 N 
ATOM     13  C   UNL     1       2.742   5.174  18.337  0.00  0.00    +0.000 A 
ATOM     14  N   UNL     1       3.751   5.695  17.668  0.00  0.00    +0.000 NA
BRANCH  12  15
ATOM     15  C   UNL     1       1.603   2.953  18.633  0.00  0.00    +0.000 C 
BRANCH  15  16
ATOM     16  O   UNL     1       0.879   3.661  19.636  0.00  0.00    +0.000 OA
BRANCH  16  17
ATOM     17  C   UNL     1       0.952   2.977  20.893  0.00  0.00    +0.000 C 
BRANCH  17  18
ATOM     18  C   UNL     1       2.187   3.459  21.647  0.00  0.00    +0.000 C 
BRANCH  18  19
ATOM     19  O   UNL     1       3.035   2.357  21.953  0.00  0.00    +0.000 OA
ATOM     20  H   UNL     1       3.824   2.738  22.383  0.00  0.00    +0.000 HD
ENDBRANCH  18  19
ENDBRANCH  17  18
ENDBRANCH  16  17
ENDBRANCH  15  16
ENDBRANCH  12  15
ENDBRANCH   5  10
BRANCH   6  21
ATOM     21  O   UNL     1       6.704   6.132  17.482  0.00  0.00    +0.000 OA
ATOM     22  H   UNL     1       6.051   5.735  18.096  0.00  0.00    +0.000 HD
ENDBRANCH   6  21
TORSDOF 7
ENDMDL
MODEL 4
REMARK VINA RESULT:      -6.2      1.673      1.997
REMARK  Name = 
REMARK  7 active torsions:
REMARK  status: ('A' for Active; 'I' for Inactive)
REMARK    1  A    between atoms: C_5  and  C_6
REMARK    2  A    between atoms: N_8  and  C_9
REMARK    3  A    between atoms: C_9  and  O_10
REMARK    4  A    between atoms: O_10  and  C_11
REMARK    5  A    between atoms: C_11  and  C_12
REMARK    6  A    between atoms: C_12  and  O_13
REMARK    7  A    between atoms: C_16  and  O_17
REMARK                            x       y       z     vdW  Elec       q    Type
REMARK                         _______ _______ _______ _____ _____    ______ ____
ROOT
ATOM      1  N   UNL     1       1.062   2.600  21.498  0.00  0.00    +0.000 N 
ATOM      2  C   UNL     1       1.813   3.077  20.447  0.00  0.00    +0.000 A 
ATOM      3  N   UNL     1       3.141   3.044  20.589  0.00  0.00    +0.000 NA
ATOM      4  C   UNL     1       3.864   3.558  19.573  0.00  0.00    +0.000 A 
ATOM      5  C   UNL     1       3.328   4.088  18.421  0.00  0.00    +0.000 A 
ATOM      6  C   UNL     1       1.947   4.018  18.374  0.00  0.00    +0.000 A 
ATOM      7  N   UNL     1       1.176   3.516  19.361  0.00  0.00    +0.000 NA
ATOM      8  H   UNL     1       1.605   1.959  22.056  0.00  0.00    +0.000 HD
ATOM      9  H   UNL     1       0.154   2.298  21.171  0.00  0.00    +0.000 HD
ENDROOT
BRANCH   5  10
ATOM     10  C   UNL     1       4.142   4.675  17.378  0.00  0.00    +0.000 A 
ATOM     11  C   UNL     1       4.979   4.004  16.512  0.00  0.00    +0.000 A 
ATOM     12  N   UNL     1       5.565   4.977  15.748  0.00  0.00    +0.000 N 
ATOM     13  C   UNL     1       5.066   6.180  16.159  0.00  0.00    +0.000 A 
ATOM     14  N   UNL     1       4.195   6.031  17.138  0.00  0.00    +0.000 NA
BRANCH  12  15
ATOM     15  C   UNL     1       6.500   4.762  14.660  0.00  0.00    +0.000 C 
BRANCH  15  16
ATOM     16  O   UNL     1       6.143   3.561  13.982  0.00  0.00    +0.000 OA
BRANCH  16  17
ATOM     17  C   UNL     1       6.385   3.682  12.575  0.00  0.00    +0.000 C 
BRANCH  17  18
ATOM     18  C   UNL     1       5.392   2.800  11.825  0.00  0.00    +0.000 C 
BRANCH  18  19
ATOM     19  O   UNL     1       5.971   1.527  11.557  0.00  0.00    +0.000 OA
ATOM     20  H   UNL     1       5.625   1.254  10.686  0.00  0.00    +0.000 HD
ENDBRANCH  18  19
ENDBRANCH  17  18
ENDBRANCH  16  17
ENDBRANCH  15  16
ENDBRANCH  12  15
ENDBRANCH   5  10
BRANCH   6  21
ATOM     21  O   UNL     1       1.233   4.466  17.291  0.00  0.00    +0.000 OA
ATOM     22  H   UNL     1       0.285   4.344  17.509  0.00  0.00    +0.000 HD
ENDBRANCH   6  21
TORSDOF 7
ENDMDL
MODEL 5
REMARK VINA RESULT:      -6.1      1.165      1.320
REMARK  Name = 
REMARK  7 active torsions:
REMARK  status: ('A' for Active; 'I' for Inactive)
REMARK    1  A    between atoms: C_5  and  C_6
REMARK    2  A    between atoms: N_8  and  C_9
REMARK    3  A    between atoms: C_9  and  O_10
REMARK    4  A    between atoms: O_10  and  C_11
REMARK    5  A    between atoms: C_11  and  C_12
REMARK    6  A    between atoms: C_12  and  O_13
REMARK    7  A    between atoms: C_16  and  O_17
REMARK                            x       y       z     vdW  Elec       q    Type
REMARK                         _______ _______ _______ _____ _____    ______ ____
ROOT
ATOM      1  N   UNL     1       0.756   2.637  20.750  0.00  0.00    +0.000 N 
ATOM      2  C   UNL     1       1.815   3.039  19.968  0.00  0.00    +0.000 A 
ATOM      3  N   UNL     1       2.112   2.276  18.914  0.00  0.00    +0.000 NA
ATOM      4  C   UNL     1       3.182   2.654  18.184  0.00  0.00    +0.000 A 
ATOM      5  C   UNL     1       3.957   3.762  18.447  0.00  0.00    +0.000 A 
ATOM      6  C   UNL     1       3.516   4.496  19.534  0.00  0.00    +0.000 A 
ATOM      7  N   UNL     1       2.455   4.162  20.298  0.00  0.00    +0.000 NA
ATOM      8  H   UNL     1       0.130   2.050  20.220  0.00  0.00    +0.000 HD
ATOM      9  H   UNL     1       0.365   3.427  21.245  0.00  0.00    +0.000 HD
ENDROOT
BRANCH   5  10
ATOM     10  C   UNL     1       5.127   4.100  17.665  0.00  0.00    +0.000 A 
ATOM     11  C   UNL     1       5.230   4.084  16.291  0.00  0.00    +0.000 A 
ATOM     12  N   UNL     1       6.527   4.430  16.021  0.00  0.00    +0.000 N 
ATOM     13  C   UNL     1       7.151   4.651  17.216  0.00  0.00    +0.000 A 
ATOM     14  N   UNL     1       6.328   4.470  18.230  0.00  0.00    +0.000 NA
BRANCH  12  15
ATOM     15  C   UNL     1       7.112   4.590  14.704  0.00  0.00    +0.000 C 
BRANCH  15  16
ATOM     16  O   UNL     1       6.082   4.463  13.728  0.00  0.00    +0.000 OA
BRANCH  16  17
ATOM     17  C   UNL     1       6.540   3.704  12.602  0.00  0.00    +0.000 C 
BRANCH  17  18
ATOM     18  C   UNL     1       5.364   2.928  12.018  0.00  0.00    +0.000 C 
BRANCH  18  19
ATOM     19  O   UNL     1       5.794   1.646  11.572  0.00  0.00    +0.000 OA
ATOM     20  H   UNL     1       5.122   1.013  11.887  0.00  0.00    +0.000 HD
ENDBRANCH  18  19
ENDBRANCH  17  18
ENDBRANCH  16  17
ENDBRANCH  15  16
ENDBRANCH  12  15
ENDBRANCH   5  10
BRANCH   6  21
ATOM     21  O   UNL     1       4.139   5.651  19.931  0.00  0.00    +0.000 OA
ATOM     22  H   UNL     1       3.736   5.908  20.787  0.00  0.00    +0.000 HD
ENDBRANCH   6  21
TORSDOF 7
ENDMDL
MODEL 6
REMARK VINA RESULT:      -6.1      2.633      3.334
REMARK  Name = 
REMARK  7 active torsions:
REMARK  status: ('A' for Active; 'I' for Inactive)
REMARK    1  A    between atoms: C_5  and  C_6
REMARK    2  A    between atoms: N_8  and  C_9
REMARK    3  A    between atoms: C_9  and  O_10
REMARK    4  A    between atoms: O_10  and  C_11
REMARK    5  A    between atoms: C_11  and  C_12
REMARK    6  A    between atoms: C_12  and  O_13
REMARK    7  A    between atoms: C_16  and  O_17
REMARK                            x       y       z     vdW  Elec       q    Type
REMARK                         _______ _______ _______ _____ _____    ______ ____
ROOT
ATOM      1  N   UNL     1       0.912   2.326  22.499  0.00  0.00    +0.000 N 
ATOM      2  C   UNL     1       1.668   2.818  21.459  0.00  0.00    +0.000 A 
ATOM      3  N   UNL     1       1.117   3.777  20.712  0.00  0.00    +0.000 NA
ATOM      4  C   UNL     1       1.849   4.216  19.667  0.00  0.00    +0.000 A 
ATOM      5  C   UNL     1       3.106   3.755  19.343  0.00  0.00    +0.000 A 
ATOM      6  C   UNL     1       3.585   2.800  20.222  0.00  0.00    +0.000 A 
ATOM      7  N   UNL     1       2.895   2.325  21.280  0.00  0.00    +0.000 NA
ATOM      8  H   UNL     1       0.218   3.003  22.780  0.00  0.00    +0.000 HD
ATOM      9  H   UNL     1       1.510   1.932  23.212  0.00  0.00    +0.000 HD
ENDROOT
BRANCH   5  10
ATOM     10  C   UNL     1       3.833   4.220  18.181  0.00  0.00    +0.000 A 
ATOM     11  C   UNL     1       4.208   5.519  17.912  0.00  0.00    +0.000 A 
ATOM     12  N   UNL     1       4.825   5.471  16.690  0.00  0.00    +0.000 N 
ATOM     13  C   UNL     1       4.814   4.170  16.274  0.00  0.00    +0.000 A 
ATOM     14  N   UNL     1       4.230   3.386  17.158  0.00  0.00    +0.000 NA
BRANCH  12  15
ATOM     15  C   UNL     1       5.431   6.590  15.995  0.00  0.00    +0.000 C 
BRANCH  15  16
ATOM     16  O   UNL     1       6.845   6.511  16.147  0.00  0.00    +0.000 OA
BRANCH  16  17
ATOM     17  C   UNL     1       7.271   7.231  17.311  0.00  0.00    +0.000 C 
BRANCH  17  18
ATOM     18  C   UNL     1       7.714   6.233  18.374  0.00  0.00    +0.000 C 
BRANCH  18  19
ATOM     19  O   UNL     1       7.952   4.959  17.784  0.00  0.00    +0.000 OA
ATOM     20  H   UNL     1       7.611   5.019  16.871  0.00  0.00    +0.000 HD
ENDBRANCH  18  19
ENDBRANCH  17  18
ENDBRANCH  16  17
ENDBRANCH  15  16
ENDBRANCH  12  15
ENDBRANCH   5  10
BRANCH   6  21
ATOM     21  O   UNL     1       4.831   2.245  20.084  0.00  0.00    +0.000 OA
ATOM     22  H   UNL     1       5.284   2.352  20.946  0.00  0.00    +0.000 HD
ENDBRANCH   6  21
TORSDOF 7
ENDMDL
MODEL 7
REMARK VINA RESULT:      -6.1      2.786      6.704
REMARK  Name = 
REMARK  7 active torsions:
REMARK  status: ('A' for Active; 'I' for Inactive)
REMARK    1  A    between atoms: C_5  and  C_6
REMARK    2  A    between atoms: N_8  and  C_9
REMARK    3  A    between atoms: C_9  and  O_10
REMARK    4  A    between atoms: O_10  and  C_11
REMARK    5  A    between atoms: C_11  and  C_12
REMARK    6  A    between atoms: C_12  and  O_13
REMARK    7  A    between atoms: C_16  and  O_17
REMARK                            x       y       z     vdW  Elec       q    Type
REMARK                         _______ _______ _______ _____ _____    ______ ____
ROOT
ATOM      1  N   UNL     1       7.996   5.491  12.894  0.00  0.00    +0.000 N 
ATOM      2  C   UNL     1       7.330   5.070  14.023  0.00  0.00    +0.000 A 
ATOM      3  N   UNL     1       6.482   4.049  13.880  0.00  0.00    +0.000 NA
ATOM      4  C   UNL     1       5.800   3.679  14.983  0.00  0.00    +0.000 A 
ATOM      5  C   UNL     1       5.935   4.267  16.221  0.00  0.00    +0.000 A 
ATOM      6  C   UNL     1       6.879   5.278  16.249  0.00  0.00    +0.000 A 
ATOM      7  N   UNL     1       7.587   5.689  15.177  0.00  0.00    +0.000 NA
ATOM      8  H   UNL     1       8.038   4.747  12.213  0.00  0.00    +0.000 HD
ATOM      9  H   UNL     1       8.858   5.955  13.147  0.00  0.00    +0.000 HD
ENDROOT
BRANCH   5  10
ATOM     10  C   UNL     1       5.144   3.869  17.366  0.00  0.00    +0.000 A 
ATOM     11  C   UNL     1       3.822   3.481  17.357  0.00  0.00    +0.000 A 
ATOM     12  N   UNL     1       3.504   3.248  18.668  0.00  0.00    +0.000 N 
ATOM     13  C   UNL     1       4.624   3.486  19.412  0.00  0.00    +0.000 A 
ATOM     14  N   UNL     1       5.637   3.854  18.653  0.00  0.00    +0.000 NA
BRANCH  12  15
ATOM     15  C   UNL     1       2.226   2.777  19.166  0.00  0.00    +0.000 C 
BRANCH  15  16
ATOM     16  O   UNL     1       1.320   3.876  19.213  0.00  0.00    +0.000 OA
BRANCH  16  17
ATOM     17  C   UNL     1       1.153   4.339  20.560  0.00  0.00    +0.000 C 
BRANCH  17  18
ATOM     18  C   UNL     1       1.755   5.734  20.680  0.00  0.00    +0.000 C 
BRANCH  18  19
ATOM     19  O   UNL     1       2.141   6.215  19.396  0.00  0.00    +0.000 OA
ATOM     20  H   UNL     1       1.911   7.164  19.385  0.00  0.00    +0.000 HD
ENDBRANCH  18  19
ENDBRANCH  17  18
ENDBRANCH  16  17
ENDBRANCH  15  16
ENDBRANCH  12  15
ENDBRANCH   5  10
BRANCH   6  21
ATOM     21  O   UNL     1       7.178   5.961  17.401  0.00  0.00    +0.000 OA
ATOM     22  H   UNL     1       6.398   5.878  17.988  0.00  0.00    +0.000 HD
ENDBRANCH   6  21
TORSDOF 7
ENDMDL
MODEL 8
REMARK VINA RESULT:      -6.1      2.834      6.464
REMARK  Name = 
REMARK  7 active torsions:
REMARK  status: ('A' for Active; 'I' for Inactive)
REMARK    1  A    between atoms: C_5  and  C_6
REMARK    2  A    between atoms: N_8  and  C_9
REMARK    3  A    between atoms: C_9  and  O_10
REMARK    4  A    between atoms: O_10  and  C_11
REMARK    5  A    between atoms: C_11  and  C_12
REMARK    6  A    between atoms: C_12  and  O_13
REMARK    7  A    between atoms: C_16  and  O_17
REMARK                            x       y       z     vdW  Elec       q    Type
REMARK                         _______ _______ _______ _____ _____    ______ ____
ROOT
ATOM      1  N   UNL     1       7.649   4.957  12.645  0.00  0.00    +0.000 N 
ATOM      2  C   UNL     1       7.069   4.865  13.891  0.00  0.00    +0.000 A 
ATOM      3  N   UNL     1       5.966   4.121  13.990  0.00  0.00    +0.000 NA
ATOM      4  C   UNL     1       5.380   4.078  15.204  0.00  0.00    +0.000 A 
ATOM      5  C   UNL     1       5.851   4.729  16.323  0.00  0.00    +0.000 A 
ATOM      6  C   UNL     1       7.026   5.424  16.102  0.00  0.00    +0.000 A 
ATOM      7  N   UNL     1       7.651   5.501  14.909  0.00  0.00    +0.000 NA
ATOM      8  H   UNL     1       7.387   4.167  12.076  0.00  0.00    +0.000 HD
ATOM      9  H   UNL     1       8.632   5.179  12.731  0.00  0.00    +0.000 HD
ENDROOT
BRANCH   5  10
ATOM     10  C   UNL     1       5.160   4.695  17.595  0.00  0.00    +0.000 A 
ATOM     11  C   UNL     1       3.895   5.177  17.857  0.00  0.00    +0.000 A 
ATOM     12  N   UNL     1       3.697   4.965  19.195  0.00  0.00    +0.000 N 
ATOM     13  C   UNL     1       4.821   4.364  19.687  0.00  0.00    +0.000 A 
ATOM     14  N   UNL     1       5.721   4.178  18.742  0.00  0.00    +0.000 NA
BRANCH  12  15
ATOM     15  C   UNL     1       2.490   5.270  19.939  0.00  0.00    +0.000 C 
BRANCH  15  16
ATOM     16  O   UNL     1       1.408   4.533  19.376  0.00  0.00    +0.000 OA
BRANCH  16  17
ATOM     17  C   UNL     1       1.233   3.286  20.060  0.00  0.00    +0.000 C 
BRANCH  17  18
ATOM     18  C   UNL     1       1.486   2.146  19.081  0.00  0.00    +0.000 C 
BRANCH  18  19
ATOM     19  O   UNL     1       0.297   1.847  18.357  0.00  0.00    +0.000 OA
ATOM     20  H   UNL     1       0.389   0.921  18.061  0.00  0.00    +0.000 HD
ENDBRANCH  18  19
ENDBRANCH  17  18
ENDBRANCH  16  17
ENDBRANCH  15  16
ENDBRANCH  12  15
ENDBRANCH   5  10
BRANCH   6  21
ATOM     21  O   UNL     1       7.665   6.108  17.104  0.00  0.00    +0.000 OA
ATOM     22  H   UNL     1       7.029   6.181  17.846  0.00  0.00    +0.000 HD
ENDBRANCH   6  21
TORSDOF 7
ENDMDL
MODEL 9
REMARK VINA RESULT:      -6.0      1.341      1.468
REMARK  Name = 
REMARK  7 active torsions:
REMARK  status: ('A' for Active; 'I' for Inactive)
REMARK    1  A    between atoms: C_5  and  C_6
REMARK    2  A    between atoms: N_8  and  C_9
REMARK    3  A    between atoms: C_9  and  O_10
REMARK    4  A    between atoms: O_10  and  C_11
REMARK    5  A    between atoms: C_11  and  C_12
REMARK    6  A    between atoms: C_12  and  O_13
REMARK    7  A    between atoms: C_16  and  O_17
REMARK                            x       y       z     vdW  Elec       q    Type
REMARK                         _______ _______ _______ _____ _____    ______ ____
ROOT
ATOM      1  N   UNL     1       1.341   2.438  22.374  0.00  0.00    +0.000 N 
ATOM      2  C   UNL     1       2.169   3.046  21.456  0.00  0.00    +0.000 A 
ATOM      3  N   UNL     1       1.912   4.323  21.165  0.00  0.00    +0.000 NA
ATOM      4  C   UNL     1       2.699   4.892  20.229  0.00  0.00    +0.000 A 
ATOM      5  C   UNL     1       3.736   4.254  19.584  0.00  0.00    +0.000 A 
ATOM      6  C   UNL     1       3.930   2.952  20.010  0.00  0.00    +0.000 A 
ATOM      7  N   UNL     1       3.172   2.335  20.940  0.00  0.00    +0.000 NA
ATOM      8  H   UNL     1       0.906   3.128  22.966  0.00  0.00    +0.000 HD
ATOM      9  H   UNL     1       1.817   1.662  22.815  0.00  0.00    +0.000 HD
ENDROOT
BRANCH   5  10
ATOM     10  C   UNL     1       4.522   4.890  18.549  0.00  0.00    +0.000 A 
ATOM     11  C   UNL     1       4.247   4.903  17.198  0.00  0.00    +0.000 A 
ATOM     12  N   UNL     1       5.289   5.580  16.623  0.00  0.00    +0.000 N 
ATOM     13  C   UNL     1       6.138   5.957  17.624  0.00  0.00    +0.000 A 
ATOM     14  N   UNL     1       5.697   5.563  18.803  0.00  0.00    +0.000 NA
BRANCH  12  15
ATOM     15  C   UNL     1       5.432   5.890  15.213  0.00  0.00    +0.000 C 
BRANCH  15  16
ATOM     16  O   UNL     1       6.769   5.599  14.815  0.00  0.00    +0.000 OA
BRANCH  16  17
ATOM     17  C   UNL     1       6.889   4.232  14.401  0.00  0.00    +0.000 C 
BRANCH  17  18
ATOM     18  C   UNL     1       6.511   4.127  12.928  0.00  0.00    +0.000 C 
BRANCH  18  19
ATOM     19  O   UNL     1       6.213   2.776  12.592  0.00  0.00    +0.000 OA
ATOM     20  H   UNL     1       6.025   2.773  11.634  0.00  0.00    +0.000 HD
ENDBRANCH  18  19
ENDBRANCH  17  18
ENDBRANCH  16  17
ENDBRANCH  15  16
ENDBRANCH  12  15
ENDBRANCH   5  10
BRANCH   6  21
ATOM     21  O   UNL     1       4.935   2.165  19.508  0.00  0.00    +0.000 OA
ATOM     22  H   UNL     1       5.542   1.975  20.253  0.00  0.00    +0.000 HD
ENDBRANCH   6  21
TORSDOF 7
ENDMDL
