MODEL 1
REMARK VINA RESULT:      -4.0      0.000      0.000
REMARK  Name = 
REMARK  5 active torsions:
REMARK  status: ('A' for Active; 'I' for Inactive)
REMARK    1  A    between atoms: C_1  and  C_2
REMARK    2  A    between atoms: C_2  and  C_3
REMARK    3  A    between atoms: C_3  and  N_4
REMARK    4  A    between atoms: N_4  and  C_5
REMARK    5  A    between atoms: C_5  and  C_6
REMARK                            x       y       z     vdW  Elec       q    Type
REMARK                         _______ _______ _______ _____ _____    ______ ____
ROOT
ATOM      1  N   UNL     1       5.540   3.879  17.832  0.00  0.00    +0.000 NA
ATOM      2  H   UNL     1       6.225   3.129  17.720  0.00  0.00    +0.000 HD
ENDROOT
BRANCH   1   3
ATOM      3  C   UNL     1       5.093   4.362  16.527  0.00  0.00    +0.000 C 
BRANCH   3   5
ATOM      4  C   UNL     1       6.819   4.735  14.726  0.00  0.00    +0.000 C 
ATOM      5  C   UNL     1       5.935   3.714  15.426  0.00  0.00    +0.000 C 
ENDBRANCH   3   5
ENDBRANCH   1   3
BRANCH   1   6
ATOM      6  C   UNL     1       6.126   4.968  18.646  0.00  0.00    +0.000 C 
BRANCH   6   7
ATOM      7  C   UNL     1       7.614   5.300  18.385  0.00  0.00    +0.000 C 
ATOM      8  F   UNL     1       7.769   6.375  17.580  0.00  0.00    +0.000 F 
ATOM      9  F   UNL     1       8.249   5.581  19.549  0.00  0.00    +0.000 F 
ATOM     10  F   UNL     1       8.260   4.259  17.814  0.00  0.00    +0.000 F 
ENDBRANCH   6   7
ENDBRANCH   1   6
TORSDOF 4
ENDMDL
MODEL 2
REMARK VINA RESULT:      -3.9      5.503      5.957
REMARK  Name = 
REMARK  5 active torsions:
REMARK  status: ('A' for Active; 'I' for Inactive)
REMARK    1  A    between atoms: C_1  and  C_2
REMARK    2  A    between atoms: C_2  and  C_3
REMARK    3  A    between atoms: C_3  and  N_4
REMARK    4  A    between atoms: N_4  and  C_5
REMARK    5  A    between atoms: C_5  and  C_6
REMARK                            x       y       z     vdW  Elec       q    Type
REMARK                         _______ _______ _______ _____ _____    ______ ____
ROOT
ATOM      1  N   UNL     1       2.484   1.745  18.742  0.00  0.00    +0.000 NA
ATOM      2  H   UNL     1       3.223   1.041  18.779  0.00  0.00    +0.000 HD
ENDROOT
BRANCH   1   3
ATOM      3  C   UNL     1       2.591   2.535  17.517  0.00  0.00    +0.000 C 
BRANCH   3   5
ATOM      4  C   UNL     1       4.476   3.983  16.672  0.00  0.00    +0.000 C 
ATOM      5  C   UNL     1       3.455   3.771  17.779  0.00  0.00    +0.000 C 
ENDBRANCH   3   5
ENDBRANCH   1   3
BRANCH   1   6
ATOM      6  C   UNL     1       2.550   2.598  19.950  0.00  0.00    +0.000 C 
BRANCH   6   7
ATOM      7  C   UNL     1       1.199   3.091  20.521  0.00  0.00    +0.000 C 
ATOM      8  F   UNL     1       0.956   2.609  21.760  0.00  0.00    +0.000 F 
ATOM      9  F   UNL     1       1.188   4.444  20.611  0.00  0.00    +0.000 F 
ATOM     10  F   UNL     1       0.167   2.732  19.727  0.00  0.00    +0.000 F 
ENDBRANCH   6   7
ENDBRANCH   1   6
TORSDOF 4
ENDMDL
MODEL 3
REMARK VINA RESULT:      -3.9      5.484      6.106
REMARK  Name = 
REMARK  5 active torsions:
REMARK  status: ('A' for Active; 'I' for Inactive)
REMARK    1  A    between atoms: C_1  and  C_2
REMARK    2  A    between atoms: C_2  and  C_3
REMARK    3  A    between atoms: C_3  and  N_4
REMARK    4  A    between atoms: N_4  and  C_5
REMARK    5  A    between atoms: C_5  and  C_6
REMARK                            x       y       z     vdW  Elec       q    Type
REMARK                         _______ _______ _______ _____ _____    ______ ____
ROOT
ATOM      1  N   UNL     1       3.374   2.980  19.319  0.00  0.00    +0.000 NA
ATOM      2  H   UNL     1       4.162   2.359  19.126  0.00  0.00    +0.000 HD
ENDROOT
BRANCH   1   3
ATOM      3  C   UNL     1       3.739   4.370  19.049  0.00  0.00    +0.000 C 
BRANCH   3   5
ATOM      4  C   UNL     1       1.663   4.436  17.617  0.00  0.00    +0.000 C 
ATOM      5  C   UNL     1       3.136   4.806  17.712  0.00  0.00    +0.000 C 
ENDBRANCH   3   5
ENDBRANCH   1   3
BRANCH   1   6
ATOM      6  C   UNL     1       2.927   2.794  20.718  0.00  0.00    +0.000 C 
BRANCH   6   7
ATOM      7  C   UNL     1       1.433   3.074  21.008  0.00  0.00    +0.000 C 
ATOM      8  F   UNL     1       1.156   4.396  21.061  0.00  0.00    +0.000 F 
ATOM      9  F   UNL     1       0.654   2.543  20.034  0.00  0.00    +0.000 F 
ATOM     10  F   UNL     1       1.046   2.522  22.179  0.00  0.00    +0.000 F 
ENDBRANCH   6   7
ENDBRANCH   1   6
TORSDOF 4
ENDMDL
MODEL 4
REMARK VINA RESULT:      -3.9      1.189      1.370
REMARK  Name = 
REMARK  5 active torsions:
REMARK  status: ('A' for Active; 'I' for Inactive)
REMARK    1  A    between atoms: C_1  and  C_2
REMARK    2  A    between atoms: C_2  and  C_3
REMARK    3  A    between atoms: C_3  and  N_4
REMARK    4  A    between atoms: N_4  and  C_5
REMARK    5  A    between atoms: C_5  and  C_6
REMARK                            x       y       z     vdW  Elec       q    Type
REMARK                         _______ _______ _______ _____ _____    ______ ____
ROOT
ATOM      1  N   UNL     1       6.244   4.042  17.449  0.00  0.00    +0.000 NA
ATOM      2  H   UNL     1       6.366   3.083  17.117  0.00  0.00    +0.000 HD
ENDROOT
BRANCH   1   3
ATOM      3  C   UNL     1       5.455   4.817  16.493  0.00  0.00    +0.000 C 
BRANCH   3   5
ATOM      4  C   UNL     1       6.138   3.969  14.218  0.00  0.00    +0.000 C 
ATOM      5  C   UNL     1       6.290   5.086  15.240  0.00  0.00    +0.000 C 
ENDBRANCH   3   5
ENDBRANCH   1   3
BRANCH   1   6
ATOM      6  C   UNL     1       7.569   4.657  17.689  0.00  0.00    +0.000 C 
BRANCH   6   7
ATOM      7  C   UNL     1       7.659   5.667  18.857  0.00  0.00    +0.000 C 
ATOM      8  F   UNL     1       7.894   6.928  18.432  0.00  0.00    +0.000 F 
ATOM      9  F   UNL     1       6.495   5.692  19.552  0.00  0.00    +0.000 F 
ATOM     10  F   UNL     1       8.639   5.332  19.725  0.00  0.00    +0.000 F 
ENDBRANCH   6   7
ENDBRANCH   1   6
TORSDOF 4
ENDMDL
MODEL 5
REMARK VINA RESULT:      -3.9      5.632      6.253
REMARK  Name = 
REMARK  5 active torsions:
REMARK  status: ('A' for Active; 'I' for Inactive)
REMARK    1  A    between atoms: C_1  and  C_2
REMARK    2  A    between atoms: C_2  and  C_3
REMARK    3  A    between atoms: C_3  and  N_4
REMARK    4  A    between atoms: N_4  and  C_5
REMARK    5  A    between atoms: C_5  and  C_6
REMARK                            x       y       z     vdW  Elec       q    Type
REMARK                         _______ _______ _______ _____ _____    ______ ____
ROOT
ATOM      1  N   UNL     1       2.447   5.365  20.511  0.00  0.00    +0.000 NA
ATOM      2  H   UNL     1       1.580   5.391  19.972  0.00  0.00    +0.000 HD
ENDROOT
BRANCH   1   3
ATOM      3  C   UNL     1       3.605   5.396  19.619  0.00  0.00    +0.000 C 
BRANCH   3   5
ATOM      4  C   UNL     1       1.999   4.792  17.770  0.00  0.00    +0.000 C 
ATOM      5  C   UNL     1       3.345   4.491  18.413  0.00  0.00    +0.000 C 
ENDBRANCH   3   5
ENDBRANCH   1   3
BRANCH   1   6
ATOM      6  C   UNL     1       2.457   4.164  21.378  0.00  0.00    +0.000 C 
BRANCH   6   7
ATOM      7  C   UNL     1       1.404   3.077  21.061  0.00  0.00    +0.000 C 
ATOM      8  F   UNL     1       0.346   3.566  20.376  0.00  0.00    +0.000 F 
ATOM      9  F   UNL     1       1.949   2.094  20.303  0.00  0.00    +0.000 F 
ATOM     10  F   UNL     1       0.935   2.501  22.190  0.00  0.00    +0.000 F 
ENDBRANCH   6   7
ENDBRANCH   1   6
TORSDOF 4
ENDMDL
MODEL 6
REMARK VINA RESULT:      -3.9      5.444      6.032
REMARK  Name = 
REMARK  5 active torsions:
REMARK  status: ('A' for Active; 'I' for Inactive)
REMARK    1  A    between atoms: C_1  and  C_2
REMARK    2  A    between atoms: C_2  and  C_3
REMARK    3  A    between atoms: C_3  and  N_4
REMARK    4  A    between atoms: N_4  and  C_5
REMARK    5  A    between atoms: C_5  and  C_6
REMARK                            x       y       z     vdW  Elec       q    Type
REMARK                         _______ _______ _______ _____ _____    ______ ____
ROOT
ATOM      1  N   UNL     1       2.969   2.951  18.923  0.00  0.00    +0.000 NA
ATOM      2  H   UNL     1       3.401   3.778  19.339  0.00  0.00    +0.000 HD
ENDROOT
BRANCH   1   3
ATOM      3  C   UNL     1       2.287   3.301  17.677  0.00  0.00    +0.000 C 
BRANCH   3   5
ATOM      4  C   UNL     1       2.959   5.633  18.365  0.00  0.00    +0.000 C 
ATOM      5  C   UNL     1       1.884   4.776  17.713  0.00  0.00    +0.000 C 
ENDBRANCH   3   5
ENDBRANCH   1   3
BRANCH   1   6
ATOM      6  C   UNL     1       2.042   2.332  19.897  0.00  0.00    +0.000 C 
BRANCH   6   7
ATOM      7  C   UNL     1       1.488   3.257  21.006  0.00  0.00    +0.000 C 
ATOM      8  F   UNL     1       0.456   4.017  20.576  0.00  0.00    +0.000 F 
ATOM      9  F   UNL     1       1.033   2.524  22.052  0.00  0.00    +0.000 F 
ATOM     10  F   UNL     1       2.444   4.086  21.480  0.00  0.00    +0.000 F 
ENDBRANCH   6   7
ENDBRANCH   1   6
TORSDOF 4
ENDMDL
MODEL 7
REMARK VINA RESULT:      -3.9      3.003      3.861
REMARK  Name = 
REMARK  5 active torsions:
REMARK  status: ('A' for Active; 'I' for Inactive)
REMARK    1  A    between atoms: C_1  and  C_2
REMARK    2  A    between atoms: C_2  and  C_3
REMARK    3  A    between atoms: C_3  and  N_4
REMARK    4  A    between atoms: N_4  and  C_5
REMARK    5  A    between atoms: C_5  and  C_6
REMARK                            x       y       z     vdW  Elec       q    Type
REMARK                         _______ _______ _______ _____ _____    ______ ____
ROOT
ATOM      1  N   UNL     1       5.697   3.911  18.972  0.00  0.00    +0.000 NA
ATOM      2  H   UNL     1       5.966   3.257  19.709  0.00  0.00    +0.000 HD
ENDROOT
BRANCH   1   3
ATOM      3  C   UNL     1       6.117   5.269  19.316  0.00  0.00    +0.000 C 
BRANCH   3   5
ATOM      4  C   UNL     1       7.663   4.592  17.442  0.00  0.00    +0.000 C 
ATOM      5  C   UNL     1       7.210   5.726  18.348  0.00  0.00    +0.000 C 
ENDBRANCH   3   5
ENDBRANCH   1   3
BRANCH   1   6
ATOM      6  C   UNL     1       4.236   3.832  18.745  0.00  0.00    +0.000 C 
BRANCH   6   7
ATOM      7  C   UNL     1       3.739   4.188  17.324  0.00  0.00    +0.000 C 
ATOM      8  F   UNL     1       3.666   5.523  17.122  0.00  0.00    +0.000 F 
ATOM      9  F   UNL     1       4.583   3.690  16.388  0.00  0.00    +0.000 F 
ATOM     10  F   UNL     1       2.516   3.666  17.084  0.00  0.00    +0.000 F 
ENDBRANCH   6   7
ENDBRANCH   1   6
TORSDOF 4
ENDMDL
MODEL 8
REMARK VINA RESULT:      -3.9      5.269      6.007
REMARK  Name = 
REMARK  5 active torsions:
REMARK  status: ('A' for Active; 'I' for Inactive)
REMARK    1  A    between atoms: C_1  and  C_2
REMARK    2  A    between atoms: C_2  and  C_3
REMARK    3  A    between atoms: C_3  and  N_4
REMARK    4  A    between atoms: N_4  and  C_5
REMARK    5  A    between atoms: C_5  and  C_6
REMARK                            x       y       z     vdW  Elec       q    Type
REMARK                         _______ _______ _______ _____ _____    ______ ____
ROOT
ATOM      1  N   UNL     1       3.859   2.927  20.047  0.00  0.00    +0.000 NA
ATOM      2  H   UNL     1       4.122   3.393  20.918  0.00  0.00    +0.000 HD
ENDROOT
BRANCH   1   3
ATOM      3  C   UNL     1       4.218   3.755  18.897  0.00  0.00    +0.000 C 
BRANCH   3   5
ATOM      4  C   UNL     1       3.215   6.068  18.849  0.00  0.00    +0.000 C 
ATOM      5  C   UNL     1       4.370   5.211  19.342  0.00  0.00    +0.000 C 
ENDBRANCH   3   5
ENDBRANCH   1   3
BRANCH   1   6
ATOM      6  C   UNL     1       2.412   2.617  20.066  0.00  0.00    +0.000 C 
BRANCH   6   7
ATOM      7  C   UNL     1       1.556   3.383  21.103  0.00  0.00    +0.000 C 
ATOM      8  F   UNL     1       0.965   2.558  21.996  0.00  0.00    +0.000 F 
ATOM      9  F   UNL     1       2.327   4.246  21.809  0.00  0.00    +0.000 F 
ATOM     10  F   UNL     1       0.586   4.108  20.504  0.00  0.00    +0.000 F 
ENDBRANCH   6   7
ENDBRANCH   1   6
TORSDOF 4
ENDMDL
MODEL 9
REMARK VINA RESULT:      -3.9      2.045      3.300
REMARK  Name = 
REMARK  5 active torsions:
REMARK  status: ('A' for Active; 'I' for Inactive)
REMARK    1  A    between atoms: C_1  and  C_2
REMARK    2  A    between atoms: C_2  and  C_3
REMARK    3  A    between atoms: C_3  and  N_4
REMARK    4  A    between atoms: N_4  and  C_5
REMARK    5  A    between atoms: C_5  and  C_6
REMARK                            x       y       z     vdW  Elec       q    Type
REMARK                         _______ _______ _______ _____ _____    ______ ____
ROOT
ATOM      1  N   UNL     1       5.683   3.803  18.926  0.00  0.00    +0.000 NA
ATOM      2  H   UNL     1       5.891   3.349  18.035  0.00  0.00    +0.000 HD
ENDROOT
BRANCH   1   3
ATOM      3  C   UNL     1       4.254   3.714  19.223  0.00  0.00    +0.000 C 
BRANCH   3   5
ATOM      4  C   UNL     1       2.431   5.030  20.366  0.00  0.00    +0.000 C 
ATOM      5  C   UNL     1       3.713   5.108  19.552  0.00  0.00    +0.000 C 
ENDBRANCH   3   5
ENDBRANCH   1   3
BRANCH   1   6
ATOM      6  C   UNL     1       6.147   5.208  18.889  0.00  0.00    +0.000 C 
BRANCH   6   7
ATOM      7  C   UNL     1       7.582   5.446  18.362  0.00  0.00    +0.000 C 
ATOM      8  F   UNL     1       8.420   5.885  19.328  0.00  0.00    +0.000 F 
ATOM      9  F   UNL     1       8.106   4.294  17.876  0.00  0.00    +0.000 F 
ATOM     10  F   UNL     1       7.596   6.350  17.359  0.00  0.00    +0.000 F 
ENDBRANCH   6   7
ENDBRANCH   1   6
TORSDOF 4
ENDMDL
