MODEL 1
REMARK VINA RESULT:      -9.0      0.000      0.000
REMARK  Name = 
REMARK  4 active torsions:
REMARK  status: ('A' for Active; 'I' for Inactive)
REMARK    1  A    between atoms: C_2  and  C_13
REMARK    2  A    between atoms: N_17  and  C_18
REMARK    3  A    between atoms: C_18  and  C_19
REMARK    4  A    between atoms: C_23  and  C_24
REMARK                            x       y       z     vdW  Elec       q    Type
REMARK                         _______ _______ _______ _____ _____    ______ ____
ROOT
ATOM      1  C   UNL     1       2.447   6.784  20.055  0.00  0.00    +0.000 C 
ATOM      2  C   UNL     1       1.407   5.804  20.591  0.00  0.00    +0.000 C 
ATOM      3  C   UNL     1       1.965   4.461  20.201  0.00  0.00    +0.000 C 
ATOM      4  O   UNL     1       1.646   3.400  20.706  0.00  0.00    +0.000 OA
ATOM      5  N   UNL     1       2.844   4.660  19.150  0.00  0.00    +0.000 N 
ATOM      6  C   UNL     1       2.997   6.066  18.824  0.00  0.00    +0.000 C 
ENDROOT
BRANCH   1   8
ATOM      7  O   UNL     1       2.006   8.775  18.751  0.00  0.00    +0.000 OA
ATOM      8  C   UNL     1       1.821   8.153  19.787  0.00  0.00    +0.000 C 
ATOM      9  N   UNL     1       1.059   8.596  20.865  0.00  0.00    +0.000 N 
ATOM     10  C   UNL     1       0.631   9.912  20.896  0.00  0.00    +0.000 A 
ATOM     11  N   UNL     1       0.948  10.747  21.861  0.00  0.00    +0.000 NA
ATOM     12  N   UNL     1       0.325  11.951  21.623  0.00  0.00    +0.000 NA
ATOM     13  C   UNL     1      -0.442  11.801  20.565  0.00  0.00    +0.000 A 
ATOM     14  C   UNL     1      -1.377  12.668  19.941  0.00  0.00    +0.000 A 
ATOM     15  C   UNL     1      -2.163  12.193  18.942  0.00  0.00    +0.000 A 
ATOM     16  C   UNL     1      -2.052  10.813  18.493  0.00  0.00    +0.000 A 
ATOM     17  C   UNL     1      -1.132  10.004  19.052  0.00  0.00    +0.000 A 
ATOM     18  N   UNL     1      -0.316  10.503  20.075  0.00  0.00    +0.000 N 
ATOM     19  H   UNL     1       1.402   8.298  21.772  0.00  0.00    +0.000 HD
ENDBRANCH   1   8
BRANCH   5  20
ATOM     20  C   UNL     1       3.426   3.593  18.344  0.00  0.00    +0.000 C 
BRANCH  20  21
ATOM     21  C   UNL     1       4.723   3.992  17.679  0.00  0.00    +0.000 A 
ATOM     22  C   UNL     1       5.848   4.345  18.438  0.00  0.00    +0.000 A 
ATOM     23  C   UNL     1       7.052   4.680  17.812  0.00  0.00    +0.000 A 
ATOM     24  C   UNL     1       7.150   4.655  16.422  0.00  0.00    +0.000 A 
ATOM     25  C   UNL     1       6.037   4.323  15.640  0.00  0.00    +0.000 A 
ATOM     26  C   UNL     1       4.821   4.025  16.279  0.00  0.00    +0.000 A 
BRANCH  25  27
ATOM     27  C   UNL     1       6.138   4.232  14.137  0.00  0.00    +0.000 C 
ATOM     28  F   UNL     1       4.957   4.468  13.499  0.00  0.00    +0.000 F 
ATOM     29  F   UNL     1       7.019   5.140  13.627  0.00  0.00    +0.000 F 
ATOM     30  F   UNL     1       6.560   3.014  13.703  0.00  0.00    +0.000 F 
ENDBRANCH  25  27
ENDBRANCH  20  21
ENDBRANCH   5  20
TORSDOF 4
ENDMDL
MODEL 2
REMARK VINA RESULT:      -8.9      1.784      2.634
REMARK  Name = 
REMARK  4 active torsions:
REMARK  status: ('A' for Active; 'I' for Inactive)
REMARK    1  A    between atoms: C_2  and  C_13
REMARK    2  A    between atoms: N_17  and  C_18
REMARK    3  A    between atoms: C_18  and  C_19
REMARK    4  A    between atoms: C_23  and  C_24
REMARK                            x       y       z     vdW  Elec       q    Type
REMARK                         _______ _______ _______ _____ _____    ______ ____
ROOT
ATOM      1  C   UNL     1       3.300   5.916  19.354  0.00  0.00    +0.000 C 
ATOM      2  C   UNL     1       3.548   4.695  20.235  0.00  0.00    +0.000 C 
ATOM      3  C   UNL     1       4.227   3.728  19.302  0.00  0.00    +0.000 C 
ATOM      4  O   UNL     1       4.894   2.771  19.653  0.00  0.00    +0.000 OA
ATOM      5  N   UNL     1       3.907   4.097  18.007  0.00  0.00    +0.000 N 
ATOM      6  C   UNL     1       3.106   5.308  17.967  0.00  0.00    +0.000 C 
ENDROOT
BRANCH   1   8
ATOM      7  O   UNL     1       1.160   6.234  20.439  0.00  0.00    +0.000 OA
ATOM      8  C   UNL     1       2.123   6.738  19.878  0.00  0.00    +0.000 C 
ATOM      9  N   UNL     1       2.276   8.096  19.610  0.00  0.00    +0.000 N 
ATOM     10  C   UNL     1       1.199   8.947  19.788  0.00  0.00    +0.000 A 
ATOM     11  N   UNL     1       0.691   9.673  18.816  0.00  0.00    +0.000 NA
ATOM     12  N   UNL     1      -0.328  10.443  19.330  0.00  0.00    +0.000 NA
ATOM     13  C   UNL     1      -0.361  10.246  20.629  0.00  0.00    +0.000 A 
ATOM     14  C   UNL     1      -1.128  10.848  21.661  0.00  0.00    +0.000 A 
ATOM     15  C   UNL     1      -0.842  10.565  22.956  0.00  0.00    +0.000 A 
ATOM     16  C   UNL     1       0.230   9.643  23.303  0.00  0.00    +0.000 A 
ATOM     17  C   UNL     1       0.926   9.034  22.323  0.00  0.00    +0.000 A 
ATOM     18  N   UNL     1       0.618   9.322  20.988  0.00  0.00    +0.000 N 
ATOM     19  H   UNL     1       2.770   8.300  18.748  0.00  0.00    +0.000 HD
ENDBRANCH   1   8
BRANCH   5  20
ATOM     20  C   UNL     1       4.184   3.293  16.823  0.00  0.00    +0.000 C 
BRANCH  20  21
ATOM     21  C   UNL     1       5.272   3.877  15.951  0.00  0.00    +0.000 A 
ATOM     22  C   UNL     1       6.276   4.692  16.492  0.00  0.00    +0.000 A 
ATOM     23  C   UNL     1       7.295   5.198  15.682  0.00  0.00    +0.000 A 
ATOM     24  C   UNL     1       7.331   4.888  14.324  0.00  0.00    +0.000 A 
ATOM     25  C   UNL     1       6.331   4.090  13.754  0.00  0.00    +0.000 A 
ATOM     26  C   UNL     1       5.290   3.617  14.571  0.00  0.00    +0.000 A 
BRANCH  25  27
ATOM     27  C   UNL     1       6.385   3.692  12.300  0.00  0.00    +0.000 C 
ATOM     28  F   UNL     1       6.818   2.415  12.103  0.00  0.00    +0.000 F 
ATOM     29  F   UNL     1       5.159   3.759  11.704  0.00  0.00    +0.000 F 
ATOM     30  F   UNL     1       7.206   4.485  11.559  0.00  0.00    +0.000 F 
ENDBRANCH  25  27
ENDBRANCH  20  21
ENDBRANCH   5  20
TORSDOF 4
ENDMDL
MODEL 3
REMARK VINA RESULT:      -8.9      6.193      7.962
REMARK  Name = 
REMARK  4 active torsions:
REMARK  status: ('A' for Active; 'I' for Inactive)
REMARK    1  A    between atoms: C_2  and  C_13
REMARK    2  A    between atoms: N_17  and  C_18
REMARK    3  A    between atoms: C_18  and  C_19
REMARK    4  A    between atoms: C_23  and  C_24
REMARK                            x       y       z     vdW  Elec       q    Type
REMARK                         _______ _______ _______ _____ _____    ______ ____
ROOT
ATOM      1  C   UNL     1       8.103   7.896  17.739  0.00  0.00    +0.000 C 
ATOM      2  C   UNL     1       8.043   6.748  18.742  0.00  0.00    +0.000 C 
ATOM      3  C   UNL     1       7.016   5.822  18.147  0.00  0.00    +0.000 C 
ATOM      4  O   UNL     1       6.892   4.643  18.429  0.00  0.00    +0.000 OA
ATOM      5  N   UNL     1       6.228   6.566  17.286  0.00  0.00    +0.000 N 
ATOM      6  C   UNL     1       6.682   7.941  17.180  0.00  0.00    +0.000 C 
ENDROOT
BRANCH   1   8
ATOM      7  O   UNL     1       8.748   9.279  19.617  0.00  0.00    +0.000 OA
ATOM      8  C   UNL     1       8.582   9.183  18.409  0.00  0.00    +0.000 C 
ATOM      9  N   UNL     1       8.769  10.211  17.488  0.00  0.00    +0.000 N 
ATOM     10  C   UNL     1       8.956  11.504  17.946  0.00  0.00    +0.000 A 
ATOM     11  N   UNL     1       8.158  12.500  17.627  0.00  0.00    +0.000 NA
ATOM     12  N   UNL     1       8.647  13.654  18.197  0.00  0.00    +0.000 NA
ATOM     13  C   UNL     1       9.790  13.360  18.775  0.00  0.00    +0.000 A 
ATOM     14  C   UNL     1      10.765  14.170  19.417  0.00  0.00    +0.000 A 
ATOM     15  C   UNL     1      11.948  13.619  19.789  0.00  0.00    +0.000 A 
ATOM     16  C   UNL     1      12.226  12.210  19.555  0.00  0.00    +0.000 A 
ATOM     17  C   UNL     1      11.283  11.431  18.991  0.00  0.00    +0.000 A 
ATOM     18  N   UNL     1      10.060  12.002  18.618  0.00  0.00    +0.000 N 
ATOM     19  H   UNL     1       8.133  10.187  16.699  0.00  0.00    +0.000 HD
ENDBRANCH   1   8
BRANCH   5  20
ATOM     20  C   UNL     1       4.989   6.093  16.680  0.00  0.00    +0.000 C 
BRANCH  20  21
ATOM     21  C   UNL     1       3.953   5.674  17.697  0.00  0.00    +0.000 A 
ATOM     22  C   UNL     1       3.466   6.579  18.651  0.00  0.00    +0.000 A 
ATOM     23  C   UNL     1       2.483   6.190  19.564  0.00  0.00    +0.000 A 
ATOM     24  C   UNL     1       1.966   4.896  19.529  0.00  0.00    +0.000 A 
ATOM     25  C   UNL     1       2.446   3.967  18.597  0.00  0.00    +0.000 A 
ATOM     26  C   UNL     1       3.462   4.358  17.708  0.00  0.00    +0.000 A 
BRANCH  25  27
ATOM     27  C   UNL     1       1.857   2.581  18.503  0.00  0.00    +0.000 C 
ATOM     28  F   UNL     1       0.498   2.576  18.403  0.00  0.00    +0.000 F 
ATOM     29  F   UNL     1       2.308   1.906  17.406  0.00  0.00    +0.000 F 
ATOM     30  F   UNL     1       2.156   1.799  19.575  0.00  0.00    +0.000 F 
ENDBRANCH  25  27
ENDBRANCH  20  21
ENDBRANCH   5  20
TORSDOF 4
ENDMDL
MODEL 4
REMARK VINA RESULT:      -8.9      2.009      2.505
REMARK  Name = 
REMARK  4 active torsions:
REMARK  status: ('A' for Active; 'I' for Inactive)
REMARK    1  A    between atoms: C_2  and  C_13
REMARK    2  A    between atoms: N_17  and  C_18
REMARK    3  A    between atoms: C_18  and  C_19
REMARK    4  A    between atoms: C_23  and  C_24
REMARK                            x       y       z     vdW  Elec       q    Type
REMARK                         _______ _______ _______ _____ _____    ______ ____
ROOT
ATOM      1  C   UNL     1       2.309   6.427  20.107  0.00  0.00    +0.000 C 
ATOM      2  C   UNL     1       1.199   5.419  20.394  0.00  0.00    +0.000 C 
ATOM      3  C   UNL     1       1.698   4.160  19.735  0.00  0.00    +0.000 C 
ATOM      4  O   UNL     1       1.304   3.036  19.989  0.00  0.00    +0.000 OA
ATOM      5  N   UNL     1       2.623   4.527  18.773  0.00  0.00    +0.000 N 
ATOM      6  C   UNL     1       2.862   5.959  18.763  0.00  0.00    +0.000 C 
ENDROOT
BRANCH   1   8
ATOM      7  O   UNL     1       2.159   8.725  19.362  0.00  0.00    +0.000 OA
ATOM      8  C   UNL     1       1.768   7.856  20.129  0.00  0.00    +0.000 C 
ATOM      9  N   UNL     1       0.818   8.037  21.131  0.00  0.00    +0.000 N 
ATOM     10  C   UNL     1       0.413   9.320  21.455  0.00  0.00    +0.000 A 
ATOM     11  N   UNL     1       0.550   9.835  22.658  0.00  0.00    +0.000 NA
ATOM     12  N   UNL     1       0.003  11.098  22.661  0.00  0.00    +0.000 NA
ATOM     13  C   UNL     1      -0.547  11.297  21.484  0.00  0.00    +0.000 A 
ATOM     14  C   UNL     1      -1.330  12.365  20.972  0.00  0.00    +0.000 A 
ATOM     15  C   UNL     1      -1.916  12.238  19.754  0.00  0.00    +0.000 A 
ATOM     16  C   UNL     1      -1.741  11.030  18.961  0.00  0.00    +0.000 A 
ATOM     17  C   UNL     1      -0.959  10.038  19.425  0.00  0.00    +0.000 A 
ATOM     18  N   UNL     1      -0.348  10.179  20.677  0.00  0.00    +0.000 N 
ATOM     19  H   UNL     1       0.975   7.479  21.963  0.00  0.00    +0.000 HD
ENDBRANCH   1   8
BRANCH   5  20
ATOM     20  C   UNL     1       3.175   3.626  17.768  0.00  0.00    +0.000 C 
BRANCH  20  21
ATOM     21  C   UNL     1       4.557   4.028  17.306  0.00  0.00    +0.000 A 
ATOM     22  C   UNL     1       4.924   3.935  15.956  0.00  0.00    +0.000 A 
ATOM     23  C   UNL     1       6.193   4.341  15.534  0.00  0.00    +0.000 A 
ATOM     24  C   UNL     1       7.106   4.855  16.454  0.00  0.00    +0.000 A 
ATOM     25  C   UNL     1       6.770   4.942  17.811  0.00  0.00    +0.000 A 
ATOM     26  C   UNL     1       5.505   4.496  18.229  0.00  0.00    +0.000 A 
BRANCH  25  27
ATOM     27  C   UNL     1       7.721   5.552  18.812  0.00  0.00    +0.000 C 
ATOM     28  F   UNL     1       7.161   5.750  20.038  0.00  0.00    +0.000 F 
ATOM     29  F   UNL     1       8.811   4.762  19.030  0.00  0.00    +0.000 F 
ATOM     30  F   UNL     1       8.205   6.761  18.421  0.00  0.00    +0.000 F 
ENDBRANCH  25  27
ENDBRANCH  20  21
ENDBRANCH   5  20
TORSDOF 4
ENDMDL
MODEL 5
REMARK VINA RESULT:      -8.8      2.345      3.105
REMARK  Name = 
REMARK  4 active torsions:
REMARK  status: ('A' for Active; 'I' for Inactive)
REMARK    1  A    between atoms: C_2  and  C_13
REMARK    2  A    between atoms: N_17  and  C_18
REMARK    3  A    between atoms: C_18  and  C_19
REMARK    4  A    between atoms: C_23  and  C_24
REMARK                            x       y       z     vdW  Elec       q    Type
REMARK                         _______ _______ _______ _____ _____    ______ ____
ROOT
ATOM      1  C   UNL     1       2.337   7.219  19.830  0.00  0.00    +0.000 C 
ATOM      2  C   UNL     1       1.639   6.069  20.550  0.00  0.00    +0.000 C 
ATOM      3  C   UNL     1       2.174   4.847  19.850  0.00  0.00    +0.000 C 
ATOM      4  O   UNL     1       2.150   3.717  20.303  0.00  0.00    +0.000 OA
ATOM      5  N   UNL     1       2.634   5.243  18.606  0.00  0.00    +0.000 N 
ATOM      6  C   UNL     1       2.524   6.678  18.414  0.00  0.00    +0.000 C 
ENDROOT
BRANCH   1   8
ATOM      7  O   UNL     1       1.131   8.959  21.003  0.00  0.00    +0.000 OA
ATOM      8  C   UNL     1       1.519   8.506  19.936  0.00  0.00    +0.000 C 
ATOM      9  N   UNL     1       1.258   9.060  18.685  0.00  0.00    +0.000 N 
ATOM     10  C   UNL     1       0.327  10.078  18.577  0.00  0.00    +0.000 A 
ATOM     11  N   UNL     1      -0.751   9.989  17.828  0.00  0.00    +0.000 NA
ATOM     12  N   UNL     1      -1.436  11.181  17.899  0.00  0.00    +0.000 NA
ATOM     13  C   UNL     1      -0.712  12.014  18.614  0.00  0.00    +0.000 A 
ATOM     14  C   UNL     1      -0.877  13.391  18.919  0.00  0.00    +0.000 A 
ATOM     15  C   UNL     1       0.120  14.056  19.555  0.00  0.00    +0.000 A 
ATOM     16  C   UNL     1       1.347  13.376  19.942  0.00  0.00    +0.000 A 
ATOM     17  C   UNL     1       1.483  12.060  19.695  0.00  0.00    +0.000 A 
ATOM     18  N   UNL     1       0.447  11.376  19.048  0.00  0.00    +0.000 N 
ATOM     19  H   UNL     1       1.150   8.381  17.940  0.00  0.00    +0.000 HD
ENDBRANCH   1   8
BRANCH   5  20
ATOM     20  C   UNL     1       3.027   4.330  17.539  0.00  0.00    +0.000 C 
BRANCH  20  21
ATOM     21  C   UNL     1       4.494   4.424  17.188  0.00  0.00    +0.000 A 
ATOM     22  C   UNL     1       4.955   4.088  15.908  0.00  0.00    +0.000 A 
ATOM     23  C   UNL     1       6.309   4.210  15.584  0.00  0.00    +0.000 A 
ATOM     24  C   UNL     1       7.216   4.681  16.531  0.00  0.00    +0.000 A 
ATOM     25  C   UNL     1       6.784   5.009  17.823  0.00  0.00    +0.000 A 
ATOM     26  C   UNL     1       5.428   4.845  18.148  0.00  0.00    +0.000 A 
BRANCH  25  27
ATOM     27  C   UNL     1       7.739   5.577  18.843  0.00  0.00    +0.000 C 
ATOM     28  F   UNL     1       7.181   5.738  20.076  0.00  0.00    +0.000 F 
ATOM     29  F   UNL     1       8.824   4.773  19.034  0.00  0.00    +0.000 F 
ATOM     30  F   UNL     1       8.232   6.796  18.494  0.00  0.00    +0.000 F 
ENDBRANCH  25  27
ENDBRANCH  20  21
ENDBRANCH   5  20
TORSDOF 4
ENDMDL
MODEL 6
REMARK VINA RESULT:      -8.7      1.455      1.895
REMARK  Name = 
REMARK  4 active torsions:
REMARK  status: ('A' for Active; 'I' for Inactive)
REMARK    1  A    between atoms: C_2  and  C_13
REMARK    2  A    between atoms: N_17  and  C_18
REMARK    3  A    between atoms: C_18  and  C_19
REMARK    4  A    between atoms: C_23  and  C_24
REMARK                            x       y       z     vdW  Elec       q    Type
REMARK                         _______ _______ _______ _____ _____    ______ ____
ROOT
ATOM      1  C   UNL     1       2.567   5.666  19.116  0.00  0.00    +0.000 C 
ATOM      2  C   UNL     1       1.754   5.077  17.967  0.00  0.00    +0.000 C 
ATOM      3  C   UNL     1       2.587   3.905  17.520  0.00  0.00    +0.000 C 
ATOM      4  O   UNL     1       2.175   2.966  16.864  0.00  0.00    +0.000 OA
ATOM      5  N   UNL     1       3.887   4.129  17.940  0.00  0.00    +0.000 N 
ATOM      6  C   UNL     1       4.007   5.347  18.720  0.00  0.00    +0.000 C 
ENDROOT
BRANCH   1   8
ATOM      7  O   UNL     1       2.758   8.026  18.612  0.00  0.00    +0.000 OA
ATOM      8  C   UNL     1       2.254   7.151  19.302  0.00  0.00    +0.000 C 
ATOM      9  N   UNL     1       1.367   7.368  20.353  0.00  0.00    +0.000 N 
ATOM     10  C   UNL     1       1.172   8.656  20.819  0.00  0.00    +0.000 A 
ATOM     11  N   UNL     1       1.414   9.015  22.061  0.00  0.00    +0.000 NA
ATOM     12  N   UNL     1       1.070  10.339  22.212  0.00  0.00    +0.000 NA
ATOM     13  C   UNL     1       0.531  10.742  21.083  0.00  0.00    +0.000 A 
ATOM     14  C   UNL     1      -0.089  11.964  20.711  0.00  0.00    +0.000 A 
ATOM     15  C   UNL     1      -0.714  12.056  19.510  0.00  0.00    +0.000 A 
ATOM     16  C   UNL     1      -0.746  10.925  18.593  0.00  0.00    +0.000 A 
ATOM     17  C   UNL     1      -0.117   9.782  18.926  0.00  0.00    +0.000 A 
ATOM     18  N   UNL     1       0.536   9.697  20.161  0.00  0.00    +0.000 N 
ATOM     19  H   UNL     1       1.454   6.708  21.118  0.00  0.00    +0.000 HD
ENDBRANCH   1   8
BRANCH   5  20
ATOM     20  C   UNL     1       5.040   3.340  17.522  0.00  0.00    +0.000 C 
BRANCH  20  21
ATOM     21  C   UNL     1       5.764   3.932  16.335  0.00  0.00    +0.000 A 
ATOM     22  C   UNL     1       6.786   4.875  16.506  0.00  0.00    +0.000 A 
ATOM     23  C   UNL     1       7.472   5.390  15.403  0.00  0.00    +0.000 A 
ATOM     24  C   UNL     1       7.152   4.960  14.116  0.00  0.00    +0.000 A 
ATOM     25  C   UNL     1       6.124   4.031  13.915  0.00  0.00    +0.000 A 
ATOM     26  C   UNL     1       5.416   3.549  15.029  0.00  0.00    +0.000 A 
BRANCH  25  27
ATOM     27  C   UNL     1       5.804   3.508  12.537  0.00  0.00    +0.000 C 
ATOM     28  F   UNL     1       4.521   3.755  12.149  0.00  0.00    +0.000 F 
ATOM     29  F   UNL     1       6.593   4.072  11.578  0.00  0.00    +0.000 F 
ATOM     30  F   UNL     1       5.976   2.163  12.422  0.00  0.00    +0.000 F 
ENDBRANCH  25  27
ENDBRANCH  20  21
ENDBRANCH   5  20
TORSDOF 4
ENDMDL
MODEL 7
REMARK VINA RESULT:      -8.6      0.944      1.064
REMARK  Name = 
REMARK  4 active torsions:
REMARK  status: ('A' for Active; 'I' for Inactive)
REMARK    1  A    between atoms: C_2  and  C_13
REMARK    2  A    between atoms: N_17  and  C_18
REMARK    3  A    between atoms: C_18  and  C_19
REMARK    4  A    between atoms: C_23  and  C_24
REMARK                            x       y       z     vdW  Elec       q    Type
REMARK                         _______ _______ _______ _____ _____    ______ ____
ROOT
ATOM      1  C   UNL     1       2.304   7.648  19.451  0.00  0.00    +0.000 C 
ATOM      2  C   UNL     1       1.713   6.781  20.559  0.00  0.00    +0.000 C 
ATOM      3  C   UNL     1       2.382   5.448  20.349  0.00  0.00    +0.000 C 
ATOM      4  O   UNL     1       2.465   4.569  21.187  0.00  0.00    +0.000 OA
ATOM      5  N   UNL     1       2.822   5.401  19.037  0.00  0.00    +0.000 N 
ATOM      6  C   UNL     1       2.571   6.644  18.331  0.00  0.00    +0.000 C 
ENDROOT
BRANCH   1   8
ATOM      7  O   UNL     1       1.410   9.383  18.020  0.00  0.00    +0.000 OA
ATOM      8  C   UNL     1       1.359   8.794  19.091  0.00  0.00    +0.000 C 
ATOM      9  N   UNL     1       0.478   9.087  20.128  0.00  0.00    +0.000 N 
ATOM     10  C   UNL     1      -0.272  10.249  20.071  0.00  0.00    +0.000 A 
ATOM     11  N   UNL     1      -0.207  11.191  20.987  0.00  0.00    +0.000 NA
ATOM     12  N   UNL     1      -1.108  12.180  20.666  0.00  0.00    +0.000 NA
ATOM     13  C   UNL     1      -1.780  11.779  19.609  0.00  0.00    +0.000 A 
ATOM     14  C   UNL     1      -2.886  12.342  18.919  0.00  0.00    +0.000 A 
ATOM     15  C   UNL     1      -3.496  11.626  17.941  0.00  0.00    +0.000 A 
ATOM     16  C   UNL     1      -3.024  10.297  17.580  0.00  0.00    +0.000 A 
ATOM     17  C   UNL     1      -1.945   9.783  18.201  0.00  0.00    +0.000 A 
ATOM     18  N   UNL     1      -1.314  10.531  19.202  0.00  0.00    +0.000 N 
ATOM     19  H   UNL     1       0.858   8.938  21.056  0.00  0.00    +0.000 HD
ENDBRANCH   1   8
BRANCH   5  20
ATOM     20  C   UNL     1       3.324   4.203  18.375  0.00  0.00    +0.000 C 
BRANCH  20  21
ATOM     21  C   UNL     1       4.676   4.404  17.730  0.00  0.00    +0.000 A 
ATOM     22  C   UNL     1       5.818   4.658  18.504  0.00  0.00    +0.000 A 
ATOM     23  C   UNL     1       7.068   4.809  17.901  0.00  0.00    +0.000 A 
ATOM     24  C   UNL     1       7.196   4.697  16.517  0.00  0.00    +0.000 A 
ATOM     25  C   UNL     1       6.070   4.461  15.719  0.00  0.00    +0.000 A 
ATOM     26  C   UNL     1       4.812   4.349  16.334  0.00  0.00    +0.000 A 
BRANCH  25  27
ATOM     27  C   UNL     1       6.197   4.276  14.227  0.00  0.00    +0.000 C 
ATOM     28  F   UNL     1       5.087   4.663  13.537  0.00  0.00    +0.000 F 
ATOM     29  F   UNL     1       7.225   5.005  13.705  0.00  0.00    +0.000 F 
ATOM     30  F   UNL     1       6.430   2.986  13.865  0.00  0.00    +0.000 F 
ENDBRANCH  25  27
ENDBRANCH  20  21
ENDBRANCH   5  20
TORSDOF 4
ENDMDL
MODEL 8
REMARK VINA RESULT:      -8.5      2.169      2.689
REMARK  Name = 
REMARK  4 active torsions:
REMARK  status: ('A' for Active; 'I' for Inactive)
REMARK    1  A    between atoms: C_2  and  C_13
REMARK    2  A    between atoms: N_17  and  C_18
REMARK    3  A    between atoms: C_18  and  C_19
REMARK    4  A    between atoms: C_23  and  C_24
REMARK                            x       y       z     vdW  Elec       q    Type
REMARK                         _______ _______ _______ _____ _____    ______ ____
ROOT
ATOM      1  C   UNL     1       2.262   7.741  19.392  0.00  0.00    +0.000 C 
ATOM      2  C   UNL     1       1.724   6.833  20.494  0.00  0.00    +0.000 C 
ATOM      3  C   UNL     1       2.336   5.496  20.171  0.00  0.00    +0.000 C 
ATOM      4  O   UNL     1       2.451   4.573  20.956  0.00  0.00    +0.000 OA
ATOM      5  N   UNL     1       2.680   5.505  18.830  0.00  0.00    +0.000 N 
ATOM      6  C   UNL     1       2.418   6.789  18.207  0.00  0.00    +0.000 C 
ENDROOT
BRANCH   1   8
ATOM      7  O   UNL     1       1.375   9.618  18.148  0.00  0.00    +0.000 OA
ATOM      8  C   UNL     1       1.328   8.928  19.157  0.00  0.00    +0.000 C 
ATOM      9  N   UNL     1       0.464   9.130  20.230  0.00  0.00    +0.000 N 
ATOM     10  C   UNL     1      -0.269  10.302  20.297  0.00  0.00    +0.000 A 
ATOM     11  N   UNL     1      -0.179  11.149  21.299  0.00  0.00    +0.000 NA
ATOM     12  N   UNL     1      -1.071  12.176  21.088  0.00  0.00    +0.000 NA
ATOM     13  C   UNL     1      -1.761  11.889  20.006  0.00  0.00    +0.000 A 
ATOM     14  C   UNL     1      -2.867  12.531  19.389  0.00  0.00    +0.000 A 
ATOM     15  C   UNL     1      -3.499  11.921  18.355  0.00  0.00    +0.000 A 
ATOM     16  C   UNL     1      -3.050  10.628  17.859  0.00  0.00    +0.000 A 
ATOM     17  C   UNL     1      -1.971  10.043  18.413  0.00  0.00    +0.000 A 
ATOM     18  N   UNL     1      -1.318  10.681  19.473  0.00  0.00    +0.000 N 
ATOM     19  H   UNL     1       0.854   8.887  21.134  0.00  0.00    +0.000 HD
ENDBRANCH   1   8
BRANCH   5  20
ATOM     20  C   UNL     1       3.099   4.330  18.075  0.00  0.00    +0.000 C 
BRANCH  20  21
ATOM     21  C   UNL     1       4.538   4.398  17.620  0.00  0.00    +0.000 A 
ATOM     22  C   UNL     1       4.906   4.021  16.320  0.00  0.00    +0.000 A 
ATOM     23  C   UNL     1       6.235   4.120  15.899  0.00  0.00    +0.000 A 
ATOM     24  C   UNL     1       7.210   4.609  16.767  0.00  0.00    +0.000 A 
ATOM     25  C   UNL     1       6.873   4.976  18.076  0.00  0.00    +0.000 A 
ATOM     26  C   UNL     1       5.541   4.836  18.500  0.00  0.00    +0.000 A 
BRANCH  25  27
ATOM     27  C   UNL     1       7.901   5.564  19.011  0.00  0.00    +0.000 C 
ATOM     28  F   UNL     1       9.006   4.779  19.162  0.00  0.00    +0.000 F 
ATOM     29  F   UNL     1       8.365   6.769  18.571  0.00  0.00    +0.000 F 
ATOM     30  F   UNL     1       7.422   5.780  20.265  0.00  0.00    +0.000 F 
ENDBRANCH  25  27
ENDBRANCH  20  21
ENDBRANCH   5  20
TORSDOF 4
ENDMDL
MODEL 9
REMARK VINA RESULT:      -8.4      2.138      2.923
REMARK  Name = 
REMARK  4 active torsions:
REMARK  status: ('A' for Active; 'I' for Inactive)
REMARK    1  A    between atoms: C_2  and  C_13
REMARK    2  A    between atoms: N_17  and  C_18
REMARK    3  A    between atoms: C_18  and  C_19
REMARK    4  A    between atoms: C_23  and  C_24
REMARK                            x       y       z     vdW  Elec       q    Type
REMARK                         _______ _______ _______ _____ _____    ______ ____
ROOT
ATOM      1  C   UNL     1       2.384   7.170  19.830  0.00  0.00    +0.000 C 
ATOM      2  C   UNL     1       1.926   5.940  20.609  0.00  0.00    +0.000 C 
ATOM      3  C   UNL     1       2.525   4.797  19.832  0.00  0.00    +0.000 C 
ATOM      4  O   UNL     1       2.696   3.672  20.267  0.00  0.00    +0.000 OA
ATOM      5  N   UNL     1       2.780   5.248  18.549  0.00  0.00    +0.000 N 
ATOM      6  C   UNL     1       2.469   6.658  18.394  0.00  0.00    +0.000 C 
ENDROOT
BRANCH   1   8
ATOM      7  O   UNL     1       0.837   8.526  21.105  0.00  0.00    +0.000 OA
ATOM      8  C   UNL     1       1.430   8.343  20.051  0.00  0.00    +0.000 C 
ATOM      9  N   UNL     1       1.307   9.135  18.912  0.00  0.00    +0.000 N 
ATOM     10  C   UNL     1       0.302  10.084  18.853  0.00  0.00    +0.000 A 
ATOM     11  N   UNL     1      -0.633  10.083  17.927  0.00  0.00    +0.000 NA
ATOM     12  N   UNL     1      -1.441  11.181  18.118  0.00  0.00    +0.000 NA
ATOM     13  C   UNL     1      -0.928  11.889  19.100  0.00  0.00    +0.000 A 
ATOM     14  C   UNL     1      -1.282  13.152  19.644  0.00  0.00    +0.000 A 
ATOM     15  C   UNL     1      -0.470  13.732  20.563  0.00  0.00    +0.000 A 
ATOM     16  C   UNL     1       0.749  13.072  21.010  0.00  0.00    +0.000 A 
ATOM     17  C   UNL     1       1.058  11.853  20.530  0.00  0.00    +0.000 A 
ATOM     18  N   UNL     1       0.211  11.255  19.590  0.00  0.00    +0.000 N 
ATOM     19  H   UNL     1       1.387   8.627  18.038  0.00  0.00    +0.000 HD
ENDBRANCH   1   8
BRANCH   5  20
ATOM     20  C   UNL     1       3.156   4.393  17.429  0.00  0.00    +0.000 C 
BRANCH  20  21
ATOM     21  C   UNL     1       4.551   4.666  16.916  0.00  0.00    +0.000 A 
ATOM     22  C   UNL     1       5.095   3.917  15.863  0.00  0.00    +0.000 A 
ATOM     23  C   UNL     1       6.372   4.199  15.374  0.00  0.00    +0.000 A 
ATOM     24  C   UNL     1       7.118   5.242  15.923  0.00  0.00    +0.000 A 
ATOM     25  C   UNL     1       6.605   5.995  16.986  0.00  0.00    +0.000 A 
ATOM     26  C   UNL     1       5.335   5.677  17.495  0.00  0.00    +0.000 A 
BRANCH  25  27
ATOM     27  C   UNL     1       7.370   7.165  17.553  0.00  0.00    +0.000 C 
ATOM     28  F   UNL     1       8.065   6.860  18.686  0.00  0.00    +0.000 F 
ATOM     29  F   UNL     1       8.295   7.647  16.674  0.00  0.00    +0.000 F 
ATOM     30  F   UNL     1       6.573   8.220  17.876  0.00  0.00    +0.000 F 
ENDBRANCH  25  27
ENDBRANCH  20  21
ENDBRANCH   5  20
TORSDOF 4
ENDMDL
