MODEL 1
REMARK VINA RESULT:      -7.0      0.000      0.000
REMARK  Name = 
REMARK  18 active torsions:
REMARK  status: ('A' for Active; 'I' for Inactive)
REMARK    1  A    between atoms: C_1  and  C_2
REMARK    2  A    between atoms: C_2  and  C_3
REMARK    3  A    between atoms: C_2  and  O_4
REMARK    4  A    between atoms: O_4  and  C_5
REMARK    5  A    between atoms: C_5  and  C_7
REMARK    6  A    between atoms: C_7  and  C_8
REMARK    7  A    between atoms: C_8  and  C_9
REMARK    8  A    between atoms: C_9  and  C_10
REMARK    9  A    between atoms: C_11  and  C_12
REMARK   10  A    between atoms: C_12  and  C_13
REMARK   11  A    between atoms: C_13  and  C_14
REMARK   12  A    between atoms: C_15  and  O_16
REMARK   13  A    between atoms: C_19  and  C_20
REMARK   14  A    between atoms: C_21  and  C_22
REMARK   15  A    between atoms: C_22  and  O_23
REMARK   16  A    between atoms: C_22  and  C_24
REMARK   17  A    between atoms: C_24  and  O_25
REMARK   18  A    between atoms: O_25  and  C_26
REMARK                            x       y       z     vdW  Elec       q    Type
REMARK                         _______ _______ _______ _____ _____    ______ ____
ROOT
ATOM      1  C   UNL     1       2.535   5.083  19.658  0.00  0.00    +0.000 C 
ATOM      2  C   UNL     1       1.769   4.371  20.756  0.00  0.00    +0.000 C 
ATOM      3  C   UNL     1       2.606   3.119  20.942  0.00  0.00    +0.000 C 
ATOM      4  O   UNL     1       3.136   2.787  19.643  0.00  0.00    +0.000 OA
ATOM      5  C   UNL     1       2.964   3.919  18.768  0.00  0.00    +0.000 C 
ENDROOT
BRANCH   2   6
ATOM      6  O   UNL     1       0.442   4.049  20.341  0.00  0.00    +0.000 OA
ATOM      7  H   UNL     1       0.492   3.345  19.669  0.00  0.00    +0.000 HD
ENDBRANCH   2   6
BRANCH   5   8
ATOM      8  C   UNL     1       4.218   4.233  18.001  0.00  0.00    +0.000 C 
ATOM      9  C   UNL     1       5.431   4.490  18.519  0.00  0.00    +0.000 C 
BRANCH   9  10
ATOM     10  C   UNL     1       6.664   4.829  17.719  0.00  0.00    +0.000 C 
BRANCH  10  11
ATOM     11  O   UNL     1       7.787   4.129  18.256  0.00  0.00    +0.000 OA
ATOM     12  H   UNL     1       8.463   4.793  18.473  0.00  0.00    +0.000 HD
ENDBRANCH  10  11
BRANCH  10  13
ATOM     13  C   UNL     1       6.459   4.490  16.230  0.00  0.00    +0.000 C 
BRANCH  13  14
ATOM     14  O   UNL     1       7.534   5.016  15.442  0.00  0.00    +0.000 OA
BRANCH  14  15
ATOM     15  C   UNL     1       7.387   4.861  14.089  0.00  0.00    +0.000 A 
ATOM     16  C   UNL     1       8.046   5.629  13.124  0.00  0.00    +0.000 A 
ATOM     17  C   UNL     1       7.839   5.386  11.764  0.00  0.00    +0.000 A 
ATOM     18  C   UNL     1       6.980   4.366  11.363  0.00  0.00    +0.000 A 
ATOM     19  C   UNL     1       6.339   3.588  12.324  0.00  0.00    +0.000 A 
ATOM     20 CL   UNL     1       5.280   2.326  11.821  0.00  0.00    +0.000 Cl
ATOM     21  C   UNL     1       6.543   3.824  13.683  0.00  0.00    +0.000 A 
ENDBRANCH  14  15
ENDBRANCH  13  14
ENDBRANCH  10  13
ENDBRANCH   9  10
ENDBRANCH   5   8
BRANCH   1  22
ATOM     22  C   UNL     1       1.758   6.171  18.913  0.00  0.00    +0.000 C 
BRANCH  22  23
ATOM     23  C   UNL     1       2.638   7.361  18.527  0.00  0.00    +0.000 C 
BRANCH  23  25
ATOM     24  C   UNL     1       1.263   9.465  18.210  0.00  0.00    +0.000 C 
ATOM     25  C   UNL     1       1.890   8.387  17.720  0.00  0.00    +0.000 C 
BRANCH  24  26
ATOM     26  C   UNL     1       1.175   9.818  19.665  0.00  0.00    +0.000 C 
BRANCH  26  27
ATOM     27  C   UNL     1      -0.249   9.800  20.200  0.00  0.00    +0.000 C 
BRANCH  27  28
ATOM     28  C   UNL     1      -0.372   9.128  21.571  0.00  0.00    +0.000 C 
BRANCH  28  29
ATOM     29  C   UNL     1      -0.129  10.145  22.655  0.00  0.00    +0.000 C 
ATOM     30  O   UNL     1       0.239   9.873  23.793  0.00  0.00    +0.000 OA
BRANCH  29  31
ATOM     31  O   UNL     1      -0.357  11.401  22.191  0.00  0.00    +0.000 OA
BRANCH  31  33
ATOM     32  C   UNL     1      -0.829  13.713  22.722  0.00  0.00    +0.000 C 
ATOM     33  C   UNL     1      -1.070  12.254  23.104  0.00  0.00    +0.000 C 
ATOM     34  C   UNL     1      -2.549  11.909  23.015  0.00  0.00    +0.000 C 
ENDBRANCH  31  33
ENDBRANCH  29  31
ENDBRANCH  28  29
ENDBRANCH  27  28
ENDBRANCH  26  27
ENDBRANCH  24  26
ENDBRANCH  23  25
ENDBRANCH  22  23
ENDBRANCH   1  22
TORSDOF 16
ENDMDL
MODEL 2
REMARK VINA RESULT:      -6.8      3.230      9.703
REMARK  Name = 
REMARK  18 active torsions:
REMARK  status: ('A' for Active; 'I' for Inactive)
REMARK    1  A    between atoms: C_1  and  C_2
REMARK    2  A    between atoms: C_2  and  C_3
REMARK    3  A    between atoms: C_2  and  O_4
REMARK    4  A    between atoms: O_4  and  C_5
REMARK    5  A    between atoms: C_5  and  C_7
REMARK    6  A    between atoms: C_7  and  C_8
REMARK    7  A    between atoms: C_8  and  C_9
REMARK    8  A    between atoms: C_9  and  C_10
REMARK    9  A    between atoms: C_11  and  C_12
REMARK   10  A    between atoms: C_12  and  C_13
REMARK   11  A    between atoms: C_13  and  C_14
REMARK   12  A    between atoms: C_15  and  O_16
REMARK   13  A    between atoms: C_19  and  C_20
REMARK   14  A    between atoms: C_21  and  C_22
REMARK   15  A    between atoms: C_22  and  O_23
REMARK   16  A    between atoms: C_22  and  C_24
REMARK   17  A    between atoms: C_24  and  O_25
REMARK   18  A    between atoms: O_25  and  C_26
REMARK                            x       y       z     vdW  Elec       q    Type
REMARK                         _______ _______ _______ _____ _____    ______ ____
ROOT
ATOM      1  C   UNL     1       3.812   3.658  18.684  0.00  0.00    +0.000 C 
ATOM      2  C   UNL     1       3.519   2.245  18.220  0.00  0.00    +0.000 C 
ATOM      3  C   UNL     1       2.056   2.103  18.595  0.00  0.00    +0.000 C 
ATOM      4  O   UNL     1       1.867   2.877  19.797  0.00  0.00    +0.000 OA
ATOM      5  C   UNL     1       3.008   3.737  19.980  0.00  0.00    +0.000 C 
ENDROOT
BRANCH   2   6
ATOM      6  O   UNL     1       4.326   1.292  18.913  0.00  0.00    +0.000 OA
ATOM      7  H   UNL     1       3.917   0.413  18.815  0.00  0.00    +0.000 HD
ENDBRANCH   2   6
BRANCH   5   8
ATOM      8  C   UNL     1       2.603   5.148  20.304  0.00  0.00    +0.000 C 
ATOM      9  C   UNL     1       1.771   5.925  19.592  0.00  0.00    +0.000 C 
BRANCH   9  10
ATOM     10  C   UNL     1       1.407   7.350  19.932  0.00  0.00    +0.000 C 
BRANCH  10  11
ATOM     11  O   UNL     1       2.093   7.745  21.120  0.00  0.00    +0.000 OA
ATOM     12  H   UNL     1       1.633   8.525  21.472  0.00  0.00    +0.000 HD
ENDBRANCH  10  11
BRANCH  10  13
ATOM     13  C   UNL     1       1.741   8.292  18.760  0.00  0.00    +0.000 C 
BRANCH  13  14
ATOM     14  O   UNL     1       1.831   9.648  19.216  0.00  0.00    +0.000 OA
BRANCH  14  15
ATOM     15  C   UNL     1       0.772  10.445  18.869  0.00  0.00    +0.000 A 
ATOM     16  C   UNL     1       0.764  11.840  18.961  0.00  0.00    +0.000 A 
ATOM     17  C   UNL     1      -0.363  12.568  18.570  0.00  0.00    +0.000 A 
ATOM     18  C   UNL     1      -1.482  11.904  18.076  0.00  0.00    +0.000 A 
ATOM     19  C   UNL     1      -1.466  10.516  17.966  0.00  0.00    +0.000 A 
ATOM     20 CL   UNL     1      -2.853   9.700  17.351  0.00  0.00    +0.000 Cl
ATOM     21  C   UNL     1      -0.344   9.784  18.351  0.00  0.00    +0.000 A 
ENDBRANCH  14  15
ENDBRANCH  13  14
ENDBRANCH  10  13
ENDBRANCH   9  10
ENDBRANCH   5   8
BRANCH   1  22
ATOM     22  C   UNL     1       5.293   4.001  18.859  0.00  0.00    +0.000 C 
BRANCH  22  23
ATOM     23  C   UNL     1       5.552   5.508  18.855  0.00  0.00    +0.000 C 
BRANCH  23  25
ATOM     24  C   UNL     1       5.556   6.196  16.416  0.00  0.00    +0.000 C 
ATOM     25  C   UNL     1       4.991   6.180  17.631  0.00  0.00    +0.000 C 
BRANCH  24  26
ATOM     26  C   UNL     1       6.873   5.565  16.075  0.00  0.00    +0.000 C 
BRANCH  26  27
ATOM     27  C   UNL     1       6.737   4.150  15.534  0.00  0.00    +0.000 C 
BRANCH  27  28
ATOM     28  C   UNL     1       5.980   4.080  14.204  0.00  0.00    +0.000 C 
BRANCH  28  29
ATOM     29  C   UNL     1       6.895   4.490  13.081  0.00  0.00    +0.000 C 
ATOM     30  O   UNL     1       7.668   5.442  13.126  0.00  0.00    +0.000 OA
BRANCH  29  31
ATOM     31  O   UNL     1       6.757   3.650  12.022  0.00  0.00    +0.000 OA
BRANCH  31  33
ATOM     32  C   UNL     1       4.431   3.429  11.400  0.00  0.00    +0.000 C 
ATOM     33  C   UNL     1       5.619   2.773  12.100  0.00  0.00    +0.000 C 
ATOM     34  C   UNL     1       5.988   1.461  11.424  0.00  0.00    +0.000 C 
ENDBRANCH  31  33
ENDBRANCH  29  31
ENDBRANCH  28  29
ENDBRANCH  27  28
ENDBRANCH  26  27
ENDBRANCH  24  26
ENDBRANCH  23  25
ENDBRANCH  22  23
ENDBRANCH   1  22
TORSDOF 16
ENDMDL
MODEL 3
REMARK VINA RESULT:      -6.7      4.876      8.470
REMARK  Name = 
REMARK  18 active torsions:
REMARK  status: ('A' for Active; 'I' for Inactive)
REMARK    1  A    between atoms: C_1  and  C_2
REMARK    2  A    between atoms: C_2  and  C_3
REMARK    3  A    between atoms: C_2  and  O_4
REMARK    4  A    between atoms: O_4  and  C_5
REMARK    5  A    between atoms: C_5  and  C_7
REMARK    6  A    between atoms: C_7  and  C_8
REMARK    7  A    between atoms: C_8  and  C_9
REMARK    8  A    between atoms: C_9  and  C_10
REMARK    9  A    between atoms: C_11  and  C_12
REMARK   10  A    between atoms: C_12  and  C_13
REMARK   11  A    between atoms: C_13  and  C_14
REMARK   12  A    between atoms: C_15  and  O_16
REMARK   13  A    between atoms: C_19  and  C_20
REMARK   14  A    between atoms: C_21  and  C_22
REMARK   15  A    between atoms: C_22  and  O_23
REMARK   16  A    between atoms: C_22  and  C_24
REMARK   17  A    between atoms: C_24  and  O_25
REMARK   18  A    between atoms: O_25  and  C_26
REMARK                            x       y       z     vdW  Elec       q    Type
REMARK                         _______ _______ _______ _____ _____    ______ ____
ROOT
ATOM      1  C   UNL     1       5.320   5.408  15.825  0.00  0.00    +0.000 C 
ATOM      2  C   UNL     1       6.083   5.212  14.529  0.00  0.00    +0.000 C 
ATOM      3  C   UNL     1       5.994   3.708  14.353  0.00  0.00    +0.000 C 
ATOM      4  O   UNL     1       6.008   3.141  15.679  0.00  0.00    +0.000 OA
ATOM      5  C   UNL     1       5.758   4.190  16.635  0.00  0.00    +0.000 C 
ENDROOT
BRANCH   2   6
ATOM      6  O   UNL     1       7.439   5.639  14.654  0.00  0.00    +0.000 OA
ATOM      7  H   UNL     1       7.907   5.012  15.235  0.00  0.00    +0.000 HD
ENDBRANCH   2   6
BRANCH   5   8
ATOM      8  C   UNL     1       4.723   3.790  17.650  0.00  0.00    +0.000 C 
ATOM      9  C   UNL     1       3.971   2.678  17.631  0.00  0.00    +0.000 C 
BRANCH   9  10
ATOM     10  C   UNL     1       2.920   2.322  18.654  0.00  0.00    +0.000 C 
BRANCH  10  11
ATOM     11  O   UNL     1       3.475   2.436  19.965  0.00  0.00    +0.000 OA
ATOM     12  H   UNL     1       3.539   3.384  20.168  0.00  0.00    +0.000 HD
ENDBRANCH  10  11
BRANCH  10  13
ATOM     13  C   UNL     1       1.679   3.220  18.496  0.00  0.00    +0.000 C 
BRANCH  13  14
ATOM     14  O   UNL     1       1.526   4.071  19.639  0.00  0.00    +0.000 OA
BRANCH  14  15
ATOM     15  C   UNL     1       1.760   5.400  19.404  0.00  0.00    +0.000 A 
ATOM     16  C   UNL     1       2.143   5.934  18.170  0.00  0.00    +0.000 A 
ATOM     17  C   UNL     1       2.346   7.309  18.026  0.00  0.00    +0.000 A 
ATOM     18  C   UNL     1       2.157   8.157  19.114  0.00  0.00    +0.000 A 
ATOM     19  C   UNL     1       1.756   7.628  20.338  0.00  0.00    +0.000 A 
ATOM     20 CL   UNL     1       1.521   8.682  21.679  0.00  0.00    +0.000 Cl
ATOM     21  C   UNL     1       1.549   6.257  20.488  0.00  0.00    +0.000 A 
ENDBRANCH  14  15
ENDBRANCH  13  14
ENDBRANCH  10  13
ENDBRANCH   9  10
ENDBRANCH   5   8
BRANCH   1  22
ATOM     22  C   UNL     1       5.565   6.740  16.539  0.00  0.00    +0.000 C 
BRANCH  22  23
ATOM     23  C   UNL     1       5.963   6.556  18.004  0.00  0.00    +0.000 C 
BRANCH  23  25
ATOM     24  C   UNL     1       8.307   7.495  18.217  0.00  0.00    +0.000 C 
ATOM     25  C   UNL     1       7.454   6.462  18.183  0.00  0.00    +0.000 C 
BRANCH  24  26
ATOM     26  C   UNL     1       7.917   8.934  18.051  0.00  0.00    +0.000 C 
BRANCH  26  27
ATOM     27  C   UNL     1       8.899   9.899  18.700  0.00  0.00    +0.000 C 
BRANCH  27  28
ATOM     28  C   UNL     1       9.167  11.149  17.858  0.00  0.00    +0.000 C 
BRANCH  28  29
ATOM     29  C   UNL     1      10.555  11.660  18.140  0.00  0.00    +0.000 C 
ATOM     30  O   UNL     1      11.187  12.402  17.396  0.00  0.00    +0.000 OA
BRANCH  29  31
ATOM     31  O   UNL     1      10.998  11.199  19.338  0.00  0.00    +0.000 OA
BRANCH  31  33
ATOM     32  C   UNL     1      11.337  13.573  19.649  0.00  0.00    +0.000 C 
ATOM     33  C   UNL     1      11.190  12.218  20.336  0.00  0.00    +0.000 C 
ATOM     34  C   UNL     1       9.980  12.208  21.258  0.00  0.00    +0.000 C 
ENDBRANCH  31  33
ENDBRANCH  29  31
ENDBRANCH  28  29
ENDBRANCH  27  28
ENDBRANCH  26  27
ENDBRANCH  24  26
ENDBRANCH  23  25
ENDBRANCH  22  23
ENDBRANCH   1  22
TORSDOF 16
ENDMDL
MODEL 4
REMARK VINA RESULT:      -6.7      5.974      9.483
REMARK  Name = 
REMARK  18 active torsions:
REMARK  status: ('A' for Active; 'I' for Inactive)
REMARK    1  A    between atoms: C_1  and  C_2
REMARK    2  A    between atoms: C_2  and  C_3
REMARK    3  A    between atoms: C_2  and  O_4
REMARK    4  A    between atoms: O_4  and  C_5
REMARK    5  A    between atoms: C_5  and  C_7
REMARK    6  A    between atoms: C_7  and  C_8
REMARK    7  A    between atoms: C_8  and  C_9
REMARK    8  A    between atoms: C_9  and  C_10
REMARK    9  A    between atoms: C_11  and  C_12
REMARK   10  A    between atoms: C_12  and  C_13
REMARK   11  A    between atoms: C_13  and  C_14
REMARK   12  A    between atoms: C_15  and  O_16
REMARK   13  A    between atoms: C_19  and  C_20
REMARK   14  A    between atoms: C_21  and  C_22
REMARK   15  A    between atoms: C_22  and  O_23
REMARK   16  A    between atoms: C_22  and  C_24
REMARK   17  A    between atoms: C_24  and  O_25
REMARK   18  A    between atoms: O_25  and  C_26
REMARK                            x       y       z     vdW  Elec       q    Type
REMARK                         _______ _______ _______ _____ _____    ______ ____
ROOT
ATOM      1  C   UNL     1       6.224   5.788  17.372  0.00  0.00    +0.000 C 
ATOM      2  C   UNL     1       6.994   5.172  16.220  0.00  0.00    +0.000 C 
ATOM      3  C   UNL     1       5.865   4.712  15.317  0.00  0.00    +0.000 C 
ATOM      4  O   UNL     1       4.781   4.325  16.185  0.00  0.00    +0.000 OA
ATOM      5  C   UNL     1       5.043   4.831  17.509  0.00  0.00    +0.000 C 
ENDROOT
BRANCH   2   6
ATOM      6  O   UNL     1       7.790   4.070  16.657  0.00  0.00    +0.000 OA
ATOM      7  H   UNL     1       7.730   3.364  15.988  0.00  0.00    +0.000 HD
ENDBRANCH   2   6
BRANCH   5   8
ATOM      8  C   UNL     1       3.838   5.508  18.101  0.00  0.00    +0.000 C 
ATOM      9  C   UNL     1       3.503   6.803  17.971  0.00  0.00    +0.000 C 
BRANCH   9  10
ATOM     10  C   UNL     1       2.299   7.456  18.603  0.00  0.00    +0.000 C 
BRANCH  10  11
ATOM     11  O   UNL     1       2.404   7.373  20.025  0.00  0.00    +0.000 OA
ATOM     12  H   UNL     1       2.100   6.487  20.284  0.00  0.00    +0.000 HD
ENDBRANCH  10  11
BRANCH  10  13
ATOM     13  C   UNL     1       2.169   8.920  18.141  0.00  0.00    +0.000 C 
BRANCH  13  14
ATOM     14  O   UNL     1       0.902   9.136  17.507  0.00  0.00    +0.000 OA
BRANCH  14  15
ATOM     15  C   UNL     1       0.085  10.035  18.141  0.00  0.00    +0.000 A 
ATOM     16  C   UNL     1      -1.299  10.118  17.958  0.00  0.00    +0.000 A 
ATOM     17  C   UNL     1      -2.050  11.063  18.661  0.00  0.00    +0.000 A 
ATOM     18  C   UNL     1      -1.422  11.922  19.559  0.00  0.00    +0.000 A 
ATOM     19  C   UNL     1      -0.047  11.826  19.756  0.00  0.00    +0.000 A 
ATOM     20 CL   UNL     1       0.725  12.889  20.870  0.00  0.00    +0.000 Cl
ATOM     21  C   UNL     1       0.709  10.883  19.059  0.00  0.00    +0.000 A 
ENDBRANCH  14  15
ENDBRANCH  13  14
ENDBRANCH  10  13
ENDBRANCH   9  10
ENDBRANCH   5   8
BRANCH   1  22
ATOM     22  C   UNL     1       7.016   5.975  18.669  0.00  0.00    +0.000 C 
BRANCH  22  23
ATOM     23  C   UNL     1       8.104   7.042  18.544  0.00  0.00    +0.000 C 
BRANCH  23  25
ATOM     24  C   UNL     1       8.104   9.441  17.729  0.00  0.00    +0.000 C 
ATOM     25  C   UNL     1       7.699   8.167  17.632  0.00  0.00    +0.000 C 
BRANCH  24  26
ATOM     26  C   UNL     1       9.017   9.971  18.795  0.00  0.00    +0.000 C 
BRANCH  26  27
ATOM     27  C   UNL     1      10.022  10.985  18.271  0.00  0.00    +0.000 C 
BRANCH  27  28
ATOM     28  C   UNL     1       9.485  12.419  18.255  0.00  0.00    +0.000 C 
BRANCH  28  29
ATOM     29  C   UNL     1      10.612  13.377  17.976  0.00  0.00    +0.000 C 
ATOM     30  O   UNL     1      11.026  13.656  16.855  0.00  0.00    +0.000 OA
BRANCH  29  31
ATOM     31  O   UNL     1      11.091  13.901  19.133  0.00  0.00    +0.000 OA
BRANCH  31  33
ATOM     32  C   UNL     1      11.073  15.644  20.811  0.00  0.00    +0.000 C 
ATOM     33  C   UNL     1      10.303  14.977  19.673  0.00  0.00    +0.000 C 
ATOM     34  C   UNL     1      10.026  15.968  18.553  0.00  0.00    +0.000 C 
ENDBRANCH  31  33
ENDBRANCH  29  31
ENDBRANCH  28  29
ENDBRANCH  27  28
ENDBRANCH  26  27
ENDBRANCH  24  26
ENDBRANCH  23  25
ENDBRANCH  22  23
ENDBRANCH   1  22
TORSDOF 16
ENDMDL
MODEL 5
REMARK VINA RESULT:      -6.7      3.670      9.151
REMARK  Name = 
REMARK  18 active torsions:
REMARK  status: ('A' for Active; 'I' for Inactive)
REMARK    1  A    between atoms: C_1  and  C_2
REMARK    2  A    between atoms: C_2  and  C_3
REMARK    3  A    between atoms: C_2  and  O_4
REMARK    4  A    between atoms: O_4  and  C_5
REMARK    5  A    between atoms: C_5  and  C_7
REMARK    6  A    between atoms: C_7  and  C_8
REMARK    7  A    between atoms: C_8  and  C_9
REMARK    8  A    between atoms: C_9  and  C_10
REMARK    9  A    between atoms: C_11  and  C_12
REMARK   10  A    between atoms: C_12  and  C_13
REMARK   11  A    between atoms: C_13  and  C_14
REMARK   12  A    between atoms: C_15  and  O_16
REMARK   13  A    between atoms: C_19  and  C_20
REMARK   14  A    between atoms: C_21  and  C_22
REMARK   15  A    between atoms: C_22  and  O_23
REMARK   16  A    between atoms: C_22  and  C_24
REMARK   17  A    between atoms: C_24  and  O_25
REMARK   18  A    between atoms: O_25  and  C_26
REMARK                            x       y       z     vdW  Elec       q    Type
REMARK                         _______ _______ _______ _____ _____    ______ ____
ROOT
ATOM      1  C   UNL     1       0.986   3.988  20.082  0.00  0.00    +0.000 C 
ATOM      2  C   UNL     1       1.244   2.821  21.015  0.00  0.00    +0.000 C 
ATOM      3  C   UNL     1       2.123   3.469  22.069  0.00  0.00    +0.000 C 
ATOM      4  O   UNL     1       2.910   4.465  21.387  0.00  0.00    +0.000 OA
ATOM      5  C   UNL     1       2.338   4.699  20.085  0.00  0.00    +0.000 C 
ENDROOT
BRANCH   2   6
ATOM      6  O   UNL     1       1.932   1.763  20.348  0.00  0.00    +0.000 OA
ATOM      7  H   UNL     1       2.869   1.789  20.613  0.00  0.00    +0.000 HD
ENDBRANCH   2   6
BRANCH   5   8
ATOM      8  C   UNL     1       2.200   6.165  19.786  0.00  0.00    +0.000 C 
ATOM      9  C   UNL     1       2.727   6.821  18.739  0.00  0.00    +0.000 C 
BRANCH   9  10
ATOM     10  C   UNL     1       2.592   8.302  18.483  0.00  0.00    +0.000 C 
BRANCH  10  11
ATOM     11  O   UNL     1       2.420   8.530  17.084  0.00  0.00    +0.000 OA
ATOM     12  H   UNL     1       1.505   8.286  16.863  0.00  0.00    +0.000 HD
ENDBRANCH  10  11
BRANCH  10  13
ATOM     13  C   UNL     1       1.417   8.889  19.289  0.00  0.00    +0.000 C 
BRANCH  13  14
ATOM     14  O   UNL     1       1.335  10.307  19.096  0.00  0.00    +0.000 OA
BRANCH  14  15
ATOM     15  C   UNL     1       0.173  10.883  19.539  0.00  0.00    +0.000 A 
ATOM     16  C   UNL     1      -0.828  11.395  18.708  0.00  0.00    +0.000 A 
ATOM     17  C   UNL     1      -1.986  11.953  19.255  0.00  0.00    +0.000 A 
ATOM     18  C   UNL     1      -2.152  11.992  20.637  0.00  0.00    +0.000 A 
ATOM     19  C   UNL     1      -1.164  11.464  21.464  0.00  0.00    +0.000 A 
ATOM     20 CL   UNL     1      -1.377  11.513  23.173  0.00  0.00    +0.000 Cl
ATOM     21  C   UNL     1      -0.007  10.903  20.924  0.00  0.00    +0.000 A 
ENDBRANCH  14  15
ENDBRANCH  13  14
ENDBRANCH  10  13
ENDBRANCH   9  10
ENDBRANCH   5   8
BRANCH   1  22
ATOM     22  C   UNL     1       0.493   3.615  18.682  0.00  0.00    +0.000 C 
BRANCH  22  23
ATOM     23  C   UNL     1       1.545   3.867  17.601  0.00  0.00    +0.000 C 
BRANCH  23  25
ATOM     24  C   UNL     1       3.771   2.715  17.231  0.00  0.00    +0.000 C 
ATOM     25  C   UNL     1       2.441   2.677  17.389  0.00  0.00    +0.000 C 
BRANCH  24  26
ATOM     26  C   UNL     1       4.597   3.967  17.209  0.00  0.00    +0.000 C 
BRANCH  26  27
ATOM     27  C   UNL     1       4.977   4.408  15.804  0.00  0.00    +0.000 C 
BRANCH  27  28
ATOM     28  C   UNL     1       5.751   5.729  15.772  0.00  0.00    +0.000 C 
BRANCH  28  29
ATOM     29  C   UNL     1       7.206   5.469  16.058  0.00  0.00    +0.000 C 
ATOM     30  O   UNL     1       7.749   4.373  15.958  0.00  0.00    +0.000 OA
BRANCH  29  31
ATOM     31  O   UNL     1       7.833   6.617  16.423  0.00  0.00    +0.000 OA
BRANCH  31  33
ATOM     32  C   UNL     1       7.839   6.300  18.821  0.00  0.00    +0.000 C 
ATOM     33  C   UNL     1       7.372   7.181  17.664  0.00  0.00    +0.000 C 
ATOM     34  C   UNL     1       7.946   8.584  17.786  0.00  0.00    +0.000 C 
ENDBRANCH  31  33
ENDBRANCH  29  31
ENDBRANCH  28  29
ENDBRANCH  27  28
ENDBRANCH  26  27
ENDBRANCH  24  26
ENDBRANCH  23  25
ENDBRANCH  22  23
ENDBRANCH   1  22
TORSDOF 16
ENDMDL
MODEL 6
REMARK VINA RESULT:      -6.7      3.986      8.820
REMARK  Name = 
REMARK  18 active torsions:
REMARK  status: ('A' for Active; 'I' for Inactive)
REMARK    1  A    between atoms: C_1  and  C_2
REMARK    2  A    between atoms: C_2  and  C_3
REMARK    3  A    between atoms: C_2  and  O_4
REMARK    4  A    between atoms: O_4  and  C_5
REMARK    5  A    between atoms: C_5  and  C_7
REMARK    6  A    between atoms: C_7  and  C_8
REMARK    7  A    between atoms: C_8  and  C_9
REMARK    8  A    between atoms: C_9  and  C_10
REMARK    9  A    between atoms: C_11  and  C_12
REMARK   10  A    between atoms: C_12  and  C_13
REMARK   11  A    between atoms: C_13  and  C_14
REMARK   12  A    between atoms: C_15  and  O_16
REMARK   13  A    between atoms: C_19  and  C_20
REMARK   14  A    between atoms: C_21  and  C_22
REMARK   15  A    between atoms: C_22  and  O_23
REMARK   16  A    between atoms: C_22  and  C_24
REMARK   17  A    between atoms: C_24  and  O_25
REMARK   18  A    between atoms: O_25  and  C_26
REMARK                            x       y       z     vdW  Elec       q    Type
REMARK                         _______ _______ _______ _____ _____    ______ ____
ROOT
ATOM      1  C   UNL     1       1.898   4.223  18.533  0.00  0.00    +0.000 C 
ATOM      2  C   UNL     1       1.677   3.146  19.577  0.00  0.00    +0.000 C 
ATOM      3  C   UNL     1       1.463   3.979  20.827  0.00  0.00    +0.000 C 
ATOM      4  O   UNL     1       2.291   5.150  20.682  0.00  0.00    +0.000 OA
ATOM      5  C   UNL     1       2.718   5.251  19.310  0.00  0.00    +0.000 C 
ENDROOT
BRANCH   2   6
ATOM      6  O   UNL     1       2.823   2.304  19.705  0.00  0.00    +0.000 OA
ATOM      7  H   UNL     1       3.008   2.179  20.654  0.00  0.00    +0.000 HD
ENDBRANCH   2   6
BRANCH   5   8
ATOM      8  C   UNL     1       2.538   6.640  18.765  0.00  0.00    +0.000 C 
ATOM      9  C   UNL     1       2.003   7.690  19.409  0.00  0.00    +0.000 C 
BRANCH   9  10
ATOM     10  C   UNL     1       1.811   9.066  18.821  0.00  0.00    +0.000 C 
BRANCH  10  11
ATOM     11  O   UNL     1       1.715   8.966  17.400  0.00  0.00    +0.000 OA
ATOM     12  H   UNL     1       0.788   8.766  17.188  0.00  0.00    +0.000 HD
ENDBRANCH  10  11
BRANCH  10  13
ATOM     13  C   UNL     1       0.563   9.744  19.416  0.00  0.00    +0.000 C 
BRANCH  13  14
ATOM     14  O   UNL     1       0.235  10.929  18.679  0.00  0.00    +0.000 OA
BRANCH  14  15
ATOM     15  C   UNL     1      -1.095  11.079  18.390  0.00  0.00    +0.000 A 
ATOM     16  C   UNL     1      -2.017  11.740  19.207  0.00  0.00    +0.000 A 
ATOM     17  C   UNL     1      -3.355  11.852  18.818  0.00  0.00    +0.000 A 
ATOM     18  C   UNL     1      -3.773  11.312  17.605  0.00  0.00    +0.000 A 
ATOM     19  C   UNL     1      -2.851  10.671  16.782  0.00  0.00    +0.000 A 
ATOM     20 CL   UNL     1      -3.374  10.008  15.281  0.00  0.00    +0.000 Cl
ATOM     21  C   UNL     1      -1.514  10.559  17.163  0.00  0.00    +0.000 A 
ENDBRANCH  14  15
ENDBRANCH  13  14
ENDBRANCH  10  13
ENDBRANCH   9  10
ENDBRANCH   5   8
BRANCH   1  22
ATOM     22  C   UNL     1       2.566   3.758  17.237  0.00  0.00    +0.000 C 
BRANCH  22  23
ATOM     23  C   UNL     1       4.089   3.884  17.283  0.00  0.00    +0.000 C 
BRANCH  23  25
ATOM     24  C   UNL     1       5.458   5.634  16.064  0.00  0.00    +0.000 C 
ATOM     25  C   UNL     1       4.642   4.570  16.063  0.00  0.00    +0.000 C 
BRANCH  24  26
ATOM     26  C   UNL     1       5.938   6.346  17.294  0.00  0.00    +0.000 C 
BRANCH  26  27
ATOM     27  C   UNL     1       7.427   6.166  17.546  0.00  0.00    +0.000 C 
BRANCH  27  28
ATOM     28  C   UNL     1       7.977   7.106  18.622  0.00  0.00    +0.000 C 
BRANCH  28  29
ATOM     29  C   UNL     1       8.200   8.473  18.032  0.00  0.00    +0.000 C 
ATOM     30  O   UNL     1       7.526   8.959  17.129  0.00  0.00    +0.000 OA
BRANCH  29  31
ATOM     31  O   UNL     1       9.236   9.097  18.650  0.00  0.00    +0.000 OA
BRANCH  31  33
ATOM     32  C   UNL     1       9.228  10.725  20.438  0.00  0.00    +0.000 C 
ATOM     33  C   UNL     1       9.006  10.486  18.947  0.00  0.00    +0.000 C 
ATOM     34  C   UNL     1       9.975  11.313  18.115  0.00  0.00    +0.000 C 
ENDBRANCH  31  33
ENDBRANCH  29  31
ENDBRANCH  28  29
ENDBRANCH  27  28
ENDBRANCH  26  27
ENDBRANCH  24  26
ENDBRANCH  23  25
ENDBRANCH  22  23
ENDBRANCH   1  22
TORSDOF 16
ENDMDL
MODEL 7
REMARK VINA RESULT:      -6.7      3.201     10.619
REMARK  Name = 
REMARK  18 active torsions:
REMARK  status: ('A' for Active; 'I' for Inactive)
REMARK    1  A    between atoms: C_1  and  C_2
REMARK    2  A    between atoms: C_2  and  C_3
REMARK    3  A    between atoms: C_2  and  O_4
REMARK    4  A    between atoms: O_4  and  C_5
REMARK    5  A    between atoms: C_5  and  C_7
REMARK    6  A    between atoms: C_7  and  C_8
REMARK    7  A    between atoms: C_8  and  C_9
REMARK    8  A    between atoms: C_9  and  C_10
REMARK    9  A    between atoms: C_11  and  C_12
REMARK   10  A    between atoms: C_12  and  C_13
REMARK   11  A    between atoms: C_13  and  C_14
REMARK   12  A    between atoms: C_15  and  O_16
REMARK   13  A    between atoms: C_19  and  C_20
REMARK   14  A    between atoms: C_21  and  C_22
REMARK   15  A    between atoms: C_22  and  O_23
REMARK   16  A    between atoms: C_22  and  C_24
REMARK   17  A    between atoms: C_24  and  O_25
REMARK   18  A    between atoms: O_25  and  C_26
REMARK                            x       y       z     vdW  Elec       q    Type
REMARK                         _______ _______ _______ _____ _____    ______ ____
ROOT
ATOM      1  C   UNL     1       2.931   3.574  19.001  0.00  0.00    +0.000 C 
ATOM      2  C   UNL     1       2.136   2.399  18.465  0.00  0.00    +0.000 C 
ATOM      3  C   UNL     1       0.712   2.891  18.651  0.00  0.00    +0.000 C 
ATOM      4  O   UNL     1       0.715   3.705  19.841  0.00  0.00    +0.000 OA
ATOM      5  C   UNL     1       2.078   4.015  20.189  0.00  0.00    +0.000 C 
ENDROOT
BRANCH   2   6
ATOM      6  O   UNL     1       2.378   1.216  19.226  0.00  0.00    +0.000 OA
ATOM      7  H   UNL     1       3.134   0.745  18.832  0.00  0.00    +0.000 HD
ENDBRANCH   2   6
BRANCH   5   8
ATOM      8  C   UNL     1       2.262   5.475  20.499  0.00  0.00    +0.000 C 
ATOM      9  C   UNL     1       1.291   6.393  20.630  0.00  0.00    +0.000 C 
BRANCH   9  10
ATOM     10  C   UNL     1       1.513   7.858  20.915  0.00  0.00    +0.000 C 
BRANCH  10  11
ATOM     11  O   UNL     1       1.696   8.559  19.684  0.00  0.00    +0.000 OA
ATOM     12  H   UNL     1       0.830   8.600  19.245  0.00  0.00    +0.000 HD
ENDBRANCH  10  11
BRANCH  10  13
ATOM     13  C   UNL     1       0.334   8.443  21.716  0.00  0.00    +0.000 C 
BRANCH  13  14
ATOM     14  O   UNL     1       0.696   9.703  22.294  0.00  0.00    +0.000 OA
BRANCH  14  15
ATOM     15  C   UNL     1      -0.236  10.696  22.141  0.00  0.00    +0.000 A 
ATOM     16  C   UNL     1      -1.236  10.998  23.071  0.00  0.00    +0.000 A 
ATOM     17  C   UNL     1      -2.135  12.041  22.830  0.00  0.00    +0.000 A 
ATOM     18  C   UNL     1      -2.030  12.792  21.662  0.00  0.00    +0.000 A 
ATOM     19  C   UNL     1      -1.021  12.505  20.746  0.00  0.00    +0.000 A 
ATOM     20 CL   UNL     1      -0.894  13.440  19.306  0.00  0.00    +0.000 Cl
ATOM     21  C   UNL     1      -0.120  11.468  20.982  0.00  0.00    +0.000 A 
ENDBRANCH  14  15
ENDBRANCH  13  14
ENDBRANCH  10  13
ENDBRANCH   9  10
ENDBRANCH   5   8
BRANCH   1  22
ATOM     22  C   UNL     1       4.385   3.271  19.369  0.00  0.00    +0.000 C 
BRANCH  22  23
ATOM     23  C   UNL     1       5.383   3.980  18.452  0.00  0.00    +0.000 C 
BRANCH  23  25
ATOM     24  C   UNL     1       4.938   6.163  17.246  0.00  0.00    +0.000 C 
ATOM     25  C   UNL     1       5.131   5.461  18.371  0.00  0.00    +0.000 C 
BRANCH  24  26
ATOM     26  C   UNL     1       4.970   5.589  15.860  0.00  0.00    +0.000 C 
BRANCH  26  27
ATOM     27  C   UNL     1       6.318   5.755  15.175  0.00  0.00    +0.000 C 
BRANCH  27  28
ATOM     28  C   UNL     1       6.758   4.513  14.394  0.00  0.00    +0.000 C 
BRANCH  28  29
ATOM     29  C   UNL     1       7.507   4.934  13.158  0.00  0.00    +0.000 C 
ATOM     30  O   UNL     1       8.517   5.632  13.160  0.00  0.00    +0.000 OA
BRANCH  29  31
ATOM     31  O   UNL     1       6.922   4.419  12.046  0.00  0.00    +0.000 OA
BRANCH  31  33
ATOM     32  C   UNL     1       4.807   3.267  11.818  0.00  0.00    +0.000 C 
ATOM     33  C   UNL     1       6.269   3.153  12.247  0.00  0.00    +0.000 C 
ATOM     34  C   UNL     1       6.997   2.110  11.413  0.00  0.00    +0.000 C 
ENDBRANCH  31  33
ENDBRANCH  29  31
ENDBRANCH  28  29
ENDBRANCH  27  28
ENDBRANCH  26  27
ENDBRANCH  24  26
ENDBRANCH  23  25
ENDBRANCH  22  23
ENDBRANCH   1  22
TORSDOF 16
ENDMDL
MODEL 8
REMARK VINA RESULT:      -6.6      3.420      9.855
REMARK  Name = 
REMARK  18 active torsions:
REMARK  status: ('A' for Active; 'I' for Inactive)
REMARK    1  A    between atoms: C_1  and  C_2
REMARK    2  A    between atoms: C_2  and  C_3
REMARK    3  A    between atoms: C_2  and  O_4
REMARK    4  A    between atoms: O_4  and  C_5
REMARK    5  A    between atoms: C_5  and  C_7
REMARK    6  A    between atoms: C_7  and  C_8
REMARK    7  A    between atoms: C_8  and  C_9
REMARK    8  A    between atoms: C_9  and  C_10
REMARK    9  A    between atoms: C_11  and  C_12
REMARK   10  A    between atoms: C_12  and  C_13
REMARK   11  A    between atoms: C_13  and  C_14
REMARK   12  A    between atoms: C_15  and  O_16
REMARK   13  A    between atoms: C_19  and  C_20
REMARK   14  A    between atoms: C_21  and  C_22
REMARK   15  A    between atoms: C_22  and  O_23
REMARK   16  A    between atoms: C_22  and  C_24
REMARK   17  A    between atoms: C_24  and  O_25
REMARK   18  A    between atoms: O_25  and  C_26
REMARK                            x       y       z     vdW  Elec       q    Type
REMARK                         _______ _______ _______ _____ _____    ______ ____
ROOT
ATOM      1  C   UNL     1       2.716   5.419  18.480  0.00  0.00    +0.000 C 
ATOM      2  C   UNL     1       2.304   3.984  18.211  0.00  0.00    +0.000 C 
ATOM      3  C   UNL     1       1.100   3.842  19.123  0.00  0.00    +0.000 C 
ATOM      4  O   UNL     1       1.365   4.661  20.279  0.00  0.00    +0.000 OA
ATOM      5  C   UNL     1       2.467   5.541  19.982  0.00  0.00    +0.000 C 
ENDROOT
BRANCH   2   6
ATOM      6  O   UNL     1       3.338   3.070  18.572  0.00  0.00    +0.000 OA
ATOM      7  H   UNL     1       4.109   3.234  18.000  0.00  0.00    +0.000 HD
ENDBRANCH   2   6
BRANCH   5   8
ATOM      8  C   UNL     1       2.181   6.959  20.389  0.00  0.00    +0.000 C 
ATOM      9  C   UNL     1       1.088   7.402  21.032  0.00  0.00    +0.000 C 
BRANCH   9  10
ATOM     10  C   UNL     1       0.820   8.840  21.402  0.00  0.00    +0.000 C 
BRANCH  10  11
ATOM     11  O   UNL     1       1.739   9.250  22.415  0.00  0.00    +0.000 OA
ATOM     12  H   UNL     1       2.631   9.019  22.105  0.00  0.00    +0.000 HD
ENDBRANCH  10  11
BRANCH  10  13
ATOM     13  C   UNL     1       0.919   9.749  20.162  0.00  0.00    +0.000 C 
BRANCH  13  14
ATOM     14  O   UNL     1      -0.099  10.758  20.197  0.00  0.00    +0.000 OA
BRANCH  14  15
ATOM     15  C   UNL     1      -1.019  10.683  19.184  0.00  0.00    +0.000 A 
ATOM     16  C   UNL     1      -0.854   9.939  18.012  0.00  0.00    +0.000 A 
ATOM     17  C   UNL     1      -1.858   9.916  17.041  0.00  0.00    +0.000 A 
ATOM     18  C   UNL     1      -3.036  10.629  17.243  0.00  0.00    +0.000 A 
ATOM     19  C   UNL     1      -3.209  11.355  18.419  0.00  0.00    +0.000 A 
ATOM     20 CL   UNL     1      -4.670  12.232  18.664  0.00  0.00    +0.000 Cl
ATOM     21  C   UNL     1      -2.212  11.379  19.393  0.00  0.00    +0.000 A 
ENDBRANCH  14  15
ENDBRANCH  13  14
ENDBRANCH  10  13
ENDBRANCH   9  10
ENDBRANCH   5   8
BRANCH   1  22
ATOM     22  C   UNL     1       4.142   5.784  18.062  0.00  0.00    +0.000 C 
BRANCH  22  23
ATOM     23  C   UNL     1       5.069   5.994  19.260  0.00  0.00    +0.000 C 
BRANCH  23  25
ATOM     24  C   UNL     1       7.358   5.317  18.410  0.00  0.00    +0.000 C 
ATOM     25  C   UNL     1       6.291   5.119  19.197  0.00  0.00    +0.000 C 
BRANCH  24  26
ATOM     26  C   UNL     1       7.501   6.440  17.426  0.00  0.00    +0.000 C 
BRANCH  26  27
ATOM     27  C   UNL     1       7.075   6.060  16.017  0.00  0.00    +0.000 C 
BRANCH  27  28
ATOM     28  C   UNL     1       7.187   4.559  15.734  0.00  0.00    +0.000 C 
BRANCH  28  29
ATOM     29  C   UNL     1       5.864   4.037  15.242  0.00  0.00    +0.000 C 
ATOM     30  O   UNL     1       5.106   3.331  15.900  0.00  0.00    +0.000 OA
BRANCH  29  31
ATOM     31  O   UNL     1       5.619   4.472  13.978  0.00  0.00    +0.000 OA
BRANCH  31  33
ATOM     32  C   UNL     1       4.848   3.197  12.074  0.00  0.00    +0.000 C 
ATOM     33  C   UNL     1       6.047   3.569  12.943  0.00  0.00    +0.000 C 
ATOM     34  C   UNL     1       7.116   4.271  12.118  0.00  0.00    +0.000 C 
ENDBRANCH  31  33
ENDBRANCH  29  31
ENDBRANCH  28  29
ENDBRANCH  27  28
ENDBRANCH  26  27
ENDBRANCH  24  26
ENDBRANCH  23  25
ENDBRANCH  22  23
ENDBRANCH   1  22
TORSDOF 16
ENDMDL
MODEL 9
REMARK VINA RESULT:      -6.6      3.412     10.120
REMARK  Name = 
REMARK  18 active torsions:
REMARK  status: ('A' for Active; 'I' for Inactive)
REMARK    1  A    between atoms: C_1  and  C_2
REMARK    2  A    between atoms: C_2  and  C_3
REMARK    3  A    between atoms: C_2  and  O_4
REMARK    4  A    between atoms: O_4  and  C_5
REMARK    5  A    between atoms: C_5  and  C_7
REMARK    6  A    between atoms: C_7  and  C_8
REMARK    7  A    between atoms: C_8  and  C_9
REMARK    8  A    between atoms: C_9  and  C_10
REMARK    9  A    between atoms: C_11  and  C_12
REMARK   10  A    between atoms: C_12  and  C_13
REMARK   11  A    between atoms: C_13  and  C_14
REMARK   12  A    between atoms: C_15  and  O_16
REMARK   13  A    between atoms: C_19  and  C_20
REMARK   14  A    between atoms: C_21  and  C_22
REMARK   15  A    between atoms: C_22  and  O_23
REMARK   16  A    between atoms: C_22  and  C_24
REMARK   17  A    between atoms: C_24  and  O_25
REMARK   18  A    between atoms: O_25  and  C_26
REMARK                            x       y       z     vdW  Elec       q    Type
REMARK                         _______ _______ _______ _____ _____    ______ ____
ROOT
ATOM      1  C   UNL     1       3.694   3.939  18.834  0.00  0.00    +0.000 C 
ATOM      2  C   UNL     1       3.579   2.692  17.978  0.00  0.00    +0.000 C 
ATOM      3  C   UNL     1       2.073   2.528  17.887  0.00  0.00    +0.000 C 
ATOM      4  O   UNL     1       1.537   2.999  19.140  0.00  0.00    +0.000 OA
ATOM      5  C   UNL     1       2.559   3.740  19.835  0.00  0.00    +0.000 C 
ENDROOT
BRANCH   2   6
ATOM      6  O   UNL     1       4.185   1.568  18.615  0.00  0.00    +0.000 OA
ATOM      7  H   UNL     1       4.471   0.941  17.926  0.00  0.00    +0.000 HD
ENDBRANCH   2   6
BRANCH   5   8
ATOM      8  C   UNL     1       2.042   5.048  20.366  0.00  0.00    +0.000 C 
ATOM      9  C   UNL     1       1.935   6.201  19.685  0.00  0.00    +0.000 C 
BRANCH   9  10
ATOM     10  C   UNL     1       1.437   7.505  20.259  0.00  0.00    +0.000 C 
BRANCH  10  11
ATOM     11  O   UNL     1       1.982   7.689  21.566  0.00  0.00    +0.000 OA
ATOM     12  H   UNL     1       1.245   7.924  22.154  0.00  0.00    +0.000 HD
ENDBRANCH  10  11
BRANCH  10  13
ATOM     13  C   UNL     1       1.804   8.682  19.334  0.00  0.00    +0.000 C 
BRANCH  13  14
ATOM     14  O   UNL     1       0.653   9.497  19.078  0.00  0.00    +0.000 OA
BRANCH  14  15
ATOM     15  C   UNL     1       0.572  10.636  19.835  0.00  0.00    +0.000 A 
ATOM     16  C   UNL     1       1.224  11.837  19.537  0.00  0.00    +0.000 A 
ATOM     17  C   UNL     1       1.069  12.950  20.367  0.00  0.00    +0.000 A 
ATOM     18  C   UNL     1       0.253  12.870  21.492  0.00  0.00    +0.000 A 
ATOM     19  C   UNL     1      -0.411  11.680  21.778  0.00  0.00    +0.000 A 
ATOM     20 CL   UNL     1      -1.422  11.588  23.170  0.00  0.00    +0.000 Cl
ATOM     21  C   UNL     1      -0.263  10.566  20.952  0.00  0.00    +0.000 A 
ENDBRANCH  14  15
ENDBRANCH  13  14
ENDBRANCH  10  13
ENDBRANCH   9  10
ENDBRANCH   5   8
BRANCH   1  22
ATOM     22  C   UNL     1       5.058   4.165  19.490  0.00  0.00    +0.000 C 
BRANCH  22  23
ATOM     23  C   UNL     1       5.686   5.502  19.094  0.00  0.00    +0.000 C 
BRANCH  23  25
ATOM     24  C   UNL     1       4.834   6.451  16.905  0.00  0.00    +0.000 C 
ATOM     25  C   UNL     1       4.769   6.333  18.238  0.00  0.00    +0.000 C 
BRANCH  24  26
ATOM     26  C   UNL     1       5.862   5.791  16.035  0.00  0.00    +0.000 C 
BRANCH  26  27
ATOM     27  C   UNL     1       5.302   4.641  15.212  0.00  0.00    +0.000 C 
BRANCH  27  28
ATOM     28  C   UNL     1       6.383   3.806  14.521  0.00  0.00    +0.000 C 
BRANCH  28  29
ATOM     29  C   UNL     1       7.027   4.618  13.429  0.00  0.00    +0.000 C 
ATOM     30  O   UNL     1       7.905   5.456  13.610  0.00  0.00    +0.000 OA
BRANCH  29  31
ATOM     31  O   UNL     1       6.514   4.280  12.218  0.00  0.00    +0.000 OA
BRANCH  31  33
ATOM     32  C   UNL     1       4.690   2.898  11.435  0.00  0.00    +0.000 C 
ATOM     33  C   UNL     1       6.053   2.920  12.122  0.00  0.00    +0.000 C 
ATOM     34  C   UNL     1       7.077   2.131  11.320  0.00  0.00    +0.000 C 
ENDBRANCH  31  33
ENDBRANCH  29  31
ENDBRANCH  28  29
ENDBRANCH  27  28
ENDBRANCH  26  27
ENDBRANCH  24  26
ENDBRANCH  23  25
ENDBRANCH  22  23
ENDBRANCH   1  22
TORSDOF 16
ENDMDL
