MODEL 1
REMARK VINA RESULT:      -7.5      0.000      0.000
REMARK  Name = 
REMARK  5 active torsions:
REMARK  status: ('A' for Active; 'I' for Inactive)
REMARK    1  A    between atoms: C_1  and  O_2
REMARK    2  A    between atoms: O_2  and  C_3
REMARK    3  A    between atoms: C_6  and  C_7
REMARK    4  A    between atoms: C_9  and  C_10
REMARK    5  A    between atoms: C_15  and  C_16
REMARK                            x       y       z     vdW  Elec       q    Type
REMARK                         _______ _______ _______ _____ _____    ______ ____
ROOT
ATOM      1  C   UNL     1       3.986   6.320  17.749  0.00  0.00    +0.000 A 
ATOM      2  C   UNL     1       3.691   7.672  17.433  0.00  0.00    +0.000 A 
ATOM      3  C   UNL     1       2.681   8.400  18.063  0.00  0.00    +0.000 A 
ATOM      4  C   UNL     1       1.903   7.792  19.028  0.00  0.00    +0.000 A 
ATOM      5  C   UNL     1       2.123   6.451  19.342  0.00  0.00    +0.000 A 
ATOM      6  C   UNL     1       3.141   5.682  18.722  0.00  0.00    +0.000 A 
ENDROOT
BRANCH   1  13
ATOM      7  C   UNL     1       6.377   5.335  17.675  0.00  0.00    +0.000 A 
ATOM      8  C   UNL     1       7.380   4.627  16.990  0.00  0.00    +0.000 A 
ATOM      9  C   UNL     1       7.185   4.214  15.671  0.00  0.00    +0.000 A 
ATOM     10  C   UNL     1       6.023   4.571  15.003  0.00  0.00    +0.000 A 
ATOM     11  C   UNL     1       5.698   4.002  13.655  0.00  0.00    +0.000 C 
ATOM     12  C   UNL     1       5.070   5.365  15.668  0.00  0.00    +0.000 A 
ATOM     13  C   UNL     1       5.150   5.674  17.038  0.00  0.00    +0.000 A 
BRANCH   7  15
ATOM     14  C   UNL     1       7.906   5.728  19.442  0.00  0.00    +0.000 C 
ATOM     15  O   UNL     1       6.547   5.653  19.006  0.00  0.00    +0.000 OA
ENDBRANCH   7  15
ENDBRANCH   1  13
BRANCH   6  16
ATOM     16  C   UNL     1       3.195   4.193  19.069  0.00  0.00    +0.000 C 
ATOM     17  C   UNL     1       2.975   3.146  17.965  0.00  0.00    +0.000 C 
ATOM     18  C   UNL     1       2.866   1.873  18.781  0.00  0.00    +0.000 C 
ATOM     19  N   UNL     1       1.939   2.269  19.835  0.00  0.00    +0.000 NA
ATOM     20  C   UNL     1       2.263   3.667  20.178  0.00  0.00    +0.000 C 
ATOM     21  H   UNL     1       2.027   1.670  20.650  0.00  0.00    +0.000 HD
ENDBRANCH   6  16
TORSDOF 3
ENDMDL
MODEL 2
REMARK VINA RESULT:      -7.4      1.627      3.495
REMARK  Name = 
REMARK  5 active torsions:
REMARK  status: ('A' for Active; 'I' for Inactive)
REMARK    1  A    between atoms: C_1  and  O_2
REMARK    2  A    between atoms: O_2  and  C_3
REMARK    3  A    between atoms: C_6  and  C_7
REMARK    4  A    between atoms: C_9  and  C_10
REMARK    5  A    between atoms: C_15  and  C_16
REMARK                            x       y       z     vdW  Elec       q    Type
REMARK                         _______ _______ _______ _____ _____    ______ ____
ROOT
ATOM      1  C   UNL     1       3.783   3.608  18.188  0.00  0.00    +0.000 A 
ATOM      2  C   UNL     1       3.650   2.200  18.318  0.00  0.00    +0.000 A 
ATOM      3  C   UNL     1       2.605   1.593  19.016  0.00  0.00    +0.000 A 
ATOM      4  C   UNL     1       1.654   2.378  19.637  0.00  0.00    +0.000 A 
ATOM      5  C   UNL     1       1.766   3.767  19.577  0.00  0.00    +0.000 A 
ATOM      6  C   UNL     1       2.814   4.416  18.877  0.00  0.00    +0.000 A 
ENDROOT
BRANCH   1  13
ATOM      7  C   UNL     1       6.119   4.676  17.891  0.00  0.00    +0.000 A 
ATOM      8  C   UNL     1       7.198   5.031  17.062  0.00  0.00    +0.000 A 
ATOM      9  C   UNL     1       7.132   4.828  15.683  0.00  0.00    +0.000 A 
ATOM     10  C   UNL     1       5.965   4.342  15.114  0.00  0.00    +0.000 A 
ATOM     11  C   UNL     1       5.913   3.944  13.669  0.00  0.00    +0.000 C 
ATOM     12  C   UNL     1       4.858   4.083  15.944  0.00  0.00    +0.000 A 
ATOM     13  C   UNL     1       4.925   4.126  17.348  0.00  0.00    +0.000 A 
BRANCH   7  15
ATOM     14  C   UNL     1       7.378   5.529  19.709  0.00  0.00    +0.000 C 
ATOM     15  O   UNL     1       6.237   4.795  19.260  0.00  0.00    +0.000 OA
ENDBRANCH   7  15
ENDBRANCH   1  13
BRANCH   6  16
ATOM     16  C   UNL     1       2.889   5.940  18.994  0.00  0.00    +0.000 C 
ATOM     17  C   UNL     1       1.997   6.671  20.009  0.00  0.00    +0.000 C 
ATOM     18  C   UNL     1       2.213   8.116  19.608  0.00  0.00    +0.000 C 
ATOM     19  N   UNL     1       2.055   8.056  18.160  0.00  0.00    +0.000 NA
ATOM     20  C   UNL     1       2.659   6.782  17.723  0.00  0.00    +0.000 C 
ATOM     21  H   UNL     1       2.507   8.841  17.704  0.00  0.00    +0.000 HD
ENDBRANCH   6  16
TORSDOF 3
ENDMDL
MODEL 3
REMARK VINA RESULT:      -7.2      0.783      1.031
REMARK  Name = 
REMARK  5 active torsions:
REMARK  status: ('A' for Active; 'I' for Inactive)
REMARK    1  A    between atoms: C_1  and  O_2
REMARK    2  A    between atoms: O_2  and  C_3
REMARK    3  A    between atoms: C_6  and  C_7
REMARK    4  A    between atoms: C_9  and  C_10
REMARK    5  A    between atoms: C_15  and  C_16
REMARK                            x       y       z     vdW  Elec       q    Type
REMARK                         _______ _______ _______ _____ _____    ______ ____
ROOT
ATOM      1  C   UNL     1       3.964   6.319  17.659  0.00  0.00    +0.000 A 
ATOM      2  C   UNL     1       3.684   7.691  17.425  0.00  0.00    +0.000 A 
ATOM      3  C   UNL     1       2.659   8.382  18.073  0.00  0.00    +0.000 A 
ATOM      4  C   UNL     1       1.850   7.717  18.972  0.00  0.00    +0.000 A 
ATOM      5  C   UNL     1       2.056   6.357  19.202  0.00  0.00    +0.000 A 
ATOM      6  C   UNL     1       3.088   5.624  18.563  0.00  0.00    +0.000 A 
ENDROOT
BRANCH   1  13
ATOM      7  C   UNL     1       6.412   5.493  17.549  0.00  0.00    +0.000 A 
ATOM      8  C   UNL     1       7.438   4.817  16.866  0.00  0.00    +0.000 A 
ATOM      9  C   UNL     1       7.229   4.322  15.578  0.00  0.00    +0.000 A 
ATOM     10  C   UNL     1       6.024   4.564  14.935  0.00  0.00    +0.000 A 
ATOM     11  C   UNL     1       5.695   3.903  13.630  0.00  0.00    +0.000 C 
ATOM     12  C   UNL     1       5.042   5.328  15.592  0.00  0.00    +0.000 A 
ATOM     13  C   UNL     1       5.145   5.715  16.940  0.00  0.00    +0.000 A 
BRANCH   7  15
ATOM     14  C   UNL     1       7.906   5.635  19.383  0.00  0.00    +0.000 C 
ATOM     15  O   UNL     1       6.603   5.892  18.855  0.00  0.00    +0.000 OA
ENDBRANCH   7  15
ENDBRANCH   1  13
BRANCH   6  16
ATOM     16  C   UNL     1       3.125   4.115  18.810  0.00  0.00    +0.000 C 
ATOM     17  C   UNL     1       4.311   3.496  19.567  0.00  0.00    +0.000 C 
ATOM     18  C   UNL     1       4.058   2.017  19.358  0.00  0.00    +0.000 C 
ATOM     19  N   UNL     1       3.781   1.957  17.927  0.00  0.00    +0.000 NA
ATOM     20  C   UNL     1       3.013   3.173  17.595  0.00  0.00    +0.000 C 
ATOM     21  H   UNL     1       3.254   1.124  17.686  0.00  0.00    +0.000 HD
ENDBRANCH   6  16
TORSDOF 3
ENDMDL
MODEL 4
REMARK VINA RESULT:      -7.2      1.202      1.543
REMARK  Name = 
REMARK  5 active torsions:
REMARK  status: ('A' for Active; 'I' for Inactive)
REMARK    1  A    between atoms: C_1  and  O_2
REMARK    2  A    between atoms: O_2  and  C_3
REMARK    3  A    between atoms: C_6  and  C_7
REMARK    4  A    between atoms: C_9  and  C_10
REMARK    5  A    between atoms: C_15  and  C_16
REMARK                            x       y       z     vdW  Elec       q    Type
REMARK                         _______ _______ _______ _____ _____    ______ ____
ROOT
ATOM      1  C   UNL     1       3.757   5.575  18.712  0.00  0.00    +0.000 A 
ATOM      2  C   UNL     1       3.328   6.925  18.805  0.00  0.00    +0.000 A 
ATOM      3  C   UNL     1       2.292   7.340  19.642  0.00  0.00    +0.000 A 
ATOM      4  C   UNL     1       1.620   6.409  20.409  0.00  0.00    +0.000 A 
ATOM      5  C   UNL     1       1.974   5.063  20.318  0.00  0.00    +0.000 A 
ATOM      6  C   UNL     1       3.022   4.607  19.480  0.00  0.00    +0.000 A 
ENDROOT
BRANCH   1  13
ATOM      7  C   UNL     1       6.268   5.122  18.291  0.00  0.00    +0.000 A 
ATOM      8  C   UNL     1       7.305   4.726  17.427  0.00  0.00    +0.000 A 
ATOM      9  C   UNL     1       7.046   4.449  16.084  0.00  0.00    +0.000 A 
ATOM     10  C   UNL     1       5.769   4.639  15.577  0.00  0.00    +0.000 A 
ATOM     11  C   UNL     1       5.409   4.188  14.193  0.00  0.00    +0.000 C 
ATOM     12  C   UNL     1       4.762   5.131  16.429  0.00  0.00    +0.000 A 
ATOM     13  C   UNL     1       4.936   5.277  17.817  0.00  0.00    +0.000 A 
BRANCH   7  15
ATOM     14  C   UNL     1       7.886   5.580  19.960  0.00  0.00    +0.000 C 
ATOM     15  O   UNL     1       6.524   5.299  19.635  0.00  0.00    +0.000 OA
ENDBRANCH   7  15
ENDBRANCH   1  13
BRANCH   6  16
ATOM     16  C   UNL     1       3.225   3.093  19.381  0.00  0.00    +0.000 C 
ATOM     17  C   UNL     1       4.515   2.460  19.924  0.00  0.00    +0.000 C 
ATOM     18  C   UNL     1       4.395   1.043  19.400  0.00  0.00    +0.000 C 
ATOM     19  N   UNL     1       4.027   1.267  18.007  0.00  0.00    +0.000 NA
ATOM     20  C   UNL     1       3.122   2.433  17.992  0.00  0.00    +0.000 C 
ATOM     21  H   UNL     1       3.569   0.453  17.610  0.00  0.00    +0.000 HD
ENDBRANCH   6  16
TORSDOF 3
ENDMDL
MODEL 5
REMARK VINA RESULT:      -7.1      2.375      5.709
REMARK  Name = 
REMARK  5 active torsions:
REMARK  status: ('A' for Active; 'I' for Inactive)
REMARK    1  A    between atoms: C_1  and  O_2
REMARK    2  A    between atoms: O_2  and  C_3
REMARK    3  A    between atoms: C_6  and  C_7
REMARK    4  A    between atoms: C_9  and  C_10
REMARK    5  A    between atoms: C_15  and  C_16
REMARK                            x       y       z     vdW  Elec       q    Type
REMARK                         _______ _______ _______ _____ _____    ______ ____
ROOT
ATOM      1  C   UNL     1       4.963   5.022  16.766  0.00  0.00    +0.000 A 
ATOM      2  C   UNL     1       4.563   4.161  15.710  0.00  0.00    +0.000 A 
ATOM      3  C   UNL     1       5.400   3.819  14.646  0.00  0.00    +0.000 A 
ATOM      4  C   UNL     1       6.673   4.347  14.584  0.00  0.00    +0.000 A 
ATOM      5  C   UNL     1       7.097   5.234  15.574  0.00  0.00    +0.000 A 
ATOM      6  C   UNL     1       6.274   5.602  16.668  0.00  0.00    +0.000 A 
ENDROOT
BRANCH   1  13
ATOM      7  C   UNL     1       3.763   4.332  18.951  0.00  0.00    +0.000 A 
ATOM      8  C   UNL     1       2.924   4.655  20.032  0.00  0.00    +0.000 A 
ATOM      9  C   UNL     1       2.301   5.902  20.101  0.00  0.00    +0.000 A 
ATOM     10  C   UNL     1       2.450   6.804  19.059  0.00  0.00    +0.000 A 
ATOM     11  C   UNL     1       1.947   8.212  19.174  0.00  0.00    +0.000 C 
ATOM     12  C   UNL     1       3.212   6.430  17.936  0.00  0.00    +0.000 A 
ATOM     13  C   UNL     1       3.980   5.253  17.888  0.00  0.00    +0.000 A 
BRANCH   7  15
ATOM     14  C   UNL     1       3.623   1.969  18.843  0.00  0.00    +0.000 C 
ATOM     15  O   UNL     1       4.445   3.133  18.945  0.00  0.00    +0.000 OA
ENDBRANCH   7  15
ENDBRANCH   1  13
BRANCH   6  16
ATOM     16  C   UNL     1       6.815   6.677  17.614  0.00  0.00    +0.000 C 
ATOM     17  C   UNL     1       7.662   7.829  17.052  0.00  0.00    +0.000 C 
ATOM     18  C   UNL     1       8.169   8.474  18.327  0.00  0.00    +0.000 C 
ATOM     19  N   UNL     1       8.626   7.317  19.089  0.00  0.00    +0.000 NA
ATOM     20  C   UNL     1       7.668   6.228  18.816  0.00  0.00    +0.000 C 
ATOM     21  H   UNL     1       8.664   7.520  20.083  0.00  0.00    +0.000 HD
ENDBRANCH   6  16
TORSDOF 3
ENDMDL
MODEL 6
REMARK VINA RESULT:      -7.1      1.037      1.151
REMARK  Name = 
REMARK  5 active torsions:
REMARK  status: ('A' for Active; 'I' for Inactive)
REMARK    1  A    between atoms: C_1  and  O_2
REMARK    2  A    between atoms: O_2  and  C_3
REMARK    3  A    between atoms: C_6  and  C_7
REMARK    4  A    between atoms: C_9  and  C_10
REMARK    5  A    between atoms: C_15  and  C_16
REMARK                            x       y       z     vdW  Elec       q    Type
REMARK                         _______ _______ _______ _____ _____    ______ ____
ROOT
ATOM      1  C   UNL     1       4.106   6.305  17.440  0.00  0.00    +0.000 A 
ATOM      2  C   UNL     1       3.652   7.646  17.333  0.00  0.00    +0.000 A 
ATOM      3  C   UNL     1       2.664   8.185  18.157  0.00  0.00    +0.000 A 
ATOM      4  C   UNL     1       2.067   7.391  19.115  0.00  0.00    +0.000 A 
ATOM      5  C   UNL     1       2.445   6.053  19.229  0.00  0.00    +0.000 A 
ATOM      6  C   UNL     1       3.446   5.473  18.410  0.00  0.00    +0.000 A 
ENDROOT
BRANCH   1  13
ATOM      7  C   UNL     1       6.607   6.011  16.854  0.00  0.00    +0.000 A 
ATOM      8  C   UNL     1       7.607   5.480  16.019  0.00  0.00    +0.000 A 
ATOM      9  C   UNL     1       7.269   4.781  14.860  0.00  0.00    +0.000 A 
ATOM     10  C   UNL     1       5.938   4.671  14.487  0.00  0.00    +0.000 A 
ATOM     11  C   UNL     1       5.522   3.782  13.353  0.00  0.00    +0.000 C 
ATOM     12  C   UNL     1       4.954   5.291  15.278  0.00  0.00    +0.000 A 
ATOM     13  C   UNL     1       5.229   5.873  16.529  0.00  0.00    +0.000 A 
BRANCH   7  15
ATOM     14  C   UNL     1       7.800   5.840  18.894  0.00  0.00    +0.000 C 
ATOM     15  O   UNL     1       6.955   6.617  18.043  0.00  0.00    +0.000 OA
ENDBRANCH   7  15
ENDBRANCH   1  13
BRANCH   6  16
ATOM     16  C   UNL     1       3.678   3.968  18.555  0.00  0.00    +0.000 C 
ATOM     17  C   UNL     1       2.617   3.097  19.247  0.00  0.00    +0.000 C 
ATOM     18  C   UNL     1       3.356   1.782  19.385  0.00  0.00    +0.000 C 
ATOM     19  N   UNL     1       4.644   2.213  19.917  0.00  0.00    +0.000 NA
ATOM     20  C   UNL     1       4.967   3.491  19.253  0.00  0.00    +0.000 C 
ATOM     21  H   UNL     1       5.368   1.524  19.738  0.00  0.00    +0.000 HD
ENDBRANCH   6  16
TORSDOF 3
ENDMDL
MODEL 7
REMARK VINA RESULT:      -7.0      2.452      5.824
REMARK  Name = 
REMARK  5 active torsions:
REMARK  status: ('A' for Active; 'I' for Inactive)
REMARK    1  A    between atoms: C_1  and  O_2
REMARK    2  A    between atoms: O_2  and  C_3
REMARK    3  A    between atoms: C_6  and  C_7
REMARK    4  A    between atoms: C_9  and  C_10
REMARK    5  A    between atoms: C_15  and  C_16
REMARK                            x       y       z     vdW  Elec       q    Type
REMARK                         _______ _______ _______ _____ _____    ______ ____
ROOT
ATOM      1  C   UNL     1       4.963   4.926  17.079  0.00  0.00    +0.000 A 
ATOM      2  C   UNL     1       4.519   4.029  16.071  0.00  0.00    +0.000 A 
ATOM      3  C   UNL     1       5.284   3.701  14.951  0.00  0.00    +0.000 A 
ATOM      4  C   UNL     1       6.526   4.278  14.781  0.00  0.00    +0.000 A 
ATOM      5  C   UNL     1       6.989   5.199  15.720  0.00  0.00    +0.000 A 
ATOM      6  C   UNL     1       6.238   5.555  16.869  0.00  0.00    +0.000 A 
ENDROOT
BRANCH   1  13
ATOM      7  C   UNL     1       3.295   6.319  18.480  0.00  0.00    +0.000 A 
ATOM      8  C   UNL     1       2.381   6.411  19.545  0.00  0.00    +0.000 A 
ATOM      9  C   UNL     1       2.184   5.334  20.409  0.00  0.00    +0.000 A 
ATOM     10  C   UNL     1       2.951   4.187  20.265  0.00  0.00    +0.000 A 
ATOM     11  C   UNL     1       2.649   2.949  21.055  0.00  0.00    +0.000 C 
ATOM     12  C   UNL     1       3.932   4.145  19.257  0.00  0.00    +0.000 A 
ATOM     13  C   UNL     1       4.062   5.139  18.270  0.00  0.00    +0.000 A 
BRANCH   7  15
ATOM     14  C   UNL     1       2.500   8.440  17.786  0.00  0.00    +0.000 C 
ATOM     15  O   UNL     1       3.408   7.357  17.579  0.00  0.00    +0.000 OA
ENDBRANCH   7  15
ENDBRANCH   1  13
BRANCH   6  16
ATOM     16  C   UNL     1       6.806   6.669  17.752  0.00  0.00    +0.000 C 
ATOM     17  C   UNL     1       7.589   7.826  17.111  0.00  0.00    +0.000 C 
ATOM     18  C   UNL     1       8.153   8.517  18.336  0.00  0.00    +0.000 C 
ATOM     19  N   UNL     1       8.685   7.394  19.099  0.00  0.00    +0.000 NA
ATOM     20  C   UNL     1       7.741   6.274  18.913  0.00  0.00    +0.000 C 
ATOM     21  H   UNL     1       8.776   7.625  20.083  0.00  0.00    +0.000 HD
ENDBRANCH   6  16
TORSDOF 3
ENDMDL
MODEL 8
REMARK VINA RESULT:      -6.9      1.650      3.434
REMARK  Name = 
REMARK  5 active torsions:
REMARK  status: ('A' for Active; 'I' for Inactive)
REMARK    1  A    between atoms: C_1  and  O_2
REMARK    2  A    between atoms: O_2  and  C_3
REMARK    3  A    between atoms: C_6  and  C_7
REMARK    4  A    between atoms: C_9  and  C_10
REMARK    5  A    between atoms: C_15  and  C_16
REMARK                            x       y       z     vdW  Elec       q    Type
REMARK                         _______ _______ _______ _____ _____    ______ ____
ROOT
ATOM      1  C   UNL     1       3.685   3.609  17.804  0.00  0.00    +0.000 A 
ATOM      2  C   UNL     1       3.661   2.271  18.280  0.00  0.00    +0.000 A 
ATOM      3  C   UNL     1       2.582   1.728  18.977  0.00  0.00    +0.000 A 
ATOM      4  C   UNL     1       1.481   2.516  19.250  0.00  0.00    +0.000 A 
ATOM      5  C   UNL     1       1.474   3.850  18.844  0.00  0.00    +0.000 A 
ATOM      6  C   UNL     1       2.554   4.433  18.133  0.00  0.00    +0.000 A 
ENDROOT
BRANCH   1  13
ATOM      7  C   UNL     1       6.113   4.473  17.591  0.00  0.00    +0.000 A 
ATOM      8  C   UNL     1       7.239   4.752  16.797  0.00  0.00    +0.000 A 
ATOM      9  C   UNL     1       7.192   4.589  15.412  0.00  0.00    +0.000 A 
ATOM     10  C   UNL     1       6.001   4.222  14.803  0.00  0.00    +0.000 A 
ATOM     11  C   UNL     1       5.952   3.866  13.348  0.00  0.00    +0.000 C 
ATOM     12  C   UNL     1       4.855   4.043  15.599  0.00  0.00    +0.000 A 
ATOM     13  C   UNL     1       4.889   4.045  17.005  0.00  0.00    +0.000 A 
BRANCH   7  15
ATOM     14  C   UNL     1       7.103   5.544  19.458  0.00  0.00    +0.000 C 
ATOM     15  O   UNL     1       6.205   4.548  18.965  0.00  0.00    +0.000 OA
ENDBRANCH   7  15
ENDBRANCH   1  13
BRANCH   6  16
ATOM     16  C   UNL     1       2.472   5.936  17.856  0.00  0.00    +0.000 C 
ATOM     17  C   UNL     1       3.764   6.756  17.716  0.00  0.00    +0.000 C 
ATOM     18  C   UNL     1       3.219   8.170  17.707  0.00  0.00    +0.000 C 
ATOM     19  N   UNL     1       2.295   8.145  18.835  0.00  0.00    +0.000 NA
ATOM     20  C   UNL     1       1.658   6.814  18.828  0.00  0.00    +0.000 C 
ATOM     21  H   UNL     1       1.596   8.877  18.758  0.00  0.00    +0.000 HD
ENDBRANCH   6  16
TORSDOF 3
ENDMDL
MODEL 9
REMARK VINA RESULT:      -6.8      2.264      5.590
REMARK  Name = 
REMARK  5 active torsions:
REMARK  status: ('A' for Active; 'I' for Inactive)
REMARK    1  A    between atoms: C_1  and  O_2
REMARK    2  A    between atoms: O_2  and  C_3
REMARK    3  A    between atoms: C_6  and  C_7
REMARK    4  A    between atoms: C_9  and  C_10
REMARK    5  A    between atoms: C_15  and  C_16
REMARK                            x       y       z     vdW  Elec       q    Type
REMARK                         _______ _______ _______ _____ _____    ______ ____
ROOT
ATOM      1  C   UNL     1       5.052   4.763  16.282  0.00  0.00    +0.000 A 
ATOM      2  C   UNL     1       4.718   4.130  15.056  0.00  0.00    +0.000 A 
ATOM      3  C   UNL     1       5.599   4.041  13.978  0.00  0.00    +0.000 A 
ATOM      4  C   UNL     1       6.854   4.608  14.075  0.00  0.00    +0.000 A 
ATOM      5  C   UNL     1       7.213   5.282  15.242  0.00  0.00    +0.000 A 
ATOM      6  C   UNL     1       6.343   5.390  16.357  0.00  0.00    +0.000 A 
ENDROOT
BRANCH   1  13
ATOM      7  C   UNL     1       3.356   5.881  17.884  0.00  0.00    +0.000 A 
ATOM      8  C   UNL     1       2.323   5.770  18.832  0.00  0.00    +0.000 A 
ATOM      9  C   UNL     1       1.911   4.519  19.292  0.00  0.00    +0.000 A 
ATOM     10  C   UNL     1       2.575   3.377  18.869  0.00  0.00    +0.000 A 
ATOM     11  C   UNL     1       2.054   2.010  19.199  0.00  0.00    +0.000 C 
ATOM     12  C   UNL     1       3.672   3.509  17.997  0.00  0.00    +0.000 A 
ATOM     13  C   UNL     1       4.026   4.727  17.389  0.00  0.00    +0.000 A 
BRANCH   7  15
ATOM     14  C   UNL     1       2.824   8.186  17.760  0.00  0.00    +0.000 C 
ATOM     15  O   UNL     1       3.687   7.117  17.369  0.00  0.00    +0.000 OA
ENDBRANCH   7  15
ENDBRANCH   1  13
BRANCH   6  16
ATOM     16  C   UNL     1       6.814   6.260  17.525  0.00  0.00    +0.000 C 
ATOM     17  C   UNL     1       7.783   7.424  17.265  0.00  0.00    +0.000 C 
ATOM     18  C   UNL     1       8.157   7.821  18.679  0.00  0.00    +0.000 C 
ATOM     19  N   UNL     1       8.455   6.528  19.286  0.00  0.00    +0.000 NA
ATOM     20  C   UNL     1       7.485   5.566  18.727  0.00  0.00    +0.000 C 
ATOM     21  H   UNL     1       8.377   6.568  20.297  0.00  0.00    +0.000 HD
ENDBRANCH   6  16
TORSDOF 3
ENDMDL
