MODEL 1
REMARK VINA RESULT:      -8.2      0.000      0.000
REMARK  Name = 
REMARK  7 active torsions:
REMARK  status: ('A' for Active; 'I' for Inactive)
REMARK    1  A    between atoms: C_1  and  N_2
REMARK    2  A    between atoms: C_5  and  N_6
REMARK    3  A    between atoms: N_6  and  C_7
REMARK    4  A    between atoms: C_13  and  N_14
REMARK    5  A    between atoms: N_14  and  C_15
REMARK    6  A    between atoms: C_16  and  C_18
REMARK    7  A    between atoms: C_21  and  C_22
REMARK                            x       y       z     vdW  Elec       q    Type
REMARK                         _______ _______ _______ _____ _____    ______ ____
ROOT
ATOM      1  N   UNL     1      -0.335  10.736  20.452  0.00  0.00    +0.000 N 
ATOM      2  C   UNL     1      -0.484   9.980  21.687  0.00  0.00    +0.000 C 
ATOM      3  C   UNL     1       0.658  10.456  19.477  0.00  0.00    +0.000 C 
ATOM      4  O   UNL     1       0.921  11.315  18.634  0.00  0.00    +0.000 OA
ENDROOT
BRANCH   1  12
ATOM      5  N   UNL     1      -4.370  13.361  22.907  0.00  0.00    +0.000 N 
ATOM      6  C   UNL     1      -5.523  13.152  23.777  0.00  0.00    +0.000 C 
ATOM      7  C   UNL     1      -4.441  12.815  21.630  0.00  0.00    +0.000 C 
ATOM      8  O   UNL     1      -5.507  12.428  21.145  0.00  0.00    +0.000 OA
ATOM      9  N   UNL     1      -3.257  12.699  20.922  0.00  0.00    +0.000 N 
ATOM     10  C   UNL     1      -3.319  12.213  19.561  0.00  0.00    +0.000 C 
ATOM     11  C   UNL     1      -1.879  12.256  19.077  0.00  0.00    +0.000 C 
ATOM     12  C   UNL     1      -1.027  12.034  20.338  0.00  0.00    +0.000 C 
ATOM     13  C   UNL     1      -1.986  12.299  21.515  0.00  0.00    +0.000 C 
BRANCH   5  18
ATOM     14  C   UNL     1      -4.367  17.545  25.084  0.00  0.00    +0.000 C 
ATOM     15  N   UNL     1      -4.175  16.135  24.781  0.00  0.00    +0.000 NA
ATOM     16  C   UNL     1      -2.902  15.631  25.294  0.00  0.00    +0.000 C 
ATOM     17  C   UNL     1      -2.747  14.299  24.576  0.00  0.00    +0.000 C 
ATOM     18  C   UNL     1      -3.459  14.485  23.226  0.00  0.00    +0.000 C 
ATOM     19  C   UNL     1      -4.120  15.876  23.336  0.00  0.00    +0.000 C 
ENDBRANCH   5  18
ENDBRANCH   1  12
BRANCH   3  20
ATOM     20  C   UNL     1       1.334   9.155  19.492  0.00  0.00    +0.000 A 
ATOM     21  C   UNL     1       1.466   8.201  20.482  0.00  0.00    +0.000 A 
ATOM     22  C   UNL     1       2.220   7.066  20.063  0.00  0.00    +0.000 A 
ATOM     23  C   UNL     1       2.614   7.130  18.739  0.00  0.00    +0.000 A 
ATOM     24  S   UNL     1       2.072   8.605  18.037  0.00  0.00    +0.000 S 
BRANCH  23  25
ATOM     25  C   UNL     1       3.366   6.139  17.932  0.00  0.00    +0.000 A 
ATOM     26  C   UNL     1       4.534   6.540  17.254  0.00  0.00    +0.000 A 
ATOM     27  C   UNL     1       5.268   5.649  16.462  0.00  0.00    +0.000 A 
ATOM     28  C   UNL     1       4.837   4.337  16.312  0.00  0.00    +0.000 A 
ATOM     29  C   UNL     1       3.680   3.915  16.962  0.00  0.00    +0.000 A 
ATOM     30  C   UNL     1       2.952   4.799  17.773  0.00  0.00    +0.000 A 
ATOM     31 CL   UNL     1       1.568   4.126  18.569  0.00  0.00    +0.000 Cl
ENDBRANCH  23  25
ENDBRANCH   3  20
TORSDOF 4
ENDMDL
MODEL 2
REMARK VINA RESULT:      -8.1      2.153      2.830
REMARK  Name = 
REMARK  7 active torsions:
REMARK  status: ('A' for Active; 'I' for Inactive)
REMARK    1  A    between atoms: C_1  and  N_2
REMARK    2  A    between atoms: C_5  and  N_6
REMARK    3  A    between atoms: N_6  and  C_7
REMARK    4  A    between atoms: C_13  and  N_14
REMARK    5  A    between atoms: N_14  and  C_15
REMARK    6  A    between atoms: C_16  and  C_18
REMARK    7  A    between atoms: C_21  and  C_22
REMARK                            x       y       z     vdW  Elec       q    Type
REMARK                         _______ _______ _______ _____ _____    ______ ____
ROOT
ATOM      1  N   UNL     1      -0.255  10.833  20.192  0.00  0.00    +0.000 N 
ATOM      2  C   UNL     1      -0.611  11.201  18.829  0.00  0.00    +0.000 C 
ATOM      3  C   UNL     1       0.518   9.689  20.518  0.00  0.00    +0.000 C 
ATOM      4  O   UNL     1       0.507   9.276  21.678  0.00  0.00    +0.000 OA
ENDROOT
BRANCH   1  12
ATOM      5  N   UNL     1      -4.607  13.965  20.867  0.00  0.00    +0.000 N 
ATOM      6  C   UNL     1      -5.517  14.848  20.144  0.00  0.00    +0.000 C 
ATOM      7  C   UNL     1      -3.292  14.396  21.002  0.00  0.00    +0.000 C 
ATOM      8  O   UNL     1      -2.965  15.565  20.791  0.00  0.00    +0.000 OA
ATOM      9  N   UNL     1      -2.349  13.451  21.367  0.00  0.00    +0.000 N 
ATOM     10  C   UNL     1      -0.991  13.893  21.596  0.00  0.00    +0.000 C 
ATOM     11  C   UNL     1      -0.248  12.636  22.017  0.00  0.00    +0.000 C 
ATOM     12  C   UNL     1      -0.974  11.485  21.302  0.00  0.00    +0.000 C 
ATOM     13  C   UNL     1      -2.326  12.081  20.864  0.00  0.00    +0.000 C 
BRANCH   5  18
ATOM     14  C   UNL     1      -7.749  13.636  24.370  0.00  0.00    +0.000 C 
ATOM     15  N   UNL     1      -7.109  13.567  23.064  0.00  0.00    +0.000 NA
ATOM     16  C   UNL     1      -7.489  12.363  22.328  0.00  0.00    +0.000 C 
ATOM     17  C   UNL     1      -6.466  12.312  21.204  0.00  0.00    +0.000 C 
ATOM     18  C   UNL     1      -5.199  12.962  21.783  0.00  0.00    +0.000 C 
ATOM     19  C   UNL     1      -5.644  13.493  23.163  0.00  0.00    +0.000 C 
ENDBRANCH   5  18
ENDBRANCH   1  12
BRANCH   3  20
ATOM     20  C   UNL     1       1.313   9.036  19.473  0.00  0.00    +0.000 A 
ATOM     21  C   UNL     1       1.677   9.447  18.205  0.00  0.00    +0.000 A 
ATOM     22  C   UNL     1       2.466   8.482  17.513  0.00  0.00    +0.000 A 
ATOM     23  C   UNL     1       2.748   7.361  18.272  0.00  0.00    +0.000 A 
ATOM     24  S   UNL     1       2.011   7.502  19.821  0.00  0.00    +0.000 S 
BRANCH  23  25
ATOM     25  C   UNL     1       3.563   6.172  17.925  0.00  0.00    +0.000 A 
ATOM     26  C   UNL     1       4.962   6.296  17.826  0.00  0.00    +0.000 A 
ATOM     27  C   UNL     1       5.775   5.210  17.480  0.00  0.00    +0.000 A 
ATOM     28  C   UNL     1       5.202   3.975  17.203  0.00  0.00    +0.000 A 
ATOM     29  C   UNL     1       3.820   3.825  17.283  0.00  0.00    +0.000 A 
ATOM     30  C   UNL     1       3.003   4.906  17.649  0.00  0.00    +0.000 A 
ATOM     31 CL   UNL     1       1.309   4.564  17.767  0.00  0.00    +0.000 Cl
ENDBRANCH  23  25
ENDBRANCH   3  20
TORSDOF 4
ENDMDL
MODEL 3
REMARK VINA RESULT:      -8.0      2.297      3.036
REMARK  Name = 
REMARK  7 active torsions:
REMARK  status: ('A' for Active; 'I' for Inactive)
REMARK    1  A    between atoms: C_1  and  N_2
REMARK    2  A    between atoms: C_5  and  N_6
REMARK    3  A    between atoms: N_6  and  C_7
REMARK    4  A    between atoms: C_13  and  N_14
REMARK    5  A    between atoms: N_14  and  C_15
REMARK    6  A    between atoms: C_16  and  C_18
REMARK    7  A    between atoms: C_21  and  C_22
REMARK                            x       y       z     vdW  Elec       q    Type
REMARK                         _______ _______ _______ _____ _____    ______ ____
ROOT
ATOM      1  N   UNL     1      -0.395  10.735  20.256  0.00  0.00    +0.000 N 
ATOM      2  C   UNL     1      -1.074  10.711  18.968  0.00  0.00    +0.000 C 
ATOM      3  C   UNL     1       0.655   9.845  20.604  0.00  0.00    +0.000 C 
ATOM      4  O   UNL     1       0.954   9.716  21.792  0.00  0.00    +0.000 OA
ENDROOT
BRANCH   1  12
ATOM      5  N   UNL     1      -4.540  14.128  20.963  0.00  0.00    +0.000 N 
ATOM      6  C   UNL     1      -5.447  15.010  20.236  0.00  0.00    +0.000 C 
ATOM      7  C   UNL     1      -3.199  14.497  20.995  0.00  0.00    +0.000 C 
ATOM      8  O   UNL     1      -2.828  15.632  20.689  0.00  0.00    +0.000 OA
ATOM      9  N   UNL     1      -2.284  13.528  21.369  0.00  0.00    +0.000 N 
ATOM     10  C   UNL     1      -0.894  13.912  21.492  0.00  0.00    +0.000 C 
ATOM     11  C   UNL     1      -0.190  12.647  21.953  0.00  0.00    +0.000 C 
ATOM     12  C   UNL     1      -1.014  11.493  21.359  0.00  0.00    +0.000 C 
ATOM     13  C   UNL     1      -2.358  12.131  20.959  0.00  0.00    +0.000 C 
BRANCH   5  18
ATOM     14  C   UNL     1      -7.914  14.031  24.258  0.00  0.00    +0.000 C 
ATOM     15  N   UNL     1      -7.170  13.833  23.023  0.00  0.00    +0.000 NA
ATOM     16  C   UNL     1      -7.399  12.508  22.449  0.00  0.00    +0.000 C 
ATOM     17  C   UNL     1      -6.290  12.386  21.416  0.00  0.00    +0.000 C 
ATOM     18  C   UNL     1      -5.125  13.219  21.976  0.00  0.00    +0.000 C 
ATOM     19  C   UNL     1      -5.717  13.900  23.229  0.00  0.00    +0.000 C 
ENDBRANCH   5  18
ENDBRANCH   1  12
BRANCH   3  20
ATOM     20  C   UNL     1       1.360   9.114  19.546  0.00  0.00    +0.000 A 
ATOM     21  C   UNL     1       1.874   9.526  18.333  0.00  0.00    +0.000 A 
ATOM     22  C   UNL     1       2.488   8.467  17.600  0.00  0.00    +0.000 A 
ATOM     23  C   UNL     1       2.489   7.263  18.280  0.00  0.00    +0.000 A 
ATOM     24  S   UNL     1       1.707   7.448  19.802  0.00  0.00    +0.000 S 
BRANCH  23  25
ATOM     25  C   UNL     1       3.063   5.956  17.876  0.00  0.00    +0.000 A 
ATOM     26  C   UNL     1       2.241   4.812  17.869  0.00  0.00    +0.000 A 
ATOM     27  C   UNL     1       2.739   3.551  17.517  0.00  0.00    +0.000 A 
ATOM     28  C   UNL     1       4.079   3.402  17.185  0.00  0.00    +0.000 A 
ATOM     29  C   UNL     1       4.917   4.514  17.193  0.00  0.00    +0.000 A 
ATOM     30  C   UNL     1       4.419   5.783  17.526  0.00  0.00    +0.000 A 
ATOM     31 CL   UNL     1       5.557   7.087  17.438  0.00  0.00    +0.000 Cl
ENDBRANCH  23  25
ENDBRANCH   3  20
TORSDOF 4
ENDMDL
MODEL 4
REMARK VINA RESULT:      -7.9      3.129      4.160
REMARK  Name = 
REMARK  7 active torsions:
REMARK  status: ('A' for Active; 'I' for Inactive)
REMARK    1  A    between atoms: C_1  and  N_2
REMARK    2  A    between atoms: C_5  and  N_6
REMARK    3  A    between atoms: N_6  and  C_7
REMARK    4  A    between atoms: C_13  and  N_14
REMARK    5  A    between atoms: N_14  and  C_15
REMARK    6  A    between atoms: C_16  and  C_18
REMARK    7  A    between atoms: C_21  and  C_22
REMARK                            x       y       z     vdW  Elec       q    Type
REMARK                         _______ _______ _______ _____ _____    ______ ____
ROOT
ATOM      1  N   UNL     1       0.646  10.094  20.373  0.00  0.00    +0.000 N 
ATOM      2  C   UNL     1       1.349   9.816  21.618  0.00  0.00    +0.000 C 
ATOM      3  C   UNL     1       0.991   9.501  19.131  0.00  0.00    +0.000 C 
ATOM      4  O   UNL     1       0.572  10.013  18.092  0.00  0.00    +0.000 OA
ENDROOT
BRANCH   1  12
ATOM      5  N   UNL     1       1.009  15.464  20.845  0.00  0.00    +0.000 N 
ATOM      6  C   UNL     1       1.879  16.523  21.348  0.00  0.00    +0.000 C 
ATOM      7  C   UNL     1       0.435  14.623  21.792  0.00  0.00    +0.000 C 
ATOM      8  O   UNL     1       0.415  14.908  22.991  0.00  0.00    +0.000 OA
ATOM      9  N   UNL     1      -0.100  13.429  21.339  0.00  0.00    +0.000 N 
ATOM     10  C   UNL     1      -0.776  12.577  22.292  0.00  0.00    +0.000 C 
ATOM     11  C   UNL     1      -1.271  11.401  21.467  0.00  0.00    +0.000 C 
ATOM     12  C   UNL     1      -0.254  11.261  20.323  0.00  0.00    +0.000 C 
ATOM     13  C   UNL     1       0.511  12.598  20.307  0.00  0.00    +0.000 C 
BRANCH   5  18
ATOM     14  C   UNL     1      -1.744  18.418  18.407  0.00  0.00    +0.000 C 
ATOM     15  N   UNL     1      -0.586  17.711  18.933  0.00  0.00    +0.000 NA
ATOM     16  C   UNL     1       0.426  17.471  17.906  0.00  0.00    +0.000 C 
ATOM     17  C   UNL     1       1.337  16.442  18.557  0.00  0.00    +0.000 C 
ATOM     18  C   UNL     1       0.426  15.633  19.494  0.00  0.00    +0.000 C 
ATOM     19  C   UNL     1      -0.929  16.372  19.434  0.00  0.00    +0.000 C 
ENDBRANCH   5  18
ENDBRANCH   1  12
BRANCH   3  20
ATOM     20  C   UNL     1       1.825   8.295  19.115  0.00  0.00    +0.000 A 
ATOM     21  C   UNL     1       1.918   7.232  19.993  0.00  0.00    +0.000 A 
ATOM     22  C   UNL     1       2.879   6.259  19.589  0.00  0.00    +0.000 A 
ATOM     23  C   UNL     1       3.476   6.553  18.377  0.00  0.00    +0.000 A 
ATOM     24  S   UNL     1       2.864   8.041  17.767  0.00  0.00    +0.000 S 
BRANCH  23  25
ATOM     25  C   UNL     1       4.480   5.775  17.611  0.00  0.00    +0.000 A 
ATOM     26  C   UNL     1       5.767   6.312  17.412  0.00  0.00    +0.000 A 
ATOM     27  C   UNL     1       6.744   5.629  16.678  0.00  0.00    +0.000 A 
ATOM     28  C   UNL     1       6.448   4.399  16.105  0.00  0.00    +0.000 A 
ATOM     29  C   UNL     1       5.181   3.848  16.276  0.00  0.00    +0.000 A 
ATOM     30  C   UNL     1       4.204   4.520  17.028  0.00  0.00    +0.000 A 
ATOM     31 CL   UNL     1       2.692   3.693  17.210  0.00  0.00    +0.000 Cl
ENDBRANCH  23  25
ENDBRANCH   3  20
TORSDOF 4
ENDMDL
MODEL 5
REMARK VINA RESULT:      -7.7      3.521      4.547
REMARK  Name = 
REMARK  7 active torsions:
REMARK  status: ('A' for Active; 'I' for Inactive)
REMARK    1  A    between atoms: C_1  and  N_2
REMARK    2  A    between atoms: C_5  and  N_6
REMARK    3  A    between atoms: N_6  and  C_7
REMARK    4  A    between atoms: C_13  and  N_14
REMARK    5  A    between atoms: N_14  and  C_15
REMARK    6  A    between atoms: C_16  and  C_18
REMARK    7  A    between atoms: C_21  and  C_22
REMARK                            x       y       z     vdW  Elec       q    Type
REMARK                         _______ _______ _______ _____ _____    ______ ____
ROOT
ATOM      1  N   UNL     1       0.925   9.624  19.777  0.00  0.00    +0.000 N 
ATOM      2  C   UNL     1       1.285   9.100  21.087  0.00  0.00    +0.000 C 
ATOM      3  C   UNL     1       1.568   9.235  18.574  0.00  0.00    +0.000 C 
ATOM      4  O   UNL     1       1.431   9.939  17.573  0.00  0.00    +0.000 OA
ENDROOT
BRANCH   1  12
ATOM      5  N   UNL     1       1.406  14.922  20.724  0.00  0.00    +0.000 N 
ATOM      6  C   UNL     1       2.243  15.901  21.411  0.00  0.00    +0.000 C 
ATOM      7  C   UNL     1       0.693  14.036  21.524  0.00  0.00    +0.000 C 
ATOM      8  O   UNL     1       0.535  14.230  22.731  0.00  0.00    +0.000 OA
ATOM      9  N   UNL     1       0.178  12.904  20.914  0.00  0.00    +0.000 N 
ATOM     10  C   UNL     1      -0.638  12.012  21.708  0.00  0.00    +0.000 C 
ATOM     11  C   UNL     1      -1.067  10.925  20.737  0.00  0.00    +0.000 C 
ATOM     12  C   UNL     1       0.077  10.829  19.715  0.00  0.00    +0.000 C 
ATOM     13  C   UNL     1       0.882  12.130  19.899  0.00  0.00    +0.000 C 
BRANCH   5  18
ATOM     14  C   UNL     1      -1.228  17.968  18.267  0.00  0.00    +0.000 C 
ATOM     15  N   UNL     1      -0.097  17.279  18.871  0.00  0.00    +0.000 NA
ATOM     16  C   UNL     1       1.060  17.236  17.979  0.00  0.00    +0.000 C 
ATOM     17  C   UNL     1       1.957  16.197  18.633  0.00  0.00    +0.000 C 
ATOM     18  C   UNL     1       0.998  15.219  19.331  0.00  0.00    +0.000 C 
ATOM     19  C   UNL     1      -0.392  15.868  19.161  0.00  0.00    +0.000 C 
ENDBRANCH   5  18
ENDBRANCH   1  12
BRANCH   3  20
ATOM     20  C   UNL     1       2.368   8.006  18.550  0.00  0.00    +0.000 A 
ATOM     21  C   UNL     1       2.303   6.854  19.309  0.00  0.00    +0.000 A 
ATOM     22  C   UNL     1       3.292   5.893  18.948  0.00  0.00    +0.000 A 
ATOM     23  C   UNL     1       4.074   6.290  17.879  0.00  0.00    +0.000 A 
ATOM     24  S   UNL     1       3.596   7.857  17.353  0.00  0.00    +0.000 S 
BRANCH  23  25
ATOM     25  C   UNL     1       5.167   5.560  17.191  0.00  0.00    +0.000 A 
ATOM     26  C   UNL     1       5.006   5.183  15.844  0.00  0.00    +0.000 A 
ATOM     27  C   UNL     1       5.998   4.473  15.155  0.00  0.00    +0.000 A 
ATOM     28  C   UNL     1       7.167   4.104  15.808  0.00  0.00    +0.000 A 
ATOM     29  C   UNL     1       7.349   4.455  17.143  0.00  0.00    +0.000 A 
ATOM     30  C   UNL     1       6.367   5.183  17.832  0.00  0.00    +0.000 A 
ATOM     31 CL   UNL     1       6.748   5.604  19.469  0.00  0.00    +0.000 Cl
ENDBRANCH  23  25
ENDBRANCH   3  20
TORSDOF 4
ENDMDL
MODEL 6
REMARK VINA RESULT:      -7.6      1.079      1.388
REMARK  Name = 
REMARK  7 active torsions:
REMARK  status: ('A' for Active; 'I' for Inactive)
REMARK    1  A    between atoms: C_1  and  N_2
REMARK    2  A    between atoms: C_5  and  N_6
REMARK    3  A    between atoms: N_6  and  C_7
REMARK    4  A    between atoms: C_13  and  N_14
REMARK    5  A    between atoms: N_14  and  C_15
REMARK    6  A    between atoms: C_16  and  C_18
REMARK    7  A    between atoms: C_21  and  C_22
REMARK                            x       y       z     vdW  Elec       q    Type
REMARK                         _______ _______ _______ _____ _____    ______ ____
ROOT
ATOM      1  N   UNL     1      -0.179  10.513  20.540  0.00  0.00    +0.000 N 
ATOM      2  C   UNL     1      -0.476   9.713  21.720  0.00  0.00    +0.000 C 
ATOM      3  C   UNL     1       0.871  10.212  19.634  0.00  0.00    +0.000 C 
ATOM      4  O   UNL     1       1.256  11.089  18.859  0.00  0.00    +0.000 OA
ENDROOT
BRANCH   1  12
ATOM      5  N   UNL     1      -4.063  13.372  22.976  0.00  0.00    +0.000 N 
ATOM      6  C   UNL     1      -5.243  13.230  23.823  0.00  0.00    +0.000 C 
ATOM      7  C   UNL     1      -4.150  12.853  21.689  0.00  0.00    +0.000 C 
ATOM      8  O   UNL     1      -5.231  12.550  21.180  0.00  0.00    +0.000 OA
ATOM      9  N   UNL     1      -2.965  12.667  20.998  0.00  0.00    +0.000 N 
ATOM     10  C   UNL     1      -3.037  12.208  19.628  0.00  0.00    +0.000 C 
ATOM     11  C   UNL     1      -1.590  12.158  19.168  0.00  0.00    +0.000 C 
ATOM     12  C   UNL     1      -0.777  11.857  20.438  0.00  0.00    +0.000 C 
ATOM     13  C   UNL     1      -1.735  12.169  21.604  0.00  0.00    +0.000 C 
BRANCH   5  18
ATOM     14  C   UNL     1      -3.793  18.037  23.619  0.00  0.00    +0.000 C 
ATOM     15  N   UNL     1      -3.876  16.603  23.854  0.00  0.00    +0.000 NA
ATOM     16  C   UNL     1      -3.070  16.186  25.001  0.00  0.00    +0.000 C 
ATOM     17  C   UNL     1      -3.009  14.675  24.844  0.00  0.00    +0.000 C 
ATOM     18  C   UNL     1      -3.082  14.424  23.329  0.00  0.00    +0.000 C 
ATOM     19  C   UNL     1      -3.348  15.821  22.728  0.00  0.00    +0.000 C 
ENDBRANCH   5  18
ENDBRANCH   1  12
BRANCH   3  20
ATOM     20  C   UNL     1       1.462   8.870  19.636  0.00  0.00    +0.000 A 
ATOM     21  C   UNL     1       1.639   7.947  20.648  0.00  0.00    +0.000 A 
ATOM     22  C   UNL     1       2.271   6.749  20.204  0.00  0.00    +0.000 A 
ATOM     23  C   UNL     1       2.522   6.736  18.845  0.00  0.00    +0.000 A 
ATOM     24  S   UNL     1       2.003   8.217  18.138  0.00  0.00    +0.000 S 
BRANCH  23  25
ATOM     25  C   UNL     1       3.120   5.666  18.009  0.00  0.00    +0.000 A 
ATOM     26  C   UNL     1       2.447   4.436  17.873  0.00  0.00    +0.000 A 
ATOM     27  C   UNL     1       2.978   3.386  17.115  0.00  0.00    +0.000 A 
ATOM     28  C   UNL     1       4.210   3.535  16.490  0.00  0.00    +0.000 A 
ATOM     29  C   UNL     1       4.903   4.737  16.615  0.00  0.00    +0.000 A 
ATOM     30  C   UNL     1       4.365   5.799  17.358  0.00  0.00    +0.000 A 
ATOM     31 CL   UNL     1       5.304   7.255  17.381  0.00  0.00    +0.000 Cl
ENDBRANCH  23  25
ENDBRANCH   3  20
TORSDOF 4
ENDMDL
MODEL 7
REMARK VINA RESULT:      -7.6      1.715      2.254
REMARK  Name = 
REMARK  7 active torsions:
REMARK  status: ('A' for Active; 'I' for Inactive)
REMARK    1  A    between atoms: C_1  and  N_2
REMARK    2  A    between atoms: C_5  and  N_6
REMARK    3  A    between atoms: N_6  and  C_7
REMARK    4  A    between atoms: C_13  and  N_14
REMARK    5  A    between atoms: N_14  and  C_15
REMARK    6  A    between atoms: C_16  and  C_18
REMARK    7  A    between atoms: C_21  and  C_22
REMARK                            x       y       z     vdW  Elec       q    Type
REMARK                         _______ _______ _______ _____ _____    ______ ____
ROOT
ATOM      1  N   UNL     1      -1.041  11.028  18.837  0.00  0.00    +0.000 N 
ATOM      2  C   UNL     1      -1.789   9.892  18.316  0.00  0.00    +0.000 C 
ATOM      3  C   UNL     1       0.291  10.935  19.317  0.00  0.00    +0.000 C 
ATOM      4  O   UNL     1       0.734  11.844  20.020  0.00  0.00    +0.000 OA
ENDROOT
BRANCH   1  12
ATOM      5  N   UNL     1      -3.502  13.175  23.143  0.00  0.00    +0.000 N 
ATOM      6  C   UNL     1      -4.060  12.828  24.446  0.00  0.00    +0.000 C 
ATOM      7  C   UNL     1      -4.158  12.669  22.026  0.00  0.00    +0.000 C 
ATOM      8  O   UNL     1      -5.296  12.201  22.095  0.00  0.00    +0.000 OA
ATOM      9  N   UNL     1      -3.472  12.690  20.823  0.00  0.00    +0.000 N 
ATOM     10  C   UNL     1      -4.165  12.247  19.633  0.00  0.00    +0.000 C 
ATOM     11  C   UNL     1      -3.157  12.442  18.513  0.00  0.00    +0.000 C 
ATOM     12  C   UNL     1      -1.783  12.258  19.175  0.00  0.00    +0.000 C 
ATOM     13  C   UNL     1      -2.051  12.391  20.687  0.00  0.00    +0.000 C 
BRANCH   5  18
ATOM     14  C   UNL     1      -2.745  17.295  25.310  0.00  0.00    +0.000 C 
ATOM     15  N   UNL     1      -2.625  15.914  24.867  0.00  0.00    +0.000 NA
ATOM     16  C   UNL     1      -1.232  15.514  24.685  0.00  0.00    +0.000 C 
ATOM     17  C   UNL     1      -1.348  14.217  23.900  0.00  0.00    +0.000 C 
ATOM     18  C   UNL     1      -2.627  14.368  23.061  0.00  0.00    +0.000 C 
ATOM     19  C   UNL     1      -3.248  15.692  23.555  0.00  0.00    +0.000 C 
ENDBRANCH   5  18
ENDBRANCH   1  12
BRANCH   3  20
ATOM     20  C   UNL     1       1.106   9.771  18.957  0.00  0.00    +0.000 A 
ATOM     21  C   UNL     1       1.955   9.539  17.892  0.00  0.00    +0.000 A 
ATOM     22  C   UNL     1       2.554   8.245  17.929  0.00  0.00    +0.000 A 
ATOM     23  C   UNL     1       2.204   7.514  19.050  0.00  0.00    +0.000 A 
ATOM     24  S   UNL     1       1.118   8.423  20.027  0.00  0.00    +0.000 S 
BRANCH  23  25
ATOM     25  C   UNL     1       2.646   6.161  19.465  0.00  0.00    +0.000 A 
ATOM     26  C   UNL     1       1.914   5.463  20.445  0.00  0.00    +0.000 A 
ATOM     27  C   UNL     1       2.301   4.193  20.889  0.00  0.00    +0.000 A 
ATOM     28  C   UNL     1       3.447   3.599  20.375  0.00  0.00    +0.000 A 
ATOM     29  C   UNL     1       4.197   4.269  19.413  0.00  0.00    +0.000 A 
ATOM     30  C   UNL     1       3.801   5.534  18.951  0.00  0.00    +0.000 A 
ATOM     31 CL   UNL     1       4.792   6.228  17.709  0.00  0.00    +0.000 Cl
ENDBRANCH  23  25
ENDBRANCH   3  20
TORSDOF 4
ENDMDL
MODEL 8
REMARK VINA RESULT:      -7.5      3.676      5.229
REMARK  Name = 
REMARK  7 active torsions:
REMARK  status: ('A' for Active; 'I' for Inactive)
REMARK    1  A    between atoms: C_1  and  N_2
REMARK    2  A    between atoms: C_5  and  N_6
REMARK    3  A    between atoms: N_6  and  C_7
REMARK    4  A    between atoms: C_13  and  N_14
REMARK    5  A    between atoms: N_14  and  C_15
REMARK    6  A    between atoms: C_16  and  C_18
REMARK    7  A    between atoms: C_21  and  C_22
REMARK                            x       y       z     vdW  Elec       q    Type
REMARK                         _______ _______ _______ _____ _____    ______ ____
ROOT
ATOM      1  N   UNL     1       0.443  10.358  20.559  0.00  0.00    +0.000 N 
ATOM      2  C   UNL     1       0.427   9.942  21.954  0.00  0.00    +0.000 C 
ATOM      3  C   UNL     1       1.095   9.629  19.530  0.00  0.00    +0.000 C 
ATOM      4  O   UNL     1       1.333  10.193  18.462  0.00  0.00    +0.000 OA
ENDROOT
BRANCH   1  12
ATOM      5  N   UNL     1       2.732  15.246  20.282  0.00  0.00    +0.000 N 
ATOM      6  C   UNL     1       3.903  15.999  20.721  0.00  0.00    +0.000 C 
ATOM      7  C   UNL     1       1.839  14.843  21.270  0.00  0.00    +0.000 C 
ATOM      8  O   UNL     1       1.862  15.326  22.404  0.00  0.00    +0.000 OA
ATOM      9  N   UNL     1       0.927  13.856  20.937  0.00  0.00    +0.000 N 
ATOM     10  C   UNL     1      -0.065  13.483  21.921  0.00  0.00    +0.000 C 
ATOM     11  C   UNL     1      -0.913  12.432  21.225  0.00  0.00    +0.000 C 
ATOM     12  C   UNL     1       0.040  11.740  20.237  0.00  0.00    +0.000 C 
ATOM     13  C   UNL     1       1.243  12.695  20.113  0.00  0.00    +0.000 C 
BRANCH   5  18
ATOM     14  C   UNL     1       1.107  18.444  17.219  0.00  0.00    +0.000 C 
ATOM     15  N   UNL     1       1.978  17.537  17.952  0.00  0.00    +0.000 NA
ATOM     16  C   UNL     1       2.958  16.892  17.081  0.00  0.00    +0.000 C 
ATOM     17  C   UNL     1       3.494  15.762  17.946  0.00  0.00    +0.000 C 
ATOM     18  C   UNL     1       2.324  15.368  18.863  0.00  0.00    +0.000 C 
ATOM     19  C   UNL     1       1.238  16.424  18.564  0.00  0.00    +0.000 C 
ENDBRANCH   5  18
ENDBRANCH   1  12
BRANCH   3  20
ATOM     20  C   UNL     1       1.459   8.227  19.762  0.00  0.00    +0.000 A 
ATOM     21  C   UNL     1       1.371   7.431  20.887  0.00  0.00    +0.000 A 
ATOM     22  C   UNL     1       1.848   6.105  20.668  0.00  0.00    +0.000 A 
ATOM     23  C   UNL     1       2.246   5.877  19.363  0.00  0.00    +0.000 A 
ATOM     24  S   UNL     1       2.054   7.311  18.432  0.00  0.00    +0.000 S 
BRANCH  23  25
ATOM     25  C   UNL     1       2.755   4.631  18.740  0.00  0.00    +0.000 A 
ATOM     26  C   UNL     1       3.912   4.680  17.938  0.00  0.00    +0.000 A 
ATOM     27  C   UNL     1       4.420   3.537  17.309  0.00  0.00    +0.000 A 
ATOM     28  C   UNL     1       3.768   2.319  17.450  0.00  0.00    +0.000 A 
ATOM     29  C   UNL     1       2.616   2.242  18.229  0.00  0.00    +0.000 A 
ATOM     30  C   UNL     1       2.114   3.381  18.877  0.00  0.00    +0.000 A 
ATOM     31 CL   UNL     1       0.709   3.131  19.861  0.00  0.00    +0.000 Cl
ENDBRANCH  23  25
ENDBRANCH   3  20
TORSDOF 4
ENDMDL
MODEL 9
REMARK VINA RESULT:      -7.5      1.213      1.322
REMARK  Name = 
REMARK  7 active torsions:
REMARK  status: ('A' for Active; 'I' for Inactive)
REMARK    1  A    between atoms: C_1  and  N_2
REMARK    2  A    between atoms: C_5  and  N_6
REMARK    3  A    between atoms: N_6  and  C_7
REMARK    4  A    between atoms: C_13  and  N_14
REMARK    5  A    between atoms: N_14  and  C_15
REMARK    6  A    between atoms: C_16  and  C_18
REMARK    7  A    between atoms: C_21  and  C_22
REMARK                            x       y       z     vdW  Elec       q    Type
REMARK                         _______ _______ _______ _____ _____    ______ ____
ROOT
ATOM      1  N   UNL     1       0.100  10.437  19.778  0.00  0.00    +0.000 N 
ATOM      2  C   UNL     1      -0.636   9.742  18.732  0.00  0.00    +0.000 C 
ATOM      3  C   UNL     1       0.939   9.779  20.715  0.00  0.00    +0.000 C 
ATOM      4  O   UNL     1       1.266  10.376  21.741  0.00  0.00    +0.000 OA
ENDROOT
BRANCH   1  12
ATOM      5  N   UNL     1      -3.941  13.077  22.207  0.00  0.00    +0.000 N 
ATOM      6  C   UNL     1      -5.326  12.921  22.640  0.00  0.00    +0.000 C 
ATOM      7  C   UNL     1      -3.709  13.072  20.836  0.00  0.00    +0.000 C 
ATOM      8  O   UNL     1      -4.621  13.219  20.020  0.00  0.00    +0.000 OA
ATOM      9  N   UNL     1      -2.405  12.872  20.414  0.00  0.00    +0.000 N 
ATOM     10  C   UNL     1      -2.127  12.947  18.996  0.00  0.00    +0.000 C 
ATOM     11  C   UNL     1      -0.626  12.732  18.892  0.00  0.00    +0.000 C 
ATOM     12  C   UNL     1      -0.269  11.831  20.086  0.00  0.00    +0.000 C 
ATOM     13  C   UNL     1      -1.481  11.928  21.032  0.00  0.00    +0.000 C 
BRANCH   5  18
ATOM     14  C   UNL     1      -2.738  17.281  23.976  0.00  0.00    +0.000 C 
ATOM     15  N   UNL     1      -3.304  15.950  23.815  0.00  0.00    +0.000 NA
ATOM     16  C   UNL     1      -3.257  15.179  25.056  0.00  0.00    +0.000 C 
ATOM     17  C   UNL     1      -3.544  13.761  24.589  0.00  0.00    +0.000 C 
ATOM     18  C   UNL     1      -2.984  13.687  23.159  0.00  0.00    +0.000 C 
ATOM     19  C   UNL     1      -2.556  15.137  22.846  0.00  0.00    +0.000 C 
ENDBRANCH   5  18
ENDBRANCH   1  12
BRANCH   3  20
ATOM     20  C   UNL     1       1.400   8.415  20.435  0.00  0.00    +0.000 A 
ATOM     21  C   UNL     1       1.217   7.226  21.114  0.00  0.00    +0.000 A 
ATOM     22  C   UNL     1       1.853   6.119  20.480  0.00  0.00    +0.000 A 
ATOM     23  C   UNL     1       2.472   6.454  19.290  0.00  0.00    +0.000 A 
ATOM     24  S   UNL     1       2.286   8.138  18.985  0.00  0.00    +0.000 S 
BRANCH  23  25
ATOM     25  C   UNL     1       3.195   5.586  18.329  0.00  0.00    +0.000 A 
ATOM     26  C   UNL     1       4.411   6.029  17.774  0.00  0.00    +0.000 A 
ATOM     27  C   UNL     1       5.121   5.257  16.846  0.00  0.00    +0.000 A 
ATOM     28  C   UNL     1       4.617   4.030  16.433  0.00  0.00    +0.000 A 
ATOM     29  C   UNL     1       3.411   3.571  16.957  0.00  0.00    +0.000 A 
ATOM     30  C   UNL     1       2.706   4.332  17.902  0.00  0.00    +0.000 A 
ATOM     31 CL   UNL     1       1.252   3.615  18.515  0.00  0.00    +0.000 Cl
ENDBRANCH  23  25
ENDBRANCH   3  20
TORSDOF 4
ENDMDL
