MODEL 1
REMARK VINA RESULT:      -8.7      0.000      0.000
REMARK  Name = 
REMARK  8 active torsions:
REMARK  status: ('A' for Active; 'I' for Inactive)
REMARK    1  A    between atoms: C_1  and  C_2
REMARK    2  A    between atoms: C_2  and  C_3
REMARK    3  A    between atoms: C_2  and  S_4
REMARK    4  A    between atoms: S_4  and  N_7
REMARK    5  A    between atoms: N_7  and  C_8
REMARK    6  A    between atoms: C_13  and  C_14
REMARK    7  A    between atoms: C_14  and  N_15
REMARK    8  A    between atoms: C_17  and  C_18
REMARK                            x       y       z     vdW  Elec       q    Type
REMARK                         _______ _______ _______ _____ _____    ______ ____
ROOT
ATOM      1  C   UNL     1       3.161   5.506  19.186  0.00  0.00    +0.000 C 
ATOM      2  C   UNL     1       2.204   5.684  20.382  0.00  0.00    +0.000 C 
ATOM      3  C   UNL     1       1.765   7.108  20.215  0.00  0.00    +0.000 A 
ATOM      4  C   UNL     1       1.141   7.915  21.146  0.00  0.00    +0.000 A 
ATOM      5  C   UNL     1       0.802   9.217  20.773  0.00  0.00    +0.000 A 
ATOM      6  C   UNL     1       1.085   9.705  19.478  0.00  0.00    +0.000 A 
ATOM      7  C   UNL     1       1.692   8.855  18.537  0.00  0.00    +0.000 A 
ATOM      8  C   UNL     1       2.025   7.567  18.922  0.00  0.00    +0.000 A 
ATOM      9  C   UNL     1       2.639   6.480  18.094  0.00  0.00    +0.000 C 
ENDROOT
BRANCH   1  10
ATOM     10  N   UNL     1       4.581   5.888  19.526  0.00  0.00    +0.000 NA
ATOM     11  H   UNL     1       4.809   6.787  19.104  0.00  0.00    +0.000 HD
BRANCH  10  12
ATOM     12  S   UNL     1       5.767   4.731  19.171  0.00  0.00    +0.000 S 
ATOM     13  O   UNL     1       5.185   3.443  19.478  0.00  0.00    +0.000 OA
ATOM     14  O   UNL     1       7.001   5.163  19.783  0.00  0.00    +0.000 OA
BRANCH  12  16
ATOM     15  C   UNL     1       7.387   4.658  16.980  0.00  0.00    +0.000 C 
ATOM     16  C   UNL     1       5.932   4.889  17.377  0.00  0.00    +0.000 C 
ATOM     17  C   UNL     1       5.018   3.920  16.631  0.00  0.00    +0.000 C 
ENDBRANCH  12  16
ENDBRANCH  10  12
ENDBRANCH   1  10
BRANCH   6  18
ATOM     18  C   UNL     1       0.731  11.127  19.118  0.00  0.00    +0.000 C 
BRANCH  18  19
ATOM     19  N   UNL     1      -0.660  11.258  18.702  0.00  0.00    +0.000 N 
ATOM     20  N   UNL     1      -1.059  10.709  17.529  0.00  0.00    +0.000 NA
ATOM     21  C   UNL     1      -2.377  10.995  17.441  0.00  0.00    +0.000 A 
ATOM     22  C   UNL     1      -2.815  11.697  18.595  0.00  0.00    +0.000 A 
ATOM     23  C   UNL     1      -1.697  11.813  19.391  0.00  0.00    +0.000 A 
ATOM     24  C   UNL     1      -1.696  12.465  20.726  0.00  0.00    +0.000 C 
ATOM     25  C   UNL     1      -3.170  12.680  21.164  0.00  0.00    +0.000 C 
ATOM     26  N   UNL     1      -4.035  13.185  20.072  0.00  0.00    +0.000 NA
ATOM     27  C   UNL     1      -4.165  12.195  18.980  0.00  0.00    +0.000 C 
ATOM     28  H   UNL     1      -3.596  14.017  19.678  0.00  0.00    +0.000 HD
BRANCH  21  29
ATOM     29  C   UNL     1      -3.238  10.593  16.273  0.00  0.00    +0.000 C 
ATOM     30  F   UNL     1      -4.501  11.091  16.318  0.00  0.00    +0.000 F 
ATOM     31  F   UNL     1      -2.699  11.008  15.092  0.00  0.00    +0.000 F 
ATOM     32  F   UNL     1      -3.352   9.239  16.181  0.00  0.00    +0.000 F 
ENDBRANCH  21  29
ENDBRANCH  18  19
ENDBRANCH   6  18
TORSDOF 6
ENDMDL
MODEL 2
REMARK VINA RESULT:      -8.6      0.786      1.045
REMARK  Name = 
REMARK  8 active torsions:
REMARK  status: ('A' for Active; 'I' for Inactive)
REMARK    1  A    between atoms: C_1  and  C_2
REMARK    2  A    between atoms: C_2  and  C_3
REMARK    3  A    between atoms: C_2  and  S_4
REMARK    4  A    between atoms: S_4  and  N_7
REMARK    5  A    between atoms: N_7  and  C_8
REMARK    6  A    between atoms: C_13  and  C_14
REMARK    7  A    between atoms: C_14  and  N_15
REMARK    8  A    between atoms: C_17  and  C_18
REMARK                            x       y       z     vdW  Elec       q    Type
REMARK                         _______ _______ _______ _____ _____    ______ ____
ROOT
ATOM      1  C   UNL     1       3.460   5.580  18.905  0.00  0.00    +0.000 C 
ATOM      2  C   UNL     1       2.521   5.759  20.114  0.00  0.00    +0.000 C 
ATOM      3  C   UNL     1       2.040   7.166  19.924  0.00  0.00    +0.000 A 
ATOM      4  C   UNL     1       1.411   7.976  20.848  0.00  0.00    +0.000 A 
ATOM      5  C   UNL     1       1.029   9.260  20.452  0.00  0.00    +0.000 A 
ATOM      6  C   UNL     1       1.274   9.725  19.142  0.00  0.00    +0.000 A 
ATOM      7  C   UNL     1       1.887   8.872  18.209  0.00  0.00    +0.000 A 
ATOM      8  C   UNL     1       2.263   7.602  18.616  0.00  0.00    +0.000 A 
ATOM      9  C   UNL     1       2.892   6.514  17.802  0.00  0.00    +0.000 C 
ENDROOT
BRANCH   1  10
ATOM     10  N   UNL     1       4.876   6.008  19.209  0.00  0.00    +0.000 NA
ATOM     11  H   UNL     1       5.121   6.820  18.645  0.00  0.00    +0.000 HD
BRANCH  10  12
ATOM     12  S   UNL     1       6.060   4.802  19.087  0.00  0.00    +0.000 S 
ATOM     13  O   UNL     1       5.369   3.538  19.213  0.00  0.00    +0.000 OA
ATOM     14  O   UNL     1       7.144   5.158  19.972  0.00  0.00    +0.000 OA
BRANCH  12  16
ATOM     15  C   UNL     1       5.685   4.243  16.445  0.00  0.00    +0.000 C 
ATOM     16  C   UNL     1       6.628   4.994  17.381  0.00  0.00    +0.000 C 
ATOM     17  C   UNL     1       6.724   6.461  16.971  0.00  0.00    +0.000 C 
ENDBRANCH  12  16
ENDBRANCH  10  12
ENDBRANCH   1  10
BRANCH   6  18
ATOM     18  C   UNL     1       0.875  11.129  18.757  0.00  0.00    +0.000 C 
BRANCH  18  19
ATOM     19  N   UNL     1      -0.573  11.297  18.721  0.00  0.00    +0.000 N 
ATOM     20  N   UNL     1      -1.309  10.547  17.866  0.00  0.00    +0.000 NA
ATOM     21  C   UNL     1      -2.588  10.929  18.079  0.00  0.00    +0.000 A 
ATOM     22  C   UNL     1      -2.653  11.903  19.111  0.00  0.00    +0.000 A 
ATOM     23  C   UNL     1      -1.350  12.083  19.518  0.00  0.00    +0.000 A 
ATOM     24  C   UNL     1      -0.944  13.006  20.609  0.00  0.00    +0.000 C 
ATOM     25  C   UNL     1      -2.222  13.449  21.373  0.00  0.00    +0.000 C 
ATOM     26  N   UNL     1      -3.351  13.783  20.475  0.00  0.00    +0.000 NA
ATOM     27  C   UNL     1      -3.820  12.597  19.725  0.00  0.00    +0.000 C 
ATOM     28  H   UNL     1      -3.022  14.465  19.791  0.00  0.00    +0.000 HD
BRANCH  21  29
ATOM     29  C   UNL     1      -3.761  10.366  17.322  0.00  0.00    +0.000 C 
ATOM     30  F   UNL     1      -4.687   9.757  18.106  0.00  0.00    +0.000 F 
ATOM     31  F   UNL     1      -4.418  11.339  16.629  0.00  0.00    +0.000 F 
ATOM     32  F   UNL     1      -3.363   9.449  16.398  0.00  0.00    +0.000 F 
ENDBRANCH  21  29
ENDBRANCH  18  19
ENDBRANCH   6  18
TORSDOF 6
ENDMDL
MODEL 3
REMARK VINA RESULT:      -8.5      5.022      9.340
REMARK  Name = 
REMARK  8 active torsions:
REMARK  status: ('A' for Active; 'I' for Inactive)
REMARK    1  A    between atoms: C_1  and  C_2
REMARK    2  A    between atoms: C_2  and  C_3
REMARK    3  A    between atoms: C_2  and  S_4
REMARK    4  A    between atoms: S_4  and  N_7
REMARK    5  A    between atoms: N_7  and  C_8
REMARK    6  A    between atoms: C_13  and  C_14
REMARK    7  A    between atoms: C_14  and  N_15
REMARK    8  A    between atoms: C_17  and  C_18
REMARK                            x       y       z     vdW  Elec       q    Type
REMARK                         _______ _______ _______ _____ _____    ______ ____
ROOT
ATOM      1  C   UNL     1       1.045  10.386  18.870  0.00  0.00    +0.000 C 
ATOM      2  C   UNL     1       1.273   9.747  20.255  0.00  0.00    +0.000 C 
ATOM      3  C   UNL     1       1.601   8.330  19.890  0.00  0.00    +0.000 A 
ATOM      4  C   UNL     1       1.610   7.225  20.717  0.00  0.00    +0.000 A 
ATOM      5  C   UNL     1       1.963   5.990  20.169  0.00  0.00    +0.000 A 
ATOM      6  C   UNL     1       2.305   5.866  18.804  0.00  0.00    +0.000 A 
ATOM      7  C   UNL     1       2.319   7.010  17.989  0.00  0.00    +0.000 A 
ATOM      8  C   UNL     1       1.964   8.227  18.545  0.00  0.00    +0.000 A 
ATOM      9  C   UNL     1       1.939   9.575  17.892  0.00  0.00    +0.000 C 
ENDROOT
BRANCH   1  10
ATOM     10  N   UNL     1      -0.389  10.268  18.413  0.00  0.00    +0.000 NA
ATOM     11  H   UNL     1      -0.434   9.743  17.541  0.00  0.00    +0.000 HD
BRANCH  10  12
ATOM     12  S   UNL     1      -1.252  11.721  18.293  0.00  0.00    +0.000 S 
ATOM     13  O   UNL     1      -2.308  11.491  17.332  0.00  0.00    +0.000 OA
ATOM     14  O   UNL     1      -0.297  12.789  18.119  0.00  0.00    +0.000 OA
BRANCH  12  16
ATOM     15  C   UNL     1      -1.050  12.679  20.838  0.00  0.00    +0.000 C 
ATOM     16  C   UNL     1      -1.982  11.870  19.941  0.00  0.00    +0.000 C 
ATOM     17  C   UNL     1      -3.366  12.513  19.898  0.00  0.00    +0.000 C 
ENDBRANCH  12  16
ENDBRANCH  10  12
ENDBRANCH   1  10
BRANCH   6  18
ATOM     18  C   UNL     1       2.653   4.511  18.238  0.00  0.00    +0.000 C 
BRANCH  18  19
ATOM     19  N   UNL     1       3.929   4.521  17.532  0.00  0.00    +0.000 N 
ATOM     20  N   UNL     1       3.946   4.361  16.187  0.00  0.00    +0.000 NA
ATOM     21  C   UNL     1       5.252   4.425  15.845  0.00  0.00    +0.000 A 
ATOM     22  C   UNL     1       6.057   4.672  16.988  0.00  0.00    +0.000 A 
ATOM     23  C   UNL     1       5.171   4.762  18.039  0.00  0.00    +0.000 A 
ATOM     24  C   UNL     1       5.575   5.040  19.441  0.00  0.00    +0.000 C 
ATOM     25  C   UNL     1       7.056   5.507  19.438  0.00  0.00    +0.000 C 
ATOM     26  N   UNL     1       7.919   4.702  18.543  0.00  0.00    +0.000 NA
ATOM     27  C   UNL     1       7.529   4.859  17.124  0.00  0.00    +0.000 C 
ATOM     28  H   UNL     1       7.797   3.718  18.785  0.00  0.00    +0.000 HD
BRANCH  21  29
ATOM     29  C   UNL     1       5.750   4.272  14.432  0.00  0.00    +0.000 C 
ATOM     30  F   UNL     1       4.763   4.169  13.505  0.00  0.00    +0.000 F 
ATOM     31  F   UNL     1       6.523   5.331  14.061  0.00  0.00    +0.000 F 
ATOM     32  F   UNL     1       6.534   3.167  14.298  0.00  0.00    +0.000 F 
ENDBRANCH  21  29
ENDBRANCH  18  19
ENDBRANCH   6  18
TORSDOF 6
ENDMDL
MODEL 4
REMARK VINA RESULT:      -8.5      5.442      9.678
REMARK  Name = 
REMARK  8 active torsions:
REMARK  status: ('A' for Active; 'I' for Inactive)
REMARK    1  A    between atoms: C_1  and  C_2
REMARK    2  A    between atoms: C_2  and  C_3
REMARK    3  A    between atoms: C_2  and  S_4
REMARK    4  A    between atoms: S_4  and  N_7
REMARK    5  A    between atoms: N_7  and  C_8
REMARK    6  A    between atoms: C_13  and  C_14
REMARK    7  A    between atoms: C_14  and  N_15
REMARK    8  A    between atoms: C_17  and  C_18
REMARK                            x       y       z     vdW  Elec       q    Type
REMARK                         _______ _______ _______ _____ _____    ______ ____
ROOT
ATOM      1  C   UNL     1       0.783  10.404  19.774  0.00  0.00    +0.000 C 
ATOM      2  C   UNL     1       1.029   9.465  20.972  0.00  0.00    +0.000 C 
ATOM      3  C   UNL     1       1.518   8.222  20.291  0.00  0.00    +0.000 A 
ATOM      4  C   UNL     1       1.615   6.951  20.822  0.00  0.00    +0.000 A 
ATOM      5  C   UNL     1       2.117   5.930  20.010  0.00  0.00    +0.000 A 
ATOM      6  C   UNL     1       2.516   6.183  18.680  0.00  0.00    +0.000 A 
ATOM      7  C   UNL     1       2.437   7.491  18.172  0.00  0.00    +0.000 A 
ATOM      8  C   UNL     1       1.936   8.492  18.986  0.00  0.00    +0.000 A 
ATOM      9  C   UNL     1       1.791   9.952  18.683  0.00  0.00    +0.000 C 
ENDROOT
BRANCH   1  10
ATOM     10  N   UNL     1      -0.614  10.270  19.217  0.00  0.00    +0.000 NA
ATOM     11  H   UNL     1      -0.613   9.628  18.427  0.00  0.00    +0.000 HD
BRANCH  10  12
ATOM     12  S   UNL     1      -1.399  11.719  18.822  0.00  0.00    +0.000 S 
ATOM     13  O   UNL     1      -0.372  12.628  18.364  0.00  0.00    +0.000 OA
ATOM     14  O   UNL     1      -2.271  12.062  19.921  0.00  0.00    +0.000 OA
BRANCH  12  16
ATOM     15  C   UNL     1      -2.039   9.819  16.975  0.00  0.00    +0.000 C 
ATOM     16  C   UNL     1      -2.422  11.229  17.413  0.00  0.00    +0.000 C 
ATOM     17  C   UNL     1      -3.912  11.297  17.737  0.00  0.00    +0.000 C 
ENDBRANCH  12  16
ENDBRANCH  10  12
ENDBRANCH   1  10
BRANCH   6  18
ATOM     18  C   UNL     1       3.026   5.051  17.822  0.00  0.00    +0.000 C 
BRANCH  18  19
ATOM     19  N   UNL     1       4.465   5.133  17.603  0.00  0.00    +0.000 N 
ATOM     20  N   UNL     1       5.287   5.365  18.655  0.00  0.00    +0.000 NA
ATOM     21  C   UNL     1       6.532   5.374  18.130  0.00  0.00    +0.000 A 
ATOM     22  C   UNL     1       6.489   5.103  16.737  0.00  0.00    +0.000 A 
ATOM     23  C   UNL     1       5.155   4.919  16.447  0.00  0.00    +0.000 A 
ATOM     24  C   UNL     1       4.639   4.584  15.094  0.00  0.00    +0.000 C 
ATOM     25  C   UNL     1       5.844   4.182  14.200  0.00  0.00    +0.000 C 
ATOM     26  N   UNL     1       7.018   5.071  14.369  0.00  0.00    +0.000 NA
ATOM     27  C   UNL     1       7.583   4.972  15.734  0.00  0.00    +0.000 C 
ATOM     28  H   UNL     1       6.709   6.034  14.236  0.00  0.00    +0.000 HD
BRANCH  21  29
ATOM     29  C   UNL     1       7.774   5.624  18.942  0.00  0.00    +0.000 C 
ATOM     30  F   UNL     1       8.710   4.644  18.839  0.00  0.00    +0.000 F 
ATOM     31  F   UNL     1       8.385   6.784  18.572  0.00  0.00    +0.000 F 
ATOM     32  F   UNL     1       7.486   5.755  20.266  0.00  0.00    +0.000 F 
ENDBRANCH  21  29
ENDBRANCH  18  19
ENDBRANCH   6  18
TORSDOF 6
ENDMDL
MODEL 5
REMARK VINA RESULT:      -8.4      0.843      1.075
REMARK  Name = 
REMARK  8 active torsions:
REMARK  status: ('A' for Active; 'I' for Inactive)
REMARK    1  A    between atoms: C_1  and  C_2
REMARK    2  A    between atoms: C_2  and  C_3
REMARK    3  A    between atoms: C_2  and  S_4
REMARK    4  A    between atoms: S_4  and  N_7
REMARK    5  A    between atoms: N_7  and  C_8
REMARK    6  A    between atoms: C_13  and  C_14
REMARK    7  A    between atoms: C_14  and  N_15
REMARK    8  A    between atoms: C_17  and  C_18
REMARK                            x       y       z     vdW  Elec       q    Type
REMARK                         _______ _______ _______ _____ _____    ______ ____
ROOT
ATOM      1  C   UNL     1       3.877   5.586  18.691  0.00  0.00    +0.000 C 
ATOM      2  C   UNL     1       2.792   5.561  19.785  0.00  0.00    +0.000 C 
ATOM      3  C   UNL     1       2.244   6.954  19.706  0.00  0.00    +0.000 A 
ATOM      4  C   UNL     1       1.458   7.608  20.635  0.00  0.00    +0.000 A 
ATOM      5  C   UNL     1       1.040   8.910  20.351  0.00  0.00    +0.000 A 
ATOM      6  C   UNL     1       1.407   9.550  19.147  0.00  0.00    +0.000 A 
ATOM      7  C   UNL     1       2.181   8.854  18.203  0.00  0.00    +0.000 A 
ATOM      8  C   UNL     1       2.590   7.565  18.498  0.00  0.00    +0.000 A 
ATOM      9  C   UNL     1       3.382   6.622  17.645  0.00  0.00    +0.000 C 
ENDROOT
BRANCH   1  10
ATOM     10  N   UNL     1       5.215   6.045  19.218  0.00  0.00    +0.000 NA
ATOM     11  H   UNL     1       5.428   6.976  18.863  0.00  0.00    +0.000 HD
BRANCH  10  12
ATOM     12  S   UNL     1       6.515   4.987  18.971  0.00  0.00    +0.000 S 
ATOM     13  O   UNL     1       5.938   3.697  18.660  0.00  0.00    +0.000 OA
ATOM     14  O   UNL     1       7.435   5.153  20.070  0.00  0.00    +0.000 OA
BRANCH  12  16
ATOM     15  C   UNL     1       6.584   5.089  16.247  0.00  0.00    +0.000 C 
ATOM     16  C   UNL     1       7.280   5.662  17.478  0.00  0.00    +0.000 C 
ATOM     17  C   UNL     1       7.233   7.188  17.450  0.00  0.00    +0.000 C 
ENDBRANCH  12  16
ENDBRANCH  10  12
ENDBRANCH   1  10
BRANCH   6  18
ATOM     18  C   UNL     1       0.963  10.968  18.886  0.00  0.00    +0.000 C 
BRANCH  18  19
ATOM     19  N   UNL     1      -0.457  11.049  18.564  0.00  0.00    +0.000 N 
ATOM     20  N   UNL     1      -0.936  10.369  17.494  0.00  0.00    +0.000 NA
ATOM     21  C   UNL     1      -2.260  10.640  17.473  0.00  0.00    +0.000 A 
ATOM     22  C   UNL     1      -2.618  11.467  18.570  0.00  0.00    +0.000 A 
ATOM     23  C   UNL     1      -1.445  11.676  19.262  0.00  0.00    +0.000 A 
ATOM     24  C   UNL     1      -1.351  12.475  20.510  0.00  0.00    +0.000 C 
ATOM     25  C   UNL     1      -2.790  12.736  21.032  0.00  0.00    +0.000 C 
ATOM     26  N   UNL     1      -3.740  13.111  19.958  0.00  0.00    +0.000 NA
ATOM     27  C   UNL     1      -3.941  12.003  18.998  0.00  0.00    +0.000 C 
ATOM     28  H   UNL     1      -3.340  13.894  19.440  0.00  0.00    +0.000 HD
BRANCH  21  29
ATOM     29  C   UNL     1      -3.202  10.106  16.427  0.00  0.00    +0.000 C 
ATOM     30  F   UNL     1      -3.775  11.066  15.655  0.00  0.00    +0.000 F 
ATOM     31  F   UNL     1      -2.566   9.252  15.577  0.00  0.00    +0.000 F 
ATOM     32  F   UNL     1      -4.217   9.394  16.988  0.00  0.00    +0.000 F 
ENDBRANCH  21  29
ENDBRANCH  18  19
ENDBRANCH   6  18
TORSDOF 6
ENDMDL
MODEL 6
REMARK VINA RESULT:      -8.4      2.141      2.870
REMARK  Name = 
REMARK  8 active torsions:
REMARK  status: ('A' for Active; 'I' for Inactive)
REMARK    1  A    between atoms: C_1  and  C_2
REMARK    2  A    between atoms: C_2  and  C_3
REMARK    3  A    between atoms: C_2  and  S_4
REMARK    4  A    between atoms: S_4  and  N_7
REMARK    5  A    between atoms: N_7  and  C_8
REMARK    6  A    between atoms: C_13  and  C_14
REMARK    7  A    between atoms: C_14  and  N_15
REMARK    8  A    between atoms: C_17  and  C_18
REMARK                            x       y       z     vdW  Elec       q    Type
REMARK                         _______ _______ _______ _____ _____    ______ ____
ROOT
ATOM      1  C   UNL     1       3.045   5.534  19.248  0.00  0.00    +0.000 C 
ATOM      2  C   UNL     1       2.102   5.821  20.433  0.00  0.00    +0.000 C 
ATOM      3  C   UNL     1       1.721   7.250  20.183  0.00  0.00    +0.000 A 
ATOM      4  C   UNL     1       1.135   8.135  21.066  0.00  0.00    +0.000 A 
ATOM      5  C   UNL     1       0.848   9.426  20.617  0.00  0.00    +0.000 A 
ATOM      6  C   UNL     1       1.145   9.824  19.296  0.00  0.00    +0.000 A 
ATOM      7  C   UNL     1       1.712   8.897  18.406  0.00  0.00    +0.000 A 
ATOM      8  C   UNL     1       1.994   7.621  18.865  0.00  0.00    +0.000 A 
ATOM      9  C   UNL     1       2.559   6.462  18.102  0.00  0.00    +0.000 C 
ENDROOT
BRANCH   1  10
ATOM     10  N   UNL     1       4.482   5.876  19.562  0.00  0.00    +0.000 NA
ATOM     11  H   UNL     1       4.720   6.780  19.156  0.00  0.00    +0.000 HD
BRANCH  10  12
ATOM     12  S   UNL     1       5.632   4.703  19.150  0.00  0.00    +0.000 S 
ATOM     13  O   UNL     1       5.023   3.420  19.423  0.00  0.00    +0.000 OA
ATOM     14  O   UNL     1       6.887   5.083  19.756  0.00  0.00    +0.000 OA
BRANCH  12  16
ATOM     15  C   UNL     1       7.241   4.820  16.952  0.00  0.00    +0.000 C 
ATOM     16  C   UNL     1       5.774   4.916  17.360  0.00  0.00    +0.000 C 
ATOM     17  C   UNL     1       4.943   3.890  16.593  0.00  0.00    +0.000 C 
ENDBRANCH  12  16
ENDBRANCH  10  12
ENDBRANCH   1  10
BRANCH   6  18
ATOM     18  C   UNL     1       0.848  11.236  18.853  0.00  0.00    +0.000 C 
BRANCH  18  19
ATOM     19  N   UNL     1      -0.529  11.622  19.134  0.00  0.00    +0.000 N 
ATOM     20  N   UNL     1      -0.783  12.514  20.122  0.00  0.00    +0.000 NA
ATOM     21  C   UNL     1      -2.126  12.661  20.123  0.00  0.00    +0.000 A 
ATOM     22  C   UNL     1      -2.715  11.881  19.093  0.00  0.00    +0.000 A 
ATOM     23  C   UNL     1      -1.659  11.262  18.462  0.00  0.00    +0.000 A 
ATOM     24  C   UNL     1      -1.808  10.357  17.293  0.00  0.00    +0.000 C 
ATOM     25  C   UNL     1      -3.256  10.498  16.750  0.00  0.00    +0.000 C 
ATOM     26  N   UNL     1      -4.280  10.532  17.821  0.00  0.00    +0.000 NA
ATOM     27  C   UNL     1      -4.137  11.735  18.672  0.00  0.00    +0.000 C 
ATOM     28  H   UNL     1      -4.141   9.718  18.419  0.00  0.00    +0.000 HD
BRANCH  21  29
ATOM     29  C   UNL     1      -2.864  13.552  21.086  0.00  0.00    +0.000 C 
ATOM     30  F   UNL     1      -3.598  14.527  20.489  0.00  0.00    +0.000 F 
ATOM     31  F   UNL     1      -3.726  12.838  21.863  0.00  0.00    +0.000 F 
ATOM     32  F   UNL     1      -2.009  14.173  21.945  0.00  0.00    +0.000 F 
ENDBRANCH  21  29
ENDBRANCH  18  19
ENDBRANCH   6  18
TORSDOF 6
ENDMDL
MODEL 7
REMARK VINA RESULT:      -8.2      5.093      9.290
REMARK  Name = 
REMARK  8 active torsions:
REMARK  status: ('A' for Active; 'I' for Inactive)
REMARK    1  A    between atoms: C_1  and  C_2
REMARK    2  A    between atoms: C_2  and  C_3
REMARK    3  A    between atoms: C_2  and  S_4
REMARK    4  A    between atoms: S_4  and  N_7
REMARK    5  A    between atoms: N_7  and  C_8
REMARK    6  A    between atoms: C_13  and  C_14
REMARK    7  A    between atoms: C_14  and  N_15
REMARK    8  A    between atoms: C_17  and  C_18
REMARK                            x       y       z     vdW  Elec       q    Type
REMARK                         _______ _______ _______ _____ _____    ______ ____
ROOT
ATOM      1  C   UNL     1       1.211  10.374  18.779  0.00  0.00    +0.000 C 
ATOM      2  C   UNL     1       1.287   9.732  20.179  0.00  0.00    +0.000 C 
ATOM      3  C   UNL     1       1.614   8.307  19.846  0.00  0.00    +0.000 A 
ATOM      4  C   UNL     1       1.514   7.203  20.669  0.00  0.00    +0.000 A 
ATOM      5  C   UNL     1       1.889   5.959  20.156  0.00  0.00    +0.000 A 
ATOM      6  C   UNL     1       2.360   5.825  18.832  0.00  0.00    +0.000 A 
ATOM      7  C   UNL     1       2.482   6.967  18.023  0.00  0.00    +0.000 A 
ATOM      8  C   UNL     1       2.104   8.194  18.543  0.00  0.00    +0.000 A 
ATOM      9  C   UNL     1       2.177   9.541  17.893  0.00  0.00    +0.000 C 
ENDROOT
BRANCH   1  10
ATOM     10  N   UNL     1      -0.173  10.292  18.183  0.00  0.00    +0.000 NA
ATOM     11  H   UNL     1      -0.111  10.235  17.168  0.00  0.00    +0.000 HD
BRANCH  10  12
ATOM     12  S   UNL     1      -1.261  11.499  18.661  0.00  0.00    +0.000 S 
ATOM     13  O   UNL     1      -2.015  10.954  19.768  0.00  0.00    +0.000 OA
ATOM     14  O   UNL     1      -1.919  11.994  17.475  0.00  0.00    +0.000 OA
BRANCH  12  16
ATOM     15  C   UNL     1      -0.184  13.982  18.332  0.00  0.00    +0.000 C 
ATOM     16  C   UNL     1      -0.155  12.788  19.281  0.00  0.00    +0.000 C 
ATOM     17  C   UNL     1      -0.525  13.228  20.696  0.00  0.00    +0.000 C 
ENDBRANCH  12  16
ENDBRANCH  10  12
ENDBRANCH   1  10
BRANCH   6  18
ATOM     18  C   UNL     1       2.729   4.461  18.302  0.00  0.00    +0.000 C 
BRANCH  18  19
ATOM     19  N   UNL     1       3.992   4.477  17.575  0.00  0.00    +0.000 N 
ATOM     20  N   UNL     1       3.989   4.308  16.230  0.00  0.00    +0.000 NA
ATOM     21  C   UNL     1       5.289   4.381  15.866  0.00  0.00    +0.000 A 
ATOM     22  C   UNL     1       6.110   4.640  16.995  0.00  0.00    +0.000 A 
ATOM     23  C   UNL     1       5.240   4.730  18.060  0.00  0.00    +0.000 A 
ATOM     24  C   UNL     1       5.665   5.020  19.454  0.00  0.00    +0.000 C 
ATOM     25  C   UNL     1       7.142   5.498  19.423  0.00  0.00    +0.000 C 
ATOM     26  N   UNL     1       7.997   4.693  18.519  0.00  0.00    +0.000 NA
ATOM     27  C   UNL     1       7.582   4.839  17.106  0.00  0.00    +0.000 C 
ATOM     28  H   UNL     1       7.887   3.710  18.769  0.00  0.00    +0.000 HD
BRANCH  21  29
ATOM     29  C   UNL     1       5.764   4.223  14.447  0.00  0.00    +0.000 C 
ATOM     30  F   UNL     1       4.766   4.210  13.525  0.00  0.00    +0.000 F 
ATOM     31  F   UNL     1       6.609   5.232  14.091  0.00  0.00    +0.000 F 
ATOM     32  F   UNL     1       6.466   3.068  14.282  0.00  0.00    +0.000 F 
ENDBRANCH  21  29
ENDBRANCH  18  19
ENDBRANCH   6  18
TORSDOF 6
ENDMDL
MODEL 8
REMARK VINA RESULT:      -8.2      2.040      3.351
REMARK  Name = 
REMARK  8 active torsions:
REMARK  status: ('A' for Active; 'I' for Inactive)
REMARK    1  A    between atoms: C_1  and  C_2
REMARK    2  A    between atoms: C_2  and  C_3
REMARK    3  A    between atoms: C_2  and  S_4
REMARK    4  A    between atoms: S_4  and  N_7
REMARK    5  A    between atoms: N_7  and  C_8
REMARK    6  A    between atoms: C_13  and  C_14
REMARK    7  A    between atoms: C_14  and  N_15
REMARK    8  A    between atoms: C_17  and  C_18
REMARK                            x       y       z     vdW  Elec       q    Type
REMARK                         _______ _______ _______ _____ _____    ______ ____
ROOT
ATOM      1  C   UNL     1       4.573   4.694  18.321  0.00  0.00    +0.000 C 
ATOM      2  C   UNL     1       4.493   5.857  17.311  0.00  0.00    +0.000 C 
ATOM      3  C   UNL     1       3.481   6.755  17.957  0.00  0.00    +0.000 A 
ATOM      4  C   UNL     1       2.787   7.799  17.378  0.00  0.00    +0.000 A 
ATOM      5  C   UNL     1       1.894   8.523  18.172  0.00  0.00    +0.000 A 
ATOM      6  C   UNL     1       1.701   8.202  19.534  0.00  0.00    +0.000 A 
ATOM      7  C   UNL     1       2.441   7.155  20.109  0.00  0.00    +0.000 A 
ATOM      8  C   UNL     1       3.320   6.445  19.309  0.00  0.00    +0.000 A 
ATOM      9  C   UNL     1       4.234   5.324  19.700  0.00  0.00    +0.000 C 
ENDROOT
BRANCH   1  10
ATOM     10  N   UNL     1       3.562   3.611  18.031  0.00  0.00    +0.000 NA
ATOM     11  H   UNL     1       2.624   4.009  18.006  0.00  0.00    +0.000 HD
BRANCH  10  12
ATOM     12  S   UNL     1       3.619   2.252  19.040  0.00  0.00    +0.000 S 
ATOM     13  O   UNL     1       4.689   2.489  19.985  0.00  0.00    +0.000 OA
ATOM     14  O   UNL     1       3.605   1.078  18.200  0.00  0.00    +0.000 OA
BRANCH  12  16
ATOM     15  C   UNL     1       2.280   2.735  21.366  0.00  0.00    +0.000 C 
ATOM     16  C   UNL     1       2.036   2.352  19.909  0.00  0.00    +0.000 C 
ATOM     17  C   UNL     1       1.084   3.348  19.251  0.00  0.00    +0.000 C 
ENDBRANCH  12  16
ENDBRANCH  10  12
ENDBRANCH   1  10
BRANCH   6  18
ATOM     18  C   UNL     1       0.706   8.985  20.355  0.00  0.00    +0.000 C 
BRANCH  18  19
ATOM     19  N   UNL     1       0.042  10.020  19.573  0.00  0.00    +0.000 N 
ATOM     20  N   UNL     1      -1.080   9.713  18.878  0.00  0.00    +0.000 NA
ATOM     21  C   UNL     1      -1.446  10.867  18.278  0.00  0.00    +0.000 A 
ATOM     22  C   UNL     1      -0.564  11.919  18.638  0.00  0.00    +0.000 A 
ATOM     23  C   UNL     1       0.350  11.346  19.493  0.00  0.00    +0.000 A 
ATOM     24  C   UNL     1       1.458  12.092  20.143  0.00  0.00    +0.000 C 
ATOM     25  C   UNL     1       1.203  13.611  19.945  0.00  0.00    +0.000 C 
ATOM     26  N   UNL     1       0.756  13.953  18.575  0.00  0.00    +0.000 NA
ATOM     27  C   UNL     1      -0.566  13.363  18.270  0.00  0.00    +0.000 C 
ATOM     28  H   UNL     1       1.426  13.558  17.914  0.00  0.00    +0.000 HD
BRANCH  21  29
ATOM     29  C   UNL     1      -2.643  10.990  17.373  0.00  0.00    +0.000 C 
ATOM     30  F   UNL     1      -3.314   9.824  17.179  0.00  0.00    +0.000 F 
ATOM     31  F   UNL     1      -3.549  11.881  17.866  0.00  0.00    +0.000 F 
ATOM     32  F   UNL     1      -2.292  11.451  16.142  0.00  0.00    +0.000 F 
ENDBRANCH  21  29
ENDBRANCH  18  19
ENDBRANCH   6  18
TORSDOF 6
ENDMDL
MODEL 9
REMARK VINA RESULT:      -8.1      1.876      2.626
REMARK  Name = 
REMARK  8 active torsions:
REMARK  status: ('A' for Active; 'I' for Inactive)
REMARK    1  A    between atoms: C_1  and  C_2
REMARK    2  A    between atoms: C_2  and  C_3
REMARK    3  A    between atoms: C_2  and  S_4
REMARK    4  A    between atoms: S_4  and  N_7
REMARK    5  A    between atoms: N_7  and  C_8
REMARK    6  A    between atoms: C_13  and  C_14
REMARK    7  A    between atoms: C_14  and  N_15
REMARK    8  A    between atoms: C_17  and  C_18
REMARK                            x       y       z     vdW  Elec       q    Type
REMARK                         _______ _______ _______ _____ _____    ______ ____
ROOT
ATOM      1  C   UNL     1       4.181   5.922  17.315  0.00  0.00    +0.000 C 
ATOM      2  C   UNL     1       3.326   5.037  18.244  0.00  0.00    +0.000 C 
ATOM      3  C   UNL     1       2.639   6.060  19.097  0.00  0.00    +0.000 A 
ATOM      4  C   UNL     1       1.980   5.857  20.293  0.00  0.00    +0.000 A 
ATOM      5  C   UNL     1       1.391   6.958  20.920  0.00  0.00    +0.000 A 
ATOM      6  C   UNL     1       1.463   8.249  20.352  0.00  0.00    +0.000 A 
ATOM      7  C   UNL     1       2.112   8.425  19.118  0.00  0.00    +0.000 A 
ATOM      8  C   UNL     1       2.694   7.326  18.509  0.00  0.00    +0.000 A 
ATOM      9  C   UNL     1       3.401   7.259  17.191  0.00  0.00    +0.000 C 
ENDROOT
BRANCH   1  10
ATOM     10  N   UNL     1       5.543   6.218  17.897  0.00  0.00    +0.000 NA
ATOM     11  H   UNL     1       5.653   7.222  18.029  0.00  0.00    +0.000 HD
BRANCH  10  12
ATOM     12  S   UNL     1       6.865   5.564  17.064  0.00  0.00    +0.000 S 
ATOM     13  O   UNL     1       7.390   4.505  17.898  0.00  0.00    +0.000 OA
ATOM     14  O   UNL     1       7.697   6.660  16.628  0.00  0.00    +0.000 OA
BRANCH  12  16
ATOM     15  C   UNL     1       6.988   5.003  14.399  0.00  0.00    +0.000 C 
ATOM     16  C   UNL     1       6.077   4.831  15.611  0.00  0.00    +0.000 C 
ATOM     17  C   UNL     1       5.749   3.354  15.821  0.00  0.00    +0.000 C 
ENDBRANCH  12  16
ENDBRANCH  10  12
ENDBRANCH   1  10
BRANCH   6  18
ATOM     18  C   UNL     1       0.841   9.421  21.071  0.00  0.00    +0.000 C 
BRANCH  18  19
ATOM     19  N   UNL     1       0.185  10.344  20.153  0.00  0.00    +0.000 N 
ATOM     20  N   UNL     1      -0.916   9.939  19.475  0.00  0.00    +0.000 NA
ATOM     21  C   UNL     1      -1.280  11.006  18.731  0.00  0.00    +0.000 A 
ATOM     22  C   UNL     1      -0.417  12.106  18.979  0.00  0.00    +0.000 A 
ATOM     23  C   UNL     1       0.481  11.654  19.920  0.00  0.00    +0.000 A 
ATOM     24  C   UNL     1       1.565  12.488  20.499  0.00  0.00    +0.000 C 
ATOM     25  C   UNL     1       1.299  13.969  20.111  0.00  0.00    +0.000 C 
ATOM     26  N   UNL     1       0.882  14.135  18.699  0.00  0.00    +0.000 NA
ATOM     27  C   UNL     1      -0.426  13.495  18.439  0.00  0.00    +0.000 C 
ATOM     28  H   UNL     1       1.572  13.671  18.107  0.00  0.00    +0.000 HD
BRANCH  21  29
ATOM     29  C   UNL     1      -2.456  11.002  17.790  0.00  0.00    +0.000 C 
ATOM     30  F   UNL     1      -2.178  11.488  16.553  0.00  0.00    +0.000 F 
ATOM     31  F   UNL     1      -2.944   9.742  17.612  0.00  0.00    +0.000 F 
ATOM     32  F   UNL     1      -3.488  11.741  18.281  0.00  0.00    +0.000 F 
ENDBRANCH  21  29
ENDBRANCH  18  19
ENDBRANCH   6  18
TORSDOF 6
ENDMDL
