MODEL 1
REMARK VINA RESULT:      -7.7      0.000      0.000
REMARK  Name = 
REMARK  11 active torsions:
REMARK  status: ('A' for Active; 'I' for Inactive)
REMARK    1  A    between atoms: C_1  and  C_2
REMARK    2  A    between atoms: C_2  and  C_3
REMARK    3  A    between atoms: C_2  and  C_4
REMARK    4  A    between atoms: C_2  and  C_5
REMARK    5  A    between atoms: C_5  and  C_6
REMARK    6  A    between atoms: C_6  and  N_7
REMARK    7  A    between atoms: C_10  and  C_11
REMARK    8  A    between atoms: C_11  and  N_12
REMARK    9  A    between atoms: C_13  and  C_15
REMARK   10  A    between atoms: C_17  and  C_18
REMARK   11  A    between atoms: C_22  and  C_23
REMARK                            x       y       z     vdW  Elec       q    Type
REMARK                         _______ _______ _______ _____ _____    ______ ____
ROOT
ATOM      1  N   UNL     1      -0.181  10.716  18.605  0.00  0.00    +0.000 N 
ATOM      2  C   UNL     1       1.182  10.547  18.579  0.00  0.00    +0.000 C 
ATOM      3  O   UNL     1       1.958  11.473  18.356  0.00  0.00    +0.000 OA
ATOM      4  H   UNL     1      -0.737   9.883  18.756  0.00  0.00    +0.000 HD
ENDROOT
BRANCH   2   5
ATOM      5  C   UNL     1       1.624   9.186  18.857  0.00  0.00    +0.000 A 
ATOM      6  C   UNL     1       2.251   8.318  17.984  0.00  0.00    +0.000 A 
ATOM      7  C   UNL     1       2.606   7.068  18.589  0.00  0.00    +0.000 A 
ATOM      8  C   UNL     1       2.215   7.037  19.914  0.00  0.00    +0.000 A 
ATOM      9  S   UNL     1       1.429   8.468  20.403  0.00  0.00    +0.000 S 
BRANCH   7  10
ATOM     10  C   UNL     1       3.354   5.970  17.987  0.00  0.00    +0.000 A 
ATOM     11  C   UNL     1       2.727   4.763  17.649  0.00  0.00    +0.000 A 
ATOM     12  C   UNL     1       3.467   3.698  17.135  0.00  0.00    +0.000 A 
ATOM     13  C   UNL     1       4.842   3.828  16.946  0.00  0.00    +0.000 A 
ATOM     14  C   UNL     1       5.488   5.031  17.258  0.00  0.00    +0.000 A 
ATOM     15  C   UNL     1       4.733   6.098  17.772  0.00  0.00    +0.000 A 
BRANCH  14  16
ATOM     16  C   UNL     1       6.976   5.197  17.071  0.00  0.00    +0.000 C 
ATOM     17  F   UNL     1       7.339   6.446  16.670  0.00  0.00    +0.000 F 
ATOM     18  F   UNL     1       7.674   4.951  18.213  0.00  0.00    +0.000 F 
ATOM     19  F   UNL     1       7.479   4.344  16.135  0.00  0.00    +0.000 F 
ENDBRANCH  14  16
ENDBRANCH   7  10
ENDBRANCH   2   5
BRANCH   1  20
ATOM     20  C   UNL     1      -0.859  11.968  18.371  0.00  0.00    +0.000 C 
BRANCH  20  24
ATOM     21  N   UNL     1      -0.375  12.103  21.786  0.00  0.00    +0.000 NA
ATOM     22  C   UNL     1       0.268  13.230  21.087  0.00  0.00    +0.000 C 
ATOM     23  C   UNL     1      -0.813  13.775  20.175  0.00  0.00    +0.000 C 
ATOM     24  C   UNL     1      -1.490  12.507  19.658  0.00  0.00    +0.000 C 
ATOM     25  C   UNL     1      -1.299  11.500  20.800  0.00  0.00    +0.000 C 
BRANCH  21  26
ATOM     26  C   UNL     1      -1.078  12.591  22.986  0.00  0.00    +0.000 C 
BRANCH  26  27
ATOM     27  C   UNL     1      -2.436  11.909  23.228  0.00  0.00    +0.000 C 
BRANCH  27  29
ATOM     28  C   UNL     1      -3.130  14.344  23.565  0.00  0.00    +0.000 C 
ATOM     29  C   UNL     1      -3.622  12.893  23.421  0.00  0.00    +0.000 C 
ATOM     30  C   UNL     1      -4.455  12.510  24.655  0.00  0.00    +0.000 C 
ATOM     31  C   UNL     1      -4.524  12.812  22.174  0.00  0.00    +0.000 C 
ENDBRANCH  27  29
ENDBRANCH  26  27
ENDBRANCH  21  26
ENDBRANCH  20  24
ENDBRANCH   1  20
TORSDOF 8
ENDMDL
MODEL 2
REMARK VINA RESULT:      -7.2      3.249      4.965
REMARK  Name = 
REMARK  11 active torsions:
REMARK  status: ('A' for Active; 'I' for Inactive)
REMARK    1  A    between atoms: C_1  and  C_2
REMARK    2  A    between atoms: C_2  and  C_3
REMARK    3  A    between atoms: C_2  and  C_4
REMARK    4  A    between atoms: C_2  and  C_5
REMARK    5  A    between atoms: C_5  and  C_6
REMARK    6  A    between atoms: C_6  and  N_7
REMARK    7  A    between atoms: C_10  and  C_11
REMARK    8  A    between atoms: C_11  and  N_12
REMARK    9  A    between atoms: C_13  and  C_15
REMARK   10  A    between atoms: C_17  and  C_18
REMARK   11  A    between atoms: C_22  and  C_23
REMARK                            x       y       z     vdW  Elec       q    Type
REMARK                         _______ _______ _______ _____ _____    ______ ____
ROOT
ATOM      1  N   UNL     1       2.051   6.319  20.126  0.00  0.00    +0.000 N 
ATOM      2  C   UNL     1       1.777   4.980  19.984  0.00  0.00    +0.000 C 
ATOM      3  O   UNL     1       0.906   4.412  20.638  0.00  0.00    +0.000 OA
ATOM      4  H   UNL     1       2.816   6.684  19.573  0.00  0.00    +0.000 HD
ENDROOT
BRANCH   2   5
ATOM      5  C   UNL     1       2.592   4.303  18.984  0.00  0.00    +0.000 A 
ATOM      6  C   UNL     1       3.477   4.884  18.096  0.00  0.00    +0.000 A 
ATOM      7  C   UNL     1       4.167   3.929  17.280  0.00  0.00    +0.000 A 
ATOM      8  C   UNL     1       3.759   2.643  17.580  0.00  0.00    +0.000 A 
ATOM      9  S   UNL     1       2.568   2.597  18.799  0.00  0.00    +0.000 S 
BRANCH   7  10
ATOM     10  C   UNL     1       5.226   4.188  16.311  0.00  0.00    +0.000 A 
ATOM     11  C   UNL     1       6.374   4.909  16.664  0.00  0.00    +0.000 A 
ATOM     12  C   UNL     1       7.347   5.206  15.711  0.00  0.00    +0.000 A 
ATOM     13  C   UNL     1       7.190   4.779  14.393  0.00  0.00    +0.000 A 
ATOM     14  C   UNL     1       6.059   4.040  14.019  0.00  0.00    +0.000 A 
ATOM     15  C   UNL     1       5.087   3.744  14.988  0.00  0.00    +0.000 A 
BRANCH  14  16
ATOM     16  C   UNL     1       5.859   3.573  12.599  0.00  0.00    +0.000 C 
ATOM     17  F   UNL     1       6.695   4.171  11.706  0.00  0.00    +0.000 F 
ATOM     18  F   UNL     1       6.059   2.234  12.460  0.00  0.00    +0.000 F 
ATOM     19  F   UNL     1       4.597   3.811  12.147  0.00  0.00    +0.000 F 
ENDBRANCH  14  16
ENDBRANCH   7  10
ENDBRANCH   2   5
BRANCH   1  20
ATOM     20  C   UNL     1       1.374   7.204  21.043  0.00  0.00    +0.000 C 
BRANCH  20  24
ATOM     21  N   UNL     1       0.346   9.872  19.108  0.00  0.00    +0.000 NA
ATOM     22  C   UNL     1      -0.357   9.818  20.403  0.00  0.00    +0.000 C 
ATOM     23  C   UNL     1       0.749   9.650  21.426  0.00  0.00    +0.000 C 
ATOM     24  C   UNL     1       1.698   8.670  20.740  0.00  0.00    +0.000 C 
ATOM     25  C   UNL     1       1.499   8.956  19.246  0.00  0.00    +0.000 C 
BRANCH  21  26
ATOM     26  C   UNL     1       0.762  11.257  18.820  0.00  0.00    +0.000 C 
BRANCH  26  27
ATOM     27  C   UNL     1      -0.283  12.312  19.221  0.00  0.00    +0.000 C 
BRANCH  27  29
ATOM     28  C   UNL     1      -0.303  13.418  21.524  0.00  0.00    +0.000 C 
ATOM     29  C   UNL     1       0.276  13.466  20.098  0.00  0.00    +0.000 C 
ATOM     30  C   UNL     1      -0.033  14.832  19.466  0.00  0.00    +0.000 C 
ATOM     31  C   UNL     1       1.805  13.302  20.195  0.00  0.00    +0.000 C 
ENDBRANCH  27  29
ENDBRANCH  26  27
ENDBRANCH  21  26
ENDBRANCH  20  24
ENDBRANCH   1  20
TORSDOF 8
ENDMDL
MODEL 3
REMARK VINA RESULT:      -7.1      5.659     10.590
REMARK  Name = 
REMARK  11 active torsions:
REMARK  status: ('A' for Active; 'I' for Inactive)
REMARK    1  A    between atoms: C_1  and  C_2
REMARK    2  A    between atoms: C_2  and  C_3
REMARK    3  A    between atoms: C_2  and  C_4
REMARK    4  A    between atoms: C_2  and  C_5
REMARK    5  A    between atoms: C_5  and  C_6
REMARK    6  A    between atoms: C_6  and  N_7
REMARK    7  A    between atoms: C_10  and  C_11
REMARK    8  A    between atoms: C_11  and  N_12
REMARK    9  A    between atoms: C_13  and  C_15
REMARK   10  A    between atoms: C_17  and  C_18
REMARK   11  A    between atoms: C_22  and  C_23
REMARK                            x       y       z     vdW  Elec       q    Type
REMARK                         _______ _______ _______ _____ _____    ______ ____
ROOT
ATOM      1  N   UNL     1       1.334   8.024  20.094  0.00  0.00    +0.000 N 
ATOM      2  C   UNL     1       1.042   9.043  20.968  0.00  0.00    +0.000 C 
ATOM      3  O   UNL     1       1.542   9.116  22.087  0.00  0.00    +0.000 OA
ATOM      4  H   UNL     1       0.837   8.029  19.212  0.00  0.00    +0.000 HD
ENDROOT
BRANCH   2   5
ATOM      5  C   UNL     1       0.106  10.032  20.446  0.00  0.00    +0.000 A 
ATOM      6  C   UNL     1      -0.744   9.887  19.367  0.00  0.00    +0.000 A 
ATOM      7  C   UNL     1      -1.578  11.032  19.149  0.00  0.00    +0.000 A 
ATOM      8  C   UNL     1      -1.311  12.017  20.081  0.00  0.00    +0.000 A 
ATOM      9  S   UNL     1      -0.078  11.575  21.172  0.00  0.00    +0.000 S 
BRANCH   7  10
ATOM     10  C   UNL     1      -2.643  11.181  18.164  0.00  0.00    +0.000 A 
ATOM     11  C   UNL     1      -2.431  10.875  16.812  0.00  0.00    +0.000 A 
ATOM     12  C   UNL     1      -3.438  11.086  15.871  0.00  0.00    +0.000 A 
ATOM     13  C   UNL     1      -4.673  11.596  16.268  0.00  0.00    +0.000 A 
ATOM     14  C   UNL     1      -4.915  11.892  17.616  0.00  0.00    +0.000 A 
ATOM     15  C   UNL     1      -3.896  11.674  18.556  0.00  0.00    +0.000 A 
BRANCH  14  16
ATOM     16  C   UNL     1      -6.239  12.453  18.072  0.00  0.00    +0.000 C 
ATOM     17  F   UNL     1      -6.174  13.755  18.463  0.00  0.00    +0.000 F 
ATOM     18  F   UNL     1      -7.189  12.402  17.099  0.00  0.00    +0.000 F 
ATOM     19  F   UNL     1      -6.754  11.771  19.133  0.00  0.00    +0.000 F 
ENDBRANCH  14  16
ENDBRANCH   7  10
ENDBRANCH   2   5
BRANCH   1  20
ATOM     20  C   UNL     1       2.236   6.933  20.375  0.00  0.00    +0.000 C 
BRANCH  20  24
ATOM     21  N   UNL     1       3.551   4.260  18.630  0.00  0.00    +0.000 NA
ATOM     22  C   UNL     1       2.207   4.631  18.153  0.00  0.00    +0.000 C 
ATOM     23  C   UNL     1       2.278   6.132  17.951  0.00  0.00    +0.000 C 
ATOM     24  C   UNL     1       3.097   6.596  19.154  0.00  0.00    +0.000 C 
ATOM     25  C   UNL     1       4.003   5.397  19.463  0.00  0.00    +0.000 C 
BRANCH  21  26
ATOM     26  C   UNL     1       4.443   4.018  17.482  0.00  0.00    +0.000 C 
BRANCH  26  27
ATOM     27  C   UNL     1       5.880   4.523  17.698  0.00  0.00    +0.000 C 
BRANCH  27  29
ATOM     28  C   UNL     1       7.126   4.751  15.479  0.00  0.00    +0.000 C 
ATOM     29  C   UNL     1       6.387   5.501  16.602  0.00  0.00    +0.000 C 
ATOM     30  C   UNL     1       7.318   6.564  17.206  0.00  0.00    +0.000 C 
ATOM     31  C   UNL     1       5.166   6.208  15.984  0.00  0.00    +0.000 C 
ENDBRANCH  27  29
ENDBRANCH  26  27
ENDBRANCH  21  26
ENDBRANCH  20  24
ENDBRANCH   1  20
TORSDOF 8
ENDMDL
MODEL 4
REMARK VINA RESULT:      -7.1      3.511      5.188
REMARK  Name = 
REMARK  11 active torsions:
REMARK  status: ('A' for Active; 'I' for Inactive)
REMARK    1  A    between atoms: C_1  and  C_2
REMARK    2  A    between atoms: C_2  and  C_3
REMARK    3  A    between atoms: C_2  and  C_4
REMARK    4  A    between atoms: C_2  and  C_5
REMARK    5  A    between atoms: C_5  and  C_6
REMARK    6  A    between atoms: C_6  and  N_7
REMARK    7  A    between atoms: C_10  and  C_11
REMARK    8  A    between atoms: C_11  and  N_12
REMARK    9  A    between atoms: C_13  and  C_15
REMARK   10  A    between atoms: C_17  and  C_18
REMARK   11  A    between atoms: C_22  and  C_23
REMARK                            x       y       z     vdW  Elec       q    Type
REMARK                         _______ _______ _______ _____ _____    ______ ____
ROOT
ATOM      1  N   UNL     1       1.875   6.629  20.273  0.00  0.00    +0.000 N 
ATOM      2  C   UNL     1       2.206   5.297  20.328  0.00  0.00    +0.000 C 
ATOM      3  O   UNL     1       2.095   4.631  21.354  0.00  0.00    +0.000 OA
ATOM      4  H   UNL     1       2.043   7.101  19.393  0.00  0.00    +0.000 HD
ENDROOT
BRANCH   2   5
ATOM      5  C   UNL     1       2.678   4.744  19.065  0.00  0.00    +0.000 A 
ATOM      6  C   UNL     1       3.774   5.156  18.332  0.00  0.00    +0.000 A 
ATOM      7  C   UNL     1       4.000   4.362  17.160  0.00  0.00    +0.000 A 
ATOM      8  C   UNL     1       3.041   3.374  17.046  0.00  0.00    +0.000 A 
ATOM      9  S   UNL     1       1.897   3.417  18.308  0.00  0.00    +0.000 S 
BRANCH   7  10
ATOM     10  C   UNL     1       5.110   4.462  16.219  0.00  0.00    +0.000 A 
ATOM     11  C   UNL     1       6.307   5.100  16.572  0.00  0.00    +0.000 A 
ATOM     12  C   UNL     1       7.335   5.246  15.641  0.00  0.00    +0.000 A 
ATOM     13  C   UNL     1       7.184   4.750  14.347  0.00  0.00    +0.000 A 
ATOM     14  C   UNL     1       6.004   4.092  13.975  0.00  0.00    +0.000 A 
ATOM     15  C   UNL     1       4.976   3.948  14.921  0.00  0.00    +0.000 A 
BRANCH  14  16
ATOM     16  C   UNL     1       5.810   3.553  12.580  0.00  0.00    +0.000 C 
ATOM     17  F   UNL     1       5.914   2.198  12.500  0.00  0.00    +0.000 F 
ATOM     18  F   UNL     1       4.588   3.866  12.067  0.00  0.00    +0.000 F 
ATOM     19  F   UNL     1       6.723   4.050  11.700  0.00  0.00    +0.000 F 
ENDBRANCH  14  16
ENDBRANCH   7  10
ENDBRANCH   2   5
BRANCH   1  20
ATOM     20  C   UNL     1       1.376   7.399  21.388  0.00  0.00    +0.000 C 
BRANCH  20  24
ATOM     21  N   UNL     1      -0.186  10.013  19.762  0.00  0.00    +0.000 NA
ATOM     22  C   UNL     1      -0.688   9.830  21.136  0.00  0.00    +0.000 C 
ATOM     23  C   UNL     1       0.563   9.744  21.987  0.00  0.00    +0.000 C 
ATOM     24  C   UNL     1       1.501   8.903  21.124  0.00  0.00    +0.000 C 
ATOM     25  C   UNL     1       1.063   9.224  19.689  0.00  0.00    +0.000 C 
BRANCH  21  26
ATOM     26  C   UNL     1       0.039  11.445  19.495  0.00  0.00    +0.000 C 
BRANCH  26  27
ATOM     27  C   UNL     1       1.435  11.755  18.926  0.00  0.00    +0.000 C 
BRANCH  27  29
ATOM     28  C   UNL     1       2.445  13.423  20.577  0.00  0.00    +0.000 C 
ATOM     29  C   UNL     1       1.907  13.218  19.149  0.00  0.00    +0.000 C 
ATOM     30  C   UNL     1       0.760  14.208  18.887  0.00  0.00    +0.000 C 
ATOM     31  C   UNL     1       3.049  13.513  18.158  0.00  0.00    +0.000 C 
ENDBRANCH  27  29
ENDBRANCH  26  27
ENDBRANCH  21  26
ENDBRANCH  20  24
ENDBRANCH   1  20
TORSDOF 8
ENDMDL
MODEL 5
REMARK VINA RESULT:      -7.1      2.007      3.717
REMARK  Name = 
REMARK  11 active torsions:
REMARK  status: ('A' for Active; 'I' for Inactive)
REMARK    1  A    between atoms: C_1  and  C_2
REMARK    2  A    between atoms: C_2  and  C_3
REMARK    3  A    between atoms: C_2  and  C_4
REMARK    4  A    between atoms: C_2  and  C_5
REMARK    5  A    between atoms: C_5  and  C_6
REMARK    6  A    between atoms: C_6  and  N_7
REMARK    7  A    between atoms: C_10  and  C_11
REMARK    8  A    between atoms: C_11  and  N_12
REMARK    9  A    between atoms: C_13  and  C_15
REMARK   10  A    between atoms: C_17  and  C_18
REMARK   11  A    between atoms: C_22  and  C_23
REMARK                            x       y       z     vdW  Elec       q    Type
REMARK                         _______ _______ _______ _____ _____    ______ ____
ROOT
ATOM      1  N   UNL     1      -0.159  10.157  21.491  0.00  0.00    +0.000 N 
ATOM      2  C   UNL     1       0.953   9.355  21.583  0.00  0.00    +0.000 C 
ATOM      3  O   UNL     1       1.504   9.110  22.653  0.00  0.00    +0.000 OA
ATOM      4  H   UNL     1      -0.513  10.333  20.559  0.00  0.00    +0.000 HD
ENDROOT
BRANCH   2   5
ATOM      5  C   UNL     1       1.408   8.810  20.310  0.00  0.00    +0.000 A 
ATOM      6  C   UNL     1       1.948   7.559  20.083  0.00  0.00    +0.000 A 
ATOM      7  C   UNL     1       2.240   7.314  18.701  0.00  0.00    +0.000 A 
ATOM      8  C   UNL     1       1.916   8.412  17.929  0.00  0.00    +0.000 A 
ATOM      9  S   UNL     1       1.293   9.704  18.850  0.00  0.00    +0.000 S 
BRANCH   7  10
ATOM     10  C   UNL     1       2.728   6.076  18.103  0.00  0.00    +0.000 A 
ATOM     11  C   UNL     1       1.912   4.940  18.014  0.00  0.00    +0.000 A 
ATOM     12  C   UNL     1       2.413   3.744  17.500  0.00  0.00    +0.000 A 
ATOM     13  C   UNL     1       3.733   3.670  17.060  0.00  0.00    +0.000 A 
ATOM     14  C   UNL     1       4.563   4.797  17.120  0.00  0.00    +0.000 A 
ATOM     15  C   UNL     1       4.048   5.997  17.637  0.00  0.00    +0.000 A 
BRANCH  14  16
ATOM     16  C   UNL     1       5.998   4.743  16.658  0.00  0.00    +0.000 C 
ATOM     17  F   UNL     1       6.455   5.924  16.159  0.00  0.00    +0.000 F 
ATOM     18  F   UNL     1       6.854   4.404  17.661  0.00  0.00    +0.000 F 
ATOM     19  F   UNL     1       6.192   3.821  15.674  0.00  0.00    +0.000 F 
ENDBRANCH  14  16
ENDBRANCH   7  10
ENDBRANCH   2   5
BRANCH   1  20
ATOM     20  C   UNL     1      -0.801  10.803  22.610  0.00  0.00    +0.000 C 
BRANCH  20  24
ATOM     21  N   UNL     1      -0.861  13.279  20.204  0.00  0.00    +0.000 NA
ATOM     22  C   UNL     1      -2.216  12.863  20.612  0.00  0.00    +0.000 C 
ATOM     23  C   UNL     1      -2.181  12.896  22.127  0.00  0.00    +0.000 C 
ATOM     24  C   UNL     1      -0.801  12.327  22.446  0.00  0.00    +0.000 C 
ATOM     25  C   UNL     1       0.048  12.725  21.232  0.00  0.00    +0.000 C 
BRANCH  21  26
ATOM     26  C   UNL     1      -0.789  14.749  20.125  0.00  0.00    +0.000 C 
BRANCH  26  27
ATOM     27  C   UNL     1      -0.111  15.266  18.845  0.00  0.00    +0.000 C 
BRANCH  27  29
ATOM     28  C   UNL     1       2.274  14.416  18.505  0.00  0.00    +0.000 C 
ATOM     29  C   UNL     1       1.401  15.582  19.004  0.00  0.00    +0.000 C 
ATOM     30  C   UNL     1       1.745  15.887  20.471  0.00  0.00    +0.000 C 
ATOM     31  C   UNL     1       1.727  16.825  18.153  0.00  0.00    +0.000 C 
ENDBRANCH  27  29
ENDBRANCH  26  27
ENDBRANCH  21  26
ENDBRANCH  20  24
ENDBRANCH   1  20
TORSDOF 8
ENDMDL
MODEL 6
REMARK VINA RESULT:      -7.0      5.104     11.040
REMARK  Name = 
REMARK  11 active torsions:
REMARK  status: ('A' for Active; 'I' for Inactive)
REMARK    1  A    between atoms: C_1  and  C_2
REMARK    2  A    between atoms: C_2  and  C_3
REMARK    3  A    between atoms: C_2  and  C_4
REMARK    4  A    between atoms: C_2  and  C_5
REMARK    5  A    between atoms: C_5  and  C_6
REMARK    6  A    between atoms: C_6  and  N_7
REMARK    7  A    between atoms: C_10  and  C_11
REMARK    8  A    between atoms: C_11  and  N_12
REMARK    9  A    between atoms: C_13  and  C_15
REMARK   10  A    between atoms: C_17  and  C_18
REMARK   11  A    between atoms: C_22  and  C_23
REMARK                            x       y       z     vdW  Elec       q    Type
REMARK                         _______ _______ _______ _____ _____    ______ ____
ROOT
ATOM      1  N   UNL     1       4.623   5.548  19.088  0.00  0.00    +0.000 N 
ATOM      2  C   UNL     1       3.381   5.486  19.673  0.00  0.00    +0.000 C 
ATOM      3  O   UNL     1       2.965   4.475  20.232  0.00  0.00    +0.000 OA
ATOM      4  H   UNL     1       4.856   6.412  18.614  0.00  0.00    +0.000 HD
ENDROOT
BRANCH   2   5
ATOM      5  C   UNL     1       2.615   6.723  19.587  0.00  0.00    +0.000 A 
ATOM      6  C   UNL     1       1.841   7.295  20.579  0.00  0.00    +0.000 A 
ATOM      7  C   UNL     1       1.262   8.547  20.190  0.00  0.00    +0.000 A 
ATOM      8  C   UNL     1       1.616   8.869  18.894  0.00  0.00    +0.000 A 
ATOM      9  S   UNL     1       2.605   7.686  18.168  0.00  0.00    +0.000 S 
BRANCH   7  10
ATOM     10  C   UNL     1       0.473   9.456  21.015  0.00  0.00    +0.000 A 
ATOM     11  C   UNL     1       0.335   9.251  22.394  0.00  0.00    +0.000 A 
ATOM     12  C   UNL     1      -0.476  10.089  23.159  0.00  0.00    +0.000 A 
ATOM     13  C   UNL     1      -1.154  11.148  22.556  0.00  0.00    +0.000 A 
ATOM     14  C   UNL     1      -1.017  11.384  21.182  0.00  0.00    +0.000 A 
ATOM     15  C   UNL     1      -0.196  10.536  20.422  0.00  0.00    +0.000 A 
BRANCH  14  16
ATOM     16  C   UNL     1      -1.745  12.517  20.503  0.00  0.00    +0.000 C 
ATOM     17  F   UNL     1      -1.708  12.453  19.144  0.00  0.00    +0.000 F 
ATOM     18  F   UNL     1      -3.064  12.564  20.839  0.00  0.00    +0.000 F 
ATOM     19  F   UNL     1      -1.233  13.735  20.832  0.00  0.00    +0.000 F 
ENDBRANCH  14  16
ENDBRANCH   7  10
ENDBRANCH   2   5
BRANCH   1  20
ATOM     20  C   UNL     1       5.569   4.459  19.049  0.00  0.00    +0.000 C 
BRANCH  20  24
ATOM     21  N   UNL     1       5.196   5.145  15.686  0.00  0.00    +0.000 NA
ATOM     22  C   UNL     1       5.650   6.322  16.449  0.00  0.00    +0.000 C 
ATOM     23  C   UNL     1       6.813   5.811  17.276  0.00  0.00    +0.000 C 
ATOM     24  C   UNL     1       6.331   4.432  17.721  0.00  0.00    +0.000 C 
ATOM     25  C   UNL     1       5.398   3.989  16.587  0.00  0.00    +0.000 C 
BRANCH  21  26
ATOM     26  C   UNL     1       5.972   5.025  14.439  0.00  0.00    +0.000 C 
BRANCH  26  27
ATOM     27  C   UNL     1       6.040   3.590  13.889  0.00  0.00    +0.000 C 
BRANCH  27  29
ATOM     28  C   UNL     1       7.061   4.516  11.738  0.00  0.00    +0.000 C 
ATOM     29  C   UNL     1       6.074   3.499  12.339  0.00  0.00    +0.000 C 
ATOM     30  C   UNL     1       4.675   3.732  11.747  0.00  0.00    +0.000 C 
ATOM     31  C   UNL     1       6.544   2.084  11.948  0.00  0.00    +0.000 C 
ENDBRANCH  27  29
ENDBRANCH  26  27
ENDBRANCH  21  26
ENDBRANCH  20  24
ENDBRANCH   1  20
TORSDOF 8
ENDMDL
MODEL 7
REMARK VINA RESULT:      -7.0      2.811      4.154
REMARK  Name = 
REMARK  11 active torsions:
REMARK  status: ('A' for Active; 'I' for Inactive)
REMARK    1  A    between atoms: C_1  and  C_2
REMARK    2  A    between atoms: C_2  and  C_3
REMARK    3  A    between atoms: C_2  and  C_4
REMARK    4  A    between atoms: C_2  and  C_5
REMARK    5  A    between atoms: C_5  and  C_6
REMARK    6  A    between atoms: C_6  and  N_7
REMARK    7  A    between atoms: C_10  and  C_11
REMARK    8  A    between atoms: C_11  and  N_12
REMARK    9  A    between atoms: C_13  and  C_15
REMARK   10  A    between atoms: C_17  and  C_18
REMARK   11  A    between atoms: C_22  and  C_23
REMARK                            x       y       z     vdW  Elec       q    Type
REMARK                         _______ _______ _______ _____ _____    ______ ____
ROOT
ATOM      1  N   UNL     1       2.041   7.228  20.111  0.00  0.00    +0.000 N 
ATOM      2  C   UNL     1       2.066   5.857  20.192  0.00  0.00    +0.000 C 
ATOM      3  O   UNL     1       1.690   5.248  21.190  0.00  0.00    +0.000 OA
ATOM      4  H   UNL     1       2.412   7.638  19.263  0.00  0.00    +0.000 HD
ENDROOT
BRANCH   2   5
ATOM      5  C   UNL     1       2.559   5.194  18.992  0.00  0.00    +0.000 A 
ATOM      6  C   UNL     1       3.695   5.509  18.272  0.00  0.00    +0.000 A 
ATOM      7  C   UNL     1       3.928   4.622  17.170  0.00  0.00    +0.000 A 
ATOM      8  C   UNL     1       2.935   3.665  17.093  0.00  0.00    +0.000 A 
ATOM      9  S   UNL     1       1.750   3.846  18.305  0.00  0.00    +0.000 S 
BRANCH   7  10
ATOM     10  C   UNL     1       5.073   4.610  16.266  0.00  0.00    +0.000 A 
ATOM     11  C   UNL     1       6.310   5.145  16.652  0.00  0.00    +0.000 A 
ATOM     12  C   UNL     1       7.377   5.186  15.754  0.00  0.00    +0.000 A 
ATOM     13  C   UNL     1       7.224   4.685  14.462  0.00  0.00    +0.000 A 
ATOM     14  C   UNL     1       6.004   4.128  14.059  0.00  0.00    +0.000 A 
ATOM     15  C   UNL     1       4.937   4.089  14.972  0.00  0.00    +0.000 A 
BRANCH  14  16
ATOM     16  C   UNL     1       5.809   3.586  12.665  0.00  0.00    +0.000 C 
ATOM     17  F   UNL     1       5.985   2.240  12.574  0.00  0.00    +0.000 F 
ATOM     18  F   UNL     1       4.561   3.834  12.181  0.00  0.00    +0.000 F 
ATOM     19  F   UNL     1       6.673   4.137  11.768  0.00  0.00    +0.000 F 
ENDBRANCH  14  16
ENDBRANCH   7  10
ENDBRANCH   2   5
BRANCH   1  20
ATOM     20  C   UNL     1       1.587   8.106  21.164  0.00  0.00    +0.000 C 
BRANCH  20  24
ATOM     21  N   UNL     1       0.638  11.407  20.813  0.00  0.00    +0.000 NA
ATOM     22  C   UNL     1       1.337  10.897  19.619  0.00  0.00    +0.000 C 
ATOM     23  C   UNL     1       0.646   9.585  19.307  0.00  0.00    +0.000 C 
ATOM     24  C   UNL     1       0.423   8.983  20.693  0.00  0.00    +0.000 C 
ATOM     25  C   UNL     1       0.284  10.208  21.605  0.00  0.00    +0.000 C 
BRANCH  21  26
ATOM     26  C   UNL     1      -0.549  12.180  20.407  0.00  0.00    +0.000 C 
BRANCH  26  27
ATOM     27  C   UNL     1      -1.762  11.983  21.333  0.00  0.00    +0.000 C 
BRANCH  27  29
ATOM     28  C   UNL     1      -3.706  12.473  19.750  0.00  0.00    +0.000 C 
ATOM     29  C   UNL     1      -2.963  12.917  21.023  0.00  0.00    +0.000 C 
ATOM     30  C   UNL     1      -2.497  14.373  20.861  0.00  0.00    +0.000 C 
ATOM     31  C   UNL     1      -3.949  12.844  22.204  0.00  0.00    +0.000 C 
ENDBRANCH  27  29
ENDBRANCH  26  27
ENDBRANCH  21  26
ENDBRANCH  20  24
ENDBRANCH   1  20
TORSDOF 8
ENDMDL
MODEL 8
REMARK VINA RESULT:      -6.9      0.730      1.099
REMARK  Name = 
REMARK  11 active torsions:
REMARK  status: ('A' for Active; 'I' for Inactive)
REMARK    1  A    between atoms: C_1  and  C_2
REMARK    2  A    between atoms: C_2  and  C_3
REMARK    3  A    between atoms: C_2  and  C_4
REMARK    4  A    between atoms: C_2  and  C_5
REMARK    5  A    between atoms: C_5  and  C_6
REMARK    6  A    between atoms: C_6  and  N_7
REMARK    7  A    between atoms: C_10  and  C_11
REMARK    8  A    between atoms: C_11  and  N_12
REMARK    9  A    between atoms: C_13  and  C_15
REMARK   10  A    between atoms: C_17  and  C_18
REMARK   11  A    between atoms: C_22  and  C_23
REMARK                            x       y       z     vdW  Elec       q    Type
REMARK                         _______ _______ _______ _____ _____    ______ ____
ROOT
ATOM      1  N   UNL     1       0.051  10.945  18.722  0.00  0.00    +0.000 N 
ATOM      2  C   UNL     1       1.389  10.676  18.557  0.00  0.00    +0.000 C 
ATOM      3  O   UNL     1       2.203  11.542  18.248  0.00  0.00    +0.000 OA
ATOM      4  H   UNL     1      -0.546  10.156  18.935  0.00  0.00    +0.000 HD
ENDROOT
BRANCH   2   5
ATOM      5  C   UNL     1       1.755   9.286  18.797  0.00  0.00    +0.000 A 
ATOM      6  C   UNL     1       2.421   8.438  17.933  0.00  0.00    +0.000 A 
ATOM      7  C   UNL     1       2.678   7.146  18.498  0.00  0.00    +0.000 A 
ATOM      8  C   UNL     1       2.176   7.064  19.783  0.00  0.00    +0.000 A 
ATOM      9  S   UNL     1       1.404   8.500  20.281  0.00  0.00    +0.000 S 
BRANCH   7  10
ATOM     10  C   UNL     1       3.433   6.049  17.902  0.00  0.00    +0.000 A 
ATOM     11  C   UNL     1       2.850   4.791  17.698  0.00  0.00    +0.000 A 
ATOM     12  C   UNL     1       3.603   3.734  17.188  0.00  0.00    +0.000 A 
ATOM     13  C   UNL     1       4.947   3.922  16.868  0.00  0.00    +0.000 A 
ATOM     14  C   UNL     1       5.547   5.175  17.045  0.00  0.00    +0.000 A 
ATOM     15  C   UNL     1       4.779   6.233  17.556  0.00  0.00    +0.000 A 
BRANCH  14  16
ATOM     16  C   UNL     1       7.001   5.404  16.714  0.00  0.00    +0.000 C 
ATOM     17  F   UNL     1       7.469   6.614  17.125  0.00  0.00    +0.000 F 
ATOM     18  F   UNL     1       7.816   4.474  17.284  0.00  0.00    +0.000 F 
ATOM     19  F   UNL     1       7.245   5.343  15.376  0.00  0.00    +0.000 F 
ENDBRANCH  14  16
ENDBRANCH   7  10
ENDBRANCH   2   5
BRANCH   1  20
ATOM     20  C   UNL     1      -0.553  12.245  18.550  0.00  0.00    +0.000 C 
BRANCH  20  24
ATOM     21  N   UNL     1      -0.492  12.168  22.001  0.00  0.00    +0.000 NA
ATOM     22  C   UNL     1       0.136  13.387  21.459  0.00  0.00    +0.000 C 
ATOM     23  C   UNL     1      -0.870  13.915  20.455  0.00  0.00    +0.000 C 
ATOM     24  C   UNL     1      -1.375  12.642  19.780  0.00  0.00    +0.000 C 
ATOM     25  C   UNL     1      -1.239  11.572  20.872  0.00  0.00    +0.000 C 
BRANCH  21  26
ATOM     26  C   UNL     1      -1.370  12.516  23.132  0.00  0.00    +0.000 C 
BRANCH  26  27
ATOM     27  C   UNL     1      -1.193  13.961  23.629  0.00  0.00    +0.000 C 
BRANCH  27  29
ATOM     28  C   UNL     1      -2.448  15.147  25.513  0.00  0.00    +0.000 C 
ATOM     29  C   UNL     1      -2.514  14.659  24.054  0.00  0.00    +0.000 C 
ATOM     30  C   UNL     1      -3.712  13.710  23.887  0.00  0.00    +0.000 C 
ATOM     31  C   UNL     1      -2.727  15.885  23.147  0.00  0.00    +0.000 C 
ENDBRANCH  27  29
ENDBRANCH  26  27
ENDBRANCH  21  26
ENDBRANCH  20  24
ENDBRANCH   1  20
TORSDOF 8
ENDMDL
MODEL 9
REMARK VINA RESULT:      -6.9      5.043     10.994
REMARK  Name = 
REMARK  11 active torsions:
REMARK  status: ('A' for Active; 'I' for Inactive)
REMARK    1  A    between atoms: C_1  and  C_2
REMARK    2  A    between atoms: C_2  and  C_3
REMARK    3  A    between atoms: C_2  and  C_4
REMARK    4  A    between atoms: C_2  and  C_5
REMARK    5  A    between atoms: C_5  and  C_6
REMARK    6  A    between atoms: C_6  and  N_7
REMARK    7  A    between atoms: C_10  and  C_11
REMARK    8  A    between atoms: C_11  and  N_12
REMARK    9  A    between atoms: C_13  and  C_15
REMARK   10  A    between atoms: C_17  and  C_18
REMARK   11  A    between atoms: C_22  and  C_23
REMARK                            x       y       z     vdW  Elec       q    Type
REMARK                         _______ _______ _______ _____ _____    ______ ____
ROOT
ATOM      1  N   UNL     1       4.664   5.545  19.052  0.00  0.00    +0.000 N 
ATOM      2  C   UNL     1       3.381   5.506  19.542  0.00  0.00    +0.000 C 
ATOM      3  O   UNL     1       2.903   4.500  20.061  0.00  0.00    +0.000 OA
ATOM      4  H   UNL     1       4.950   6.406  18.604  0.00  0.00    +0.000 HD
ENDROOT
BRANCH   2   5
ATOM      5  C   UNL     1       2.649   6.759  19.409  0.00  0.00    +0.000 A 
ATOM      6  C   UNL     1       1.837   7.355  20.354  0.00  0.00    +0.000 A 
ATOM      7  C   UNL     1       1.308   8.618  19.928  0.00  0.00    +0.000 A 
ATOM      8  C   UNL     1       1.739   8.923  18.651  0.00  0.00    +0.000 A 
ATOM      9  S   UNL     1       2.738   7.712  17.985  0.00  0.00    +0.000 S 
BRANCH   7  10
ATOM     10  C   UNL     1       0.497   9.549  20.704  0.00  0.00    +0.000 A 
ATOM     11  C   UNL     1       0.390   9.434  22.097  0.00  0.00    +0.000 A 
ATOM     12  C   UNL     1      -0.441  10.291  22.818  0.00  0.00    +0.000 A 
ATOM     13  C   UNL     1      -1.171  11.279  22.158  0.00  0.00    +0.000 A 
ATOM     14  C   UNL     1      -1.066  11.425  20.768  0.00  0.00    +0.000 A 
ATOM     15  C   UNL     1      -0.224  10.560  20.052  0.00  0.00    +0.000 A 
BRANCH  14  16
ATOM     16  C   UNL     1      -1.850  12.480  20.028  0.00  0.00    +0.000 C 
ATOM     17  F   UNL     1      -3.166  12.171  19.869  0.00  0.00    +0.000 F 
ATOM     18  F   UNL     1      -1.822  13.687  20.658  0.00  0.00    +0.000 F 
ATOM     19  F   UNL     1      -1.365  12.703  18.775  0.00  0.00    +0.000 F 
ENDBRANCH  14  16
ENDBRANCH   7  10
ENDBRANCH   2   5
BRANCH   1  20
ATOM     20  C   UNL     1       5.587   4.436  19.077  0.00  0.00    +0.000 C 
BRANCH  20  24
ATOM     21  N   UNL     1       5.354   5.367  15.760  0.00  0.00    +0.000 NA
ATOM     22  C   UNL     1       6.136   6.330  16.557  0.00  0.00    +0.000 C 
ATOM     23  C   UNL     1       7.125   5.473  17.321  0.00  0.00    +0.000 C 
ATOM     24  C   UNL     1       6.284   4.264  17.723  0.00  0.00    +0.000 C 
ATOM     25  C   UNL     1       5.241   4.157  16.604  0.00  0.00    +0.000 C 
BRANCH  21  26
ATOM     26  C   UNL     1       6.039   5.098  14.483  0.00  0.00    +0.000 C 
BRANCH  26  27
ATOM     27  C   UNL     1       5.875   3.651  13.987  0.00  0.00    +0.000 C 
BRANCH  27  29
ATOM     28  C   UNL     1       4.596   3.795  11.780  0.00  0.00    +0.000 C 
ATOM     29  C   UNL     1       5.951   3.490  12.444  0.00  0.00    +0.000 C 
ATOM     30  C   UNL     1       6.399   2.070  12.064  0.00  0.00    +0.000 C 
ATOM     31  C   UNL     1       6.987   4.495  11.905  0.00  0.00    +0.000 C 
ENDBRANCH  27  29
ENDBRANCH  26  27
ENDBRANCH  21  26
ENDBRANCH  20  24
ENDBRANCH   1  20
TORSDOF 8
ENDMDL
