MODEL 1
REMARK VINA RESULT:      -8.2      0.000      0.000
REMARK  Name = 
REMARK  3 active torsions:
REMARK  status: ('A' for Active; 'I' for Inactive)
REMARK    1  A    between atoms: N_1  and  C_2
REMARK    2  A    between atoms: C_11  and  C_12
REMARK    3  A    between atoms: C_18  and  C_19
REMARK                            x       y       z     vdW  Elec       q    Type
REMARK                         _______ _______ _______ _____ _____    ______ ____
ROOT
ATOM      1  C   UNL     1       4.139   3.674  19.217  0.00  0.00    +0.000 C 
ATOM      2  C   UNL     1       3.634   2.787  20.359  0.00  0.00    +0.000 C 
ATOM      3  C   UNL     1       2.217   3.183  20.785  0.00  0.00    +0.000 C 
ATOM      4  C   UNL     1       2.068   4.688  21.091  0.00  0.00    +0.000 C 
ATOM      5  N   UNL     1       2.546   5.451  19.948  0.00  0.00    +0.000 N 
ATOM      6  C   UNL     1       2.128   6.806  19.826  0.00  0.00    +0.000 A 
ATOM      7  C   UNL     1       2.364   7.350  18.548  0.00  0.00    +0.000 A 
ATOM      8  C   UNL     1       2.033   8.649  18.266  0.00  0.00    +0.000 A 
ATOM      9  C   UNL     1       1.425   9.377  19.264  0.00  0.00    +0.000 A 
ATOM     10  C   UNL     1       1.108   8.823  20.533  0.00  0.00    +0.000 A 
ATOM     11  N   UNL     1       1.468   7.526  20.823  0.00  0.00    +0.000 NA
ATOM     12  C   UNL     1       3.962   5.171  19.587  0.00  0.00    +0.000 C 
ENDROOT
BRANCH  10  13
ATOM     13  C   UNL     1       0.267   9.764  21.411  0.00  0.00    +0.000 A 
ATOM     14  N   UNL     1      -0.104   9.162  22.574  0.00  0.00    +0.000 NA
ATOM     15  N   UNL     1      -0.915   9.976  23.200  0.00  0.00    +0.000 N 
ATOM     16  C   UNL     1      -1.040  11.180  22.615  0.00  0.00    +0.000 A 
ATOM     17  C   UNL     1      -1.757  12.257  23.093  0.00  0.00    +0.000 A 
ATOM     18  N   UNL     1      -1.802  13.361  22.364  0.00  0.00    +0.000 NA
ATOM     19  C   UNL     1      -1.161  13.423  21.178  0.00  0.00    +0.000 A 
ATOM     20  C   UNL     1      -0.403  12.344  20.638  0.00  0.00    +0.000 A 
ATOM     21  C   UNL     1      -0.316  11.134  21.412  0.00  0.00    +0.000 A 
ATOM     22  H   UNL     1      -1.359   9.654  24.052  0.00  0.00    +0.000 HD
BRANCH  19  23
ATOM     23  C   UNL     1      -1.405  14.780  20.624  0.00  0.00    +0.000 A 
ATOM     24  C   UNL     1      -2.430  15.653  21.005  0.00  0.00    +0.000 A 
ATOM     25  N   UNL     1      -2.447  16.908  20.433  0.00  0.00    +0.000 NA
ATOM     26  C   UNL     1      -1.423  16.994  19.615  0.00  0.00    +0.000 A 
ATOM     27  S   UNL     1      -0.440  15.585  19.464  0.00  0.00    +0.000 S 
ENDBRANCH  19  23
ENDBRANCH  10  13
BRANCH   1  28
ATOM     28  N   UNL     1       5.537   3.334  18.897  0.00  0.00    +0.000 NA
ATOM     29  H   UNL     1       5.828   3.849  18.064  0.00  0.00    +0.000 HD
ATOM     30  H   UNL     1       5.608   2.348  18.647  0.00  0.00    +0.000 HD
ENDBRANCH   1  28
TORSDOF 3
ENDMDL
MODEL 2
REMARK VINA RESULT:      -8.0      3.261      9.599
REMARK  Name = 
REMARK  3 active torsions:
REMARK  status: ('A' for Active; 'I' for Inactive)
REMARK    1  A    between atoms: N_1  and  C_2
REMARK    2  A    between atoms: C_11  and  C_12
REMARK    3  A    between atoms: C_18  and  C_19
REMARK                            x       y       z     vdW  Elec       q    Type
REMARK                         _______ _______ _______ _____ _____    ______ ____
ROOT
ATOM      1  C   UNL     1      -2.367  13.630  21.085  0.00  0.00    +0.000 C 
ATOM      2  C   UNL     1      -2.760  13.156  22.487  0.00  0.00    +0.000 C 
ATOM      3  C   UNL     1      -1.639  12.334  23.130  0.00  0.00    +0.000 C 
ATOM      4  C   UNL     1      -1.134  11.183  22.234  0.00  0.00    +0.000 C 
ATOM      5  N   UNL     1      -0.761  11.725  20.937  0.00  0.00    +0.000 N 
ATOM      6  C   UNL     1       0.104  10.952  20.113  0.00  0.00    +0.000 A 
ATOM      7  C   UNL     1       0.663  11.685  19.047  0.00  0.00    +0.000 A 
ATOM      8  C   UNL     1       1.509  11.088  18.150  0.00  0.00    +0.000 A 
ATOM      9  C   UNL     1       1.820   9.764  18.361  0.00  0.00    +0.000 A 
ATOM     10  C   UNL     1       1.329   9.028  19.474  0.00  0.00    +0.000 A 
ATOM     11  N   UNL     1       0.457   9.624  20.357  0.00  0.00    +0.000 NA
ATOM     12  C   UNL     1      -1.869  12.429  20.237  0.00  0.00    +0.000 C 
ENDROOT
BRANCH  10  13
ATOM     13  C   UNL     1       1.961   7.632  19.601  0.00  0.00    +0.000 A 
ATOM     14  N   UNL     1       1.461   6.956  20.672  0.00  0.00    +0.000 NA
ATOM     15  N   UNL     1       2.134   5.839  20.784  0.00  0.00    +0.000 N 
ATOM     16  C   UNL     1       2.997   5.618  19.776  0.00  0.00    +0.000 A 
ATOM     17  C   UNL     1       3.773   4.493  19.590  0.00  0.00    +0.000 A 
ATOM     18  N   UNL     1       4.600   4.458  18.556  0.00  0.00    +0.000 NA
ATOM     19  C   UNL     1       4.679   5.507  17.710  0.00  0.00    +0.000 A 
ATOM     20  C   UNL     1       3.898   6.691  17.851  0.00  0.00    +0.000 A 
ATOM     21  C   UNL     1       2.975   6.756  18.953  0.00  0.00    +0.000 A 
ATOM     22  H   UNL     1       1.952   5.244  21.583  0.00  0.00    +0.000 HD
BRANCH  19  23
ATOM     23  C   UNL     1       5.682   5.152  16.673  0.00  0.00    +0.000 A 
ATOM     24  C   UNL     1       7.020   4.816  16.903  0.00  0.00    +0.000 A 
ATOM     25  N   UNL     1       7.780   4.435  15.817  0.00  0.00    +0.000 NA
ATOM     26  C   UNL     1       7.013   4.475  14.751  0.00  0.00    +0.000 A 
ATOM     27  S   UNL     1       5.389   5.005  14.994  0.00  0.00    +0.000 S 
ENDBRANCH  19  23
ENDBRANCH  10  13
BRANCH   1  28
ATOM     28  N   UNL     1      -3.499  14.333  20.456  0.00  0.00    +0.000 NA
ATOM     29  H   UNL     1      -4.374  13.893  20.748  0.00  0.00    +0.000 HD
ATOM     30  H   UNL     1      -3.461  14.219  19.443  0.00  0.00    +0.000 HD
ENDBRANCH   1  28
TORSDOF 3
ENDMDL
MODEL 3
REMARK VINA RESULT:      -8.0      2.781      2.960
REMARK  Name = 
REMARK  3 active torsions:
REMARK  status: ('A' for Active; 'I' for Inactive)
REMARK    1  A    between atoms: N_1  and  C_2
REMARK    2  A    between atoms: C_11  and  C_12
REMARK    3  A    between atoms: C_18  and  C_19
REMARK                            x       y       z     vdW  Elec       q    Type
REMARK                         _______ _______ _______ _____ _____    ______ ____
ROOT
ATOM      1  C   UNL     1       3.839   3.358  19.592  0.00  0.00    +0.000 C 
ATOM      2  C   UNL     1       3.015   2.732  20.722  0.00  0.00    +0.000 C 
ATOM      3  C   UNL     1       1.617   3.352  20.799  0.00  0.00    +0.000 C 
ATOM      4  C   UNL     1       1.634   4.894  20.861  0.00  0.00    +0.000 C 
ATOM      5  N   UNL     1       2.414   5.402  19.743  0.00  0.00    +0.000 N 
ATOM      6  C   UNL     1       2.225   6.758  19.356  0.00  0.00    +0.000 A 
ATOM      7  C   UNL     1       2.761   7.058  18.088  0.00  0.00    +0.000 A 
ATOM      8  C   UNL     1       2.677   8.324  17.571  0.00  0.00    +0.000 A 
ATOM      9  C   UNL     1       2.012   9.269  18.319  0.00  0.00    +0.000 A 
ATOM     10  C   UNL     1       1.396   8.967  19.564  0.00  0.00    +0.000 A 
ATOM     11  N   UNL     1       1.508   7.701  20.093  0.00  0.00    +0.000 NA
ATOM     12  C   UNL     1       3.816   4.905  19.711  0.00  0.00    +0.000 C 
ENDROOT
BRANCH  10  13
ATOM     13  C   UNL     1       0.557  10.129  20.120  0.00  0.00    +0.000 A 
ATOM     14  N   UNL     1       1.175  10.729  21.175  0.00  0.00    +0.000 NA
ATOM     15  N   UNL     1       0.347  11.616  21.666  0.00  0.00    +0.000 N 
ATOM     16  C   UNL     1      -0.774  11.777  20.942  0.00  0.00    +0.000 A 
ATOM     17  C   UNL     1      -1.778  12.693  21.173  0.00  0.00    +0.000 A 
ATOM     18  N   UNL     1      -2.835  12.689  20.376  0.00  0.00    +0.000 NA
ATOM     19  C   UNL     1      -2.923  11.801  19.364  0.00  0.00    +0.000 A 
ATOM     20  C   UNL     1      -1.915  10.835  19.076  0.00  0.00    +0.000 A 
ATOM     21  C   UNL     1      -0.743  10.823  19.910  0.00  0.00    +0.000 A 
ATOM     22  H   UNL     1       0.610  12.103  22.514  0.00  0.00    +0.000 HD
BRANCH  19  23
ATOM     23  C   UNL     1      -4.212  12.060  18.671  0.00  0.00    +0.000 A 
ATOM     24  C   UNL     1      -4.520  11.720  17.349  0.00  0.00    +0.000 A 
ATOM     25  N   UNL     1      -5.802  11.971  16.906  0.00  0.00    +0.000 NA
ATOM     26  C   UNL     1      -6.478  12.500  17.900  0.00  0.00    +0.000 A 
ATOM     27  S   UNL     1      -5.610  12.758  19.368  0.00  0.00    +0.000 S 
ENDBRANCH  19  23
ENDBRANCH  10  13
BRANCH   1  28
ATOM     28  N   UNL     1       5.207   2.811  19.605  0.00  0.00    +0.000 NA
ATOM     29  H   UNL     1       5.365   2.318  20.485  0.00  0.00    +0.000 HD
ATOM     30  H   UNL     1       5.886   3.572  19.593  0.00  0.00    +0.000 HD
ENDBRANCH   1  28
TORSDOF 3
ENDMDL
MODEL 4
REMARK VINA RESULT:      -8.0      4.042      9.594
REMARK  Name = 
REMARK  3 active torsions:
REMARK  status: ('A' for Active; 'I' for Inactive)
REMARK    1  A    between atoms: N_1  and  C_2
REMARK    2  A    between atoms: C_11  and  C_12
REMARK    3  A    between atoms: C_18  and  C_19
REMARK                            x       y       z     vdW  Elec       q    Type
REMARK                         _______ _______ _______ _____ _____    ______ ____
ROOT
ATOM      1  C   UNL     1       1.797  16.660  18.194  0.00  0.00    +0.000 C 
ATOM      2  C   UNL     1       3.321  16.675  18.038  0.00  0.00    +0.000 C 
ATOM      3  C   UNL     1       3.833  15.353  17.456  0.00  0.00    +0.000 C 
ATOM      4  C   UNL     1       3.327  14.112  18.221  0.00  0.00    +0.000 C 
ATOM      5  N   UNL     1       1.875  14.167  18.300  0.00  0.00    +0.000 N 
ATOM      6  C   UNL     1       1.174  12.960  18.576  0.00  0.00    +0.000 A 
ATOM      7  C   UNL     1      -0.207  13.042  18.310  0.00  0.00    +0.000 A 
ATOM      8  C   UNL     1      -1.032  11.972  18.535  0.00  0.00    +0.000 A 
ATOM      9  C   UNL     1      -0.448  10.809  18.984  0.00  0.00    +0.000 A 
ATOM     10  C   UNL     1       0.953  10.681  19.184  0.00  0.00    +0.000 A 
ATOM     11  N   UNL     1       1.774  11.768  18.985  0.00  0.00    +0.000 NA
ATOM     12  C   UNL     1       1.354  15.390  18.969  0.00  0.00    +0.000 C 
ENDROOT
BRANCH  10  13
ATOM     13  C   UNL     1       1.389   9.243  19.506  0.00  0.00    +0.000 A 
ATOM     14  N   UNL     1       0.892   8.828  20.705  0.00  0.00    +0.000 NA
ATOM     15  N   UNL     1       1.408   7.654  20.962  0.00  0.00    +0.000 N 
ATOM     16  C   UNL     1       2.141   7.146  19.955  0.00  0.00    +0.000 A 
ATOM     17  C   UNL     1       2.731   5.900  19.914  0.00  0.00    +0.000 A 
ATOM     18  N   UNL     1       3.453   5.576  18.853  0.00  0.00    +0.000 NA
ATOM     19  C   UNL     1       3.607   6.453  17.838  0.00  0.00    +0.000 A 
ATOM     20  C   UNL     1       3.017   7.750  17.825  0.00  0.00    +0.000 A 
ATOM     21  C   UNL     1       2.210   8.130  18.955  0.00  0.00    +0.000 A 
ATOM     22  H   UNL     1       1.212   7.227  21.860  0.00  0.00    +0.000 HD
BRANCH  19  23
ATOM     23  C   UNL     1       4.457   5.789  16.817  0.00  0.00    +0.000 A 
ATOM     24  C   UNL     1       5.208   6.430  15.826  0.00  0.00    +0.000 A 
ATOM     25  N   UNL     1       6.002   5.646  15.017  0.00  0.00    +0.000 NA
ATOM     26  C   UNL     1       5.862   4.396  15.399  0.00  0.00    +0.000 A 
ATOM     27  S   UNL     1       4.756   4.109  16.691  0.00  0.00    +0.000 S 
ENDBRANCH  19  23
ENDBRANCH  10  13
BRANCH   1  28
ATOM     28  N   UNL     1       1.346  17.903  18.844  0.00  0.00    +0.000 NA
ATOM     29  H   UNL     1       2.046  18.200  19.526  0.00  0.00    +0.000 HD
ATOM     30  H   UNL     1       0.497  17.727  19.381  0.00  0.00    +0.000 HD
ENDBRANCH   1  28
TORSDOF 3
ENDMDL
MODEL 5
REMARK VINA RESULT:      -7.9      2.164      2.422
REMARK  Name = 
REMARK  3 active torsions:
REMARK  status: ('A' for Active; 'I' for Inactive)
REMARK    1  A    between atoms: N_1  and  C_2
REMARK    2  A    between atoms: C_11  and  C_12
REMARK    3  A    between atoms: C_18  and  C_19
REMARK                            x       y       z     vdW  Elec       q    Type
REMARK                         _______ _______ _______ _____ _____    ______ ____
ROOT
ATOM      1  C   UNL     1       3.799   3.093  19.694  0.00  0.00    +0.000 C 
ATOM      2  C   UNL     1       2.980   2.571  20.879  0.00  0.00    +0.000 C 
ATOM      3  C   UNL     1       1.620   3.272  20.966  0.00  0.00    +0.000 C 
ATOM      4  C   UNL     1       1.724   4.811  20.948  0.00  0.00    +0.000 C 
ATOM      5  N   UNL     1       2.492   5.218  19.782  0.00  0.00    +0.000 N 
ATOM      6  C   UNL     1       2.365   6.562  19.332  0.00  0.00    +0.000 A 
ATOM      7  C   UNL     1       2.875   6.769  18.035  0.00  0.00    +0.000 A 
ATOM      8  C   UNL     1       2.843   8.010  17.456  0.00  0.00    +0.000 A 
ATOM      9  C   UNL     1       2.255   9.026  18.174  0.00  0.00    +0.000 A 
ATOM     10  C   UNL     1       1.665   8.822  19.451  0.00  0.00    +0.000 A 
ATOM     11  N   UNL     1       1.725   7.580  20.042  0.00  0.00    +0.000 NA
ATOM     12  C   UNL     1       3.864   4.643  19.734  0.00  0.00    +0.000 C 
ENDROOT
BRANCH  10  13
ATOM     13  C   UNL     1       0.909  10.055  19.972  0.00  0.00    +0.000 A 
ATOM     14  N   UNL     1      -0.088   9.703  20.829  0.00  0.00    +0.000 NA
ATOM     15  N   UNL     1      -0.758  10.787  21.124  0.00  0.00    +0.000 N 
ATOM     16  C   UNL     1      -0.216  11.915  20.631  0.00  0.00    +0.000 A 
ATOM     17  C   UNL     1      -0.658  13.203  20.851  0.00  0.00    +0.000 A 
ATOM     18  N   UNL     1      -0.023  14.200  20.254  0.00  0.00    +0.000 NA
ATOM     19  C   UNL     1       1.030  13.953  19.446  0.00  0.00    +0.000 A 
ATOM     20  C   UNL     1       1.531  12.644  19.188  0.00  0.00    +0.000 A 
ATOM     21  C   UNL     1       0.877  11.537  19.835  0.00  0.00    +0.000 A 
ATOM     22  H   UNL     1      -1.594  10.699  21.690  0.00  0.00    +0.000 HD
BRANCH  19  23
ATOM     23  C   UNL     1       1.509  15.267  18.945  0.00  0.00    +0.000 A 
ATOM     24  C   UNL     1       2.706  15.501  18.260  0.00  0.00    +0.000 A 
ATOM     25  N   UNL     1       2.941  16.780  17.800  0.00  0.00    +0.000 NA
ATOM     26  C   UNL     1       1.912  17.526  18.133  0.00  0.00    +0.000 A 
ATOM     27  S   UNL     1       0.662  16.751  19.034  0.00  0.00    +0.000 S 
ENDBRANCH  19  23
ENDBRANCH  10  13
BRANCH   1  28
ATOM     28  N   UNL     1       5.135   2.472  19.695  0.00  0.00    +0.000 NA
ATOM     29  H   UNL     1       5.052   1.490  19.426  0.00  0.00    +0.000 HD
ATOM     30  H   UNL     1       5.516   2.466  20.641  0.00  0.00    +0.000 HD
ENDBRANCH   1  28
TORSDOF 3
ENDMDL
MODEL 6
REMARK VINA RESULT:      -7.8      3.523      9.687
REMARK  Name = 
REMARK  3 active torsions:
REMARK  status: ('A' for Active; 'I' for Inactive)
REMARK    1  A    between atoms: N_1  and  C_2
REMARK    2  A    between atoms: C_11  and  C_12
REMARK    3  A    between atoms: C_18  and  C_19
REMARK                            x       y       z     vdW  Elec       q    Type
REMARK                         _______ _______ _______ _____ _____    ______ ____
ROOT
ATOM      1  C   UNL     1      -2.133  13.098  21.026  0.00  0.00    +0.000 C 
ATOM      2  C   UNL     1      -2.428  12.611  22.449  0.00  0.00    +0.000 C 
ATOM      3  C   UNL     1      -1.243  11.831  23.026  0.00  0.00    +0.000 C 
ATOM      4  C   UNL     1      -0.748  10.699  22.102  0.00  0.00    +0.000 C 
ATOM      5  N   UNL     1      -0.469  11.252  20.786  0.00  0.00    +0.000 N 
ATOM      6  C   UNL     1       0.376  10.511  19.914  0.00  0.00    +0.000 A 
ATOM      7  C   UNL     1       0.846  11.263  18.819  0.00  0.00    +0.000 A 
ATOM      8  C   UNL     1       1.661  10.696  17.875  0.00  0.00    +0.000 A 
ATOM      9  C   UNL     1       2.032   9.384  18.067  0.00  0.00    +0.000 A 
ATOM     10  C   UNL     1       1.632   8.632  19.205  0.00  0.00    +0.000 A 
ATOM     11  N   UNL     1       0.790   9.197  20.136  0.00  0.00    +0.000 NA
ATOM     12  C   UNL     1      -1.640  11.915  20.151  0.00  0.00    +0.000 C 
ENDROOT
BRANCH  10  13
ATOM     13  C   UNL     1       2.320   7.261  19.295  0.00  0.00    +0.000 A 
ATOM     14  N   UNL     1       2.009   6.623  20.457  0.00  0.00    +0.000 NA
ATOM     15  N   UNL     1       2.727   5.530  20.513  0.00  0.00    +0.000 N 
ATOM     16  C   UNL     1       3.436   5.284  19.397  0.00  0.00    +0.000 A 
ATOM     17  C   UNL     1       4.212   4.172  19.144  0.00  0.00    +0.000 A 
ATOM     18  N   UNL     1       4.874   4.110  18.000  0.00  0.00    +0.000 NA
ATOM     19  C   UNL     1       4.792   5.119  17.107  0.00  0.00    +0.000 A 
ATOM     20  C   UNL     1       4.003   6.288  17.314  0.00  0.00    +0.000 A 
ATOM     21  C   UNL     1       3.254   6.381  18.539  0.00  0.00    +0.000 A 
ATOM     22  H   UNL     1       2.686   4.969  21.356  0.00  0.00    +0.000 HD
BRANCH  19  23
ATOM     23  C   UNL     1       5.639   4.741  15.947  0.00  0.00    +0.000 A 
ATOM     24  C   UNL     1       5.200   4.119  14.773  0.00  0.00    +0.000 A 
ATOM     25  N   UNL     1       6.125   3.920  13.770  0.00  0.00    +0.000 NA
ATOM     26  C   UNL     1       7.278   4.399  14.180  0.00  0.00    +0.000 A 
ATOM     27  S   UNL     1       7.312   5.056  15.774  0.00  0.00    +0.000 S 
ENDBRANCH  19  23
ENDBRANCH  10  13
BRANCH   1  28
ATOM     28  N   UNL     1      -3.324  13.758  20.464  0.00  0.00    +0.000 NA
ATOM     29  H   UNL     1      -3.215  13.845  19.452  0.00  0.00    +0.000 HD
ATOM     30  H   UNL     1      -3.391  14.714  20.814  0.00  0.00    +0.000 HD
ENDBRANCH   1  28
TORSDOF 3
ENDMDL
MODEL 7
REMARK VINA RESULT:      -7.8      3.175      9.787
REMARK  Name = 
REMARK  3 active torsions:
REMARK  status: ('A' for Active; 'I' for Inactive)
REMARK    1  A    between atoms: N_1  and  C_2
REMARK    2  A    between atoms: C_11  and  C_12
REMARK    3  A    between atoms: C_18  and  C_19
REMARK                            x       y       z     vdW  Elec       q    Type
REMARK                         _______ _______ _______ _____ _____    ______ ____
ROOT
ATOM      1  C   UNL     1      -3.845  14.218  23.145  0.00  0.00    +0.000 C 
ATOM      2  C   UNL     1      -4.417  14.762  21.832  0.00  0.00    +0.000 C 
ATOM      3  C   UNL     1      -4.377  13.703  20.727  0.00  0.00    +0.000 C 
ATOM      4  C   UNL     1      -2.985  13.060  20.546  0.00  0.00    +0.000 C 
ATOM      5  N   UNL     1      -2.531  12.551  21.831  0.00  0.00    +0.000 N 
ATOM      6  C   UNL     1      -1.500  11.570  21.835  0.00  0.00    +0.000 A 
ATOM      7  C   UNL     1      -1.362  10.910  23.072  0.00  0.00    +0.000 A 
ATOM      8  C   UNL     1      -0.405   9.946  23.251  0.00  0.00    +0.000 A 
ATOM      9  C   UNL     1       0.377   9.623  22.165  0.00  0.00    +0.000 A 
ATOM     10  C   UNL     1       0.201  10.222  20.888  0.00  0.00    +0.000 A 
ATOM     11  N   UNL     1      -0.742  11.211  20.720  0.00  0.00    +0.000 NA
ATOM     12  C   UNL     1      -2.449  13.588  22.895  0.00  0.00    +0.000 C 
ENDROOT
BRANCH  10  13
ATOM     13  C   UNL     1       1.060   9.570  19.792  0.00  0.00    +0.000 A 
ATOM     14  N   UNL     1       1.201  10.392  18.715  0.00  0.00    +0.000 NA
ATOM     15  N   UNL     1       1.831   9.720  17.785  0.00  0.00    +0.000 N 
ATOM     16  C   UNL     1       2.264   8.511  18.182  0.00  0.00    +0.000 A 
ATOM     17  C   UNL     1       3.022   7.626  17.445  0.00  0.00    +0.000 A 
ATOM     18  N   UNL     1       3.331   6.456  17.982  0.00  0.00    +0.000 NA
ATOM     19  C   UNL     1       2.905   6.141  19.224  0.00  0.00    +0.000 A 
ATOM     20  C   UNL     1       2.123   7.017  20.031  0.00  0.00    +0.000 A 
ATOM     21  C   UNL     1       1.784   8.306  19.487  0.00  0.00    +0.000 A 
ATOM     22  H   UNL     1       1.950  10.152  16.877  0.00  0.00    +0.000 HD
BRANCH  19  23
ATOM     23  C   UNL     1       3.417   4.779  19.525  0.00  0.00    +0.000 A 
ATOM     24  C   UNL     1       2.786   3.820  20.324  0.00  0.00    +0.000 A 
ATOM     25  N   UNL     1       3.378   2.578  20.421  0.00  0.00    +0.000 NA
ATOM     26  C   UNL     1       4.467   2.590  19.686  0.00  0.00    +0.000 A 
ATOM     27  S   UNL     1       4.844   4.076  18.896  0.00  0.00    +0.000 S 
ENDBRANCH  19  23
ENDBRANCH  10  13
BRANCH   1  28
ATOM     28  N   UNL     1      -3.807  15.287  24.158  0.00  0.00    +0.000 NA
ATOM     29  H   UNL     1      -4.746  15.432  24.532  0.00  0.00    +0.000 HD
ATOM     30  H   UNL     1      -3.547  16.172  23.722  0.00  0.00    +0.000 HD
ENDBRANCH   1  28
TORSDOF 3
ENDMDL
MODEL 8
REMARK VINA RESULT:      -7.6      2.296      3.446
REMARK  Name = 
REMARK  3 active torsions:
REMARK  status: ('A' for Active; 'I' for Inactive)
REMARK    1  A    between atoms: N_1  and  C_2
REMARK    2  A    between atoms: C_11  and  C_12
REMARK    3  A    between atoms: C_18  and  C_19
REMARK                            x       y       z     vdW  Elec       q    Type
REMARK                         _______ _______ _______ _____ _____    ______ ____
ROOT
ATOM      1  C   UNL     1       3.442   2.673  20.390  0.00  0.00    +0.000 C 
ATOM      2  C   UNL     1       2.314   2.573  21.421  0.00  0.00    +0.000 C 
ATOM      3  C   UNL     1       1.120   3.448  21.026  0.00  0.00    +0.000 C 
ATOM      4  C   UNL     1       1.510   4.908  20.711  0.00  0.00    +0.000 C 
ATOM      5  N   UNL     1       2.564   4.909  19.709  0.00  0.00    +0.000 N 
ATOM      6  C   UNL     1       2.784   6.105  18.971  0.00  0.00    +0.000 A 
ATOM      7  C   UNL     1       3.580   5.915  17.823  0.00  0.00    +0.000 A 
ATOM      8  C   UNL     1       3.899   6.968  17.007  0.00  0.00    +0.000 A 
ATOM      9  C   UNL     1       3.375   8.199  17.331  0.00  0.00    +0.000 A 
ATOM     10  C   UNL     1       2.508   8.397  18.439  0.00  0.00    +0.000 A 
ATOM     11  N   UNL     1       2.213   7.341  19.273  0.00  0.00    +0.000 NA
ATOM     12  C   UNL     1       3.784   4.163  20.119  0.00  0.00    +0.000 C 
ENDROOT
BRANCH  10  13
ATOM     13  C   UNL     1       1.904   9.809  18.489  0.00  0.00    +0.000 A 
ATOM     14  N   UNL     1       2.484  10.631  17.571  0.00  0.00    +0.000 NA
ATOM     15  N   UNL     1       2.008  11.835  17.762  0.00  0.00    +0.000 N 
ATOM     16  C   UNL     1       1.025  11.896  18.677  0.00  0.00    +0.000 A 
ATOM     17  C   UNL     1       0.288  13.010  19.021  0.00  0.00    +0.000 A 
ATOM     18  N   UNL     1      -0.623  12.897  19.974  0.00  0.00    +0.000 NA
ATOM     19  C   UNL     1      -0.819  11.715  20.596  0.00  0.00    +0.000 A 
ATOM     20  C   UNL     1      -0.090  10.532  20.278  0.00  0.00    +0.000 A 
ATOM     21  C   UNL     1       0.896  10.612  19.233  0.00  0.00    +0.000 A 
ATOM     22  H   UNL     1       2.394  12.598  17.218  0.00  0.00    +0.000 HD
BRANCH  19  23
ATOM     23  C   UNL     1      -1.896  11.925  21.597  0.00  0.00    +0.000 A 
ATOM     24  C   UNL     1      -1.884  11.486  22.925  0.00  0.00    +0.000 A 
ATOM     25  N   UNL     1      -2.945  11.848  23.728  0.00  0.00    +0.000 NA
ATOM     26  C   UNL     1      -3.769  12.575  23.008  0.00  0.00    +0.000 A 
ATOM     27  S   UNL     1      -3.338  12.813  21.355  0.00  0.00    +0.000 S 
ENDBRANCH  19  23
ENDBRANCH  10  13
BRANCH   1  28
ATOM     28  N   UNL     1       4.610   1.900  20.846  0.00  0.00    +0.000 NA
ATOM     29  H   UNL     1       4.944   2.284  21.732  0.00  0.00    +0.000 HD
ATOM     30  H   UNL     1       5.383   2.015  20.190  0.00  0.00    +0.000 HD
ENDBRANCH   1  28
TORSDOF 3
ENDMDL
MODEL 9
REMARK VINA RESULT:      -7.6      3.671      9.526
REMARK  Name = 
REMARK  3 active torsions:
REMARK  status: ('A' for Active; 'I' for Inactive)
REMARK    1  A    between atoms: N_1  and  C_2
REMARK    2  A    between atoms: C_11  and  C_12
REMARK    3  A    between atoms: C_18  and  C_19
REMARK                            x       y       z     vdW  Elec       q    Type
REMARK                         _______ _______ _______ _____ _____    ______ ____
ROOT
ATOM      1  C   UNL     1       0.952  13.986  20.230  0.00  0.00    +0.000 C 
ATOM      2  C   UNL     1       1.673  14.248  18.905  0.00  0.00    +0.000 C 
ATOM      3  C   UNL     1       1.516  13.065  17.944  0.00  0.00    +0.000 C 
ATOM      4  C   UNL     1       1.904  11.710  18.573  0.00  0.00    +0.000 C 
ATOM      5  N   UNL     1       1.157  11.534  19.809  0.00  0.00    +0.000 N 
ATOM      6  C   UNL     1       1.030  10.217  20.332  0.00  0.00    +0.000 A 
ATOM      7  C   UNL     1       0.036  10.102  21.324  0.00  0.00    +0.000 A 
ATOM      8  C   UNL     1      -0.207   8.904  21.941  0.00  0.00    +0.000 A 
ATOM      9  C   UNL     1       0.526   7.817  21.521  0.00  0.00    +0.000 A 
ATOM     10  C   UNL     1       1.478   7.895  20.468  0.00  0.00    +0.000 A 
ATOM     11  N   UNL     1       1.739   9.107  19.870  0.00  0.00    +0.000 NA
ATOM     12  C   UNL     1       1.384  12.612  20.809  0.00  0.00    +0.000 C 
ENDROOT
BRANCH  10  13
ATOM     13  C   UNL     1       2.031   6.522  20.052  0.00  0.00    +0.000 A 
ATOM     14  N   UNL     1       1.507   5.523  20.814  0.00  0.00    +0.000 NA
ATOM     15  N   UNL     1       2.118   4.413  20.485  0.00  0.00    +0.000 N 
ATOM     16  C   UNL     1       2.954   4.539  19.439  0.00  0.00    +0.000 A 
ATOM     17  C   UNL     1       3.663   3.527  18.827  0.00  0.00    +0.000 A 
ATOM     18  N   UNL     1       4.473   3.837  17.826  0.00  0.00    +0.000 NA
ATOM     19  C   UNL     1       4.601   5.119  17.423  0.00  0.00    +0.000 A 
ATOM     20  C   UNL     1       3.890   6.203  18.016  0.00  0.00    +0.000 A 
ATOM     21  C   UNL     1       2.986   5.900  19.094  0.00  0.00    +0.000 A 
ATOM     22  H   UNL     1       1.912   3.574  21.014  0.00  0.00    +0.000 HD
BRANCH  19  23
ATOM     23  C   UNL     1       5.569   5.124  16.297  0.00  0.00    +0.000 A 
ATOM     24  C   UNL     1       6.831   5.727  16.298  0.00  0.00    +0.000 A 
ATOM     25  N   UNL     1       7.624   5.555  15.183  0.00  0.00    +0.000 NA
ATOM     26  C   UNL     1       6.963   4.810  14.327  0.00  0.00    +0.000 A 
ATOM     27  S   UNL     1       5.374   4.329  14.794  0.00  0.00    +0.000 S 
ENDBRANCH  19  23
ENDBRANCH  10  13
BRANCH   1  28
ATOM     28  N   UNL     1       1.202  15.096  21.166  0.00  0.00    +0.000 NA
ATOM     29  H   UNL     1       0.880  14.831  22.099  0.00  0.00    +0.000 HD
ATOM     30  H   UNL     1       0.641  15.907  20.904  0.00  0.00    +0.000 HD
ENDBRANCH   1  28
TORSDOF 3
ENDMDL
