MODEL 1
REMARK VINA RESULT:      -7.5      0.000      0.000
REMARK  Name = 
REMARK  7 active torsions:
REMARK  status: ('A' for Active; 'I' for Inactive)
REMARK    1  A    between atoms: C_1  and  C_2
REMARK    2  A    between atoms: C_2  and  O_3
REMARK    3  A    between atoms: O_3  and  C_4
REMARK    4  A    between atoms: C_4  and  O_6
REMARK    5  A    between atoms: O_6  and  C_7
REMARK    6  A    between atoms: C_12  and  S_13
REMARK    7  A    between atoms: S_13  and  C_14
REMARK                            x       y       z     vdW  Elec       q    Type
REMARK                         _______ _______ _______ _____ _____    ______ ____
ROOT
ATOM      1  C   UNL     1       1.139   9.373  19.267  0.00  0.00    +0.000 A 
ATOM      2  C   UNL     1       1.689   9.537  17.998  0.00  0.00    +0.000 A 
ATOM      3  C   UNL     1       2.512   8.548  17.462  0.00  0.00    +0.000 A 
ATOM      4  C   UNL     1       2.825   7.401  18.203  0.00  0.00    +0.000 A 
ATOM      5  C   UNL     1       3.649   6.400  17.662  0.00  0.00    +0.000 A 
ATOM      6  C   UNL     1       3.964   5.256  18.397  0.00  0.00    +0.000 A 
ATOM      7  C   UNL     1       3.448   5.110  19.687  0.00  0.00    +0.000 A 
ATOM      8  C   UNL     1       2.628   6.101  20.239  0.00  0.00    +0.000 A 
ATOM      9  C   UNL     1       2.299   7.252  19.508  0.00  0.00    +0.000 A 
ATOM     10  C   UNL     1       1.453   8.244  20.032  0.00  0.00    +0.000 A 
ENDROOT
BRANCH   1  11
ATOM     11  O   UNL     1       0.358  10.365  19.891  0.00  0.00    +0.000 OA
BRANCH  11  12
ATOM     12  C   UNL     1       1.023  11.383  20.556  0.00  0.00    +0.000 C 
ATOM     13  O   UNL     1       1.677  12.281  20.044  0.00  0.00    +0.000 OA
BRANCH  12  14
ATOM     14  O   UNL     1       0.956  11.122  21.888  0.00  0.00    +0.000 OA
BRANCH  14  16
ATOM     15  C   UNL     1      -0.253   9.551  23.235  0.00  0.00    +0.000 C 
ATOM     16  C   UNL     1      -0.357  10.788  22.357  0.00  0.00    +0.000 C 
ENDBRANCH  14  16
ENDBRANCH  12  14
ENDBRANCH  11  12
ENDBRANCH   1  11
BRANCH   6  17
ATOM     17  S   UNL     1       4.880   3.924  17.640  0.00  0.00    +0.000 S 
BRANCH  17  18
ATOM     18  C   UNL     1       6.567   4.588  17.531  0.00  0.00    +0.000 C 
ATOM     19  S   UNL     1       6.960   5.800  18.818  0.00  0.00    +0.000 S 
ATOM     20  C   UNL     1       7.482   6.993  17.657  0.00  0.00    +0.000 C 
ATOM     21  O   UNL     1       7.837   8.118  17.958  0.00  0.00    +0.000 OA
ATOM     22  N   UNL     1       7.419   6.501  16.402  0.00  0.00    +0.000 N 
ATOM     23  C   UNL     1       6.874   5.263  16.211  0.00  0.00    +0.000 C 
ATOM     24  O   UNL     1       6.698   4.785  15.097  0.00  0.00    +0.000 OA
ATOM     25  H   UNL     1       7.667   7.080  15.617  0.00  0.00    +0.000 HD
ENDBRANCH  17  18
ENDBRANCH   6  17
TORSDOF 6
ENDMDL
MODEL 2
REMARK VINA RESULT:      -7.4      2.212      3.406
REMARK  Name = 
REMARK  7 active torsions:
REMARK  status: ('A' for Active; 'I' for Inactive)
REMARK    1  A    between atoms: C_1  and  C_2
REMARK    2  A    between atoms: C_2  and  O_3
REMARK    3  A    between atoms: O_3  and  C_4
REMARK    4  A    between atoms: C_4  and  O_6
REMARK    5  A    between atoms: O_6  and  C_7
REMARK    6  A    between atoms: C_12  and  S_13
REMARK    7  A    between atoms: S_13  and  C_14
REMARK                            x       y       z     vdW  Elec       q    Type
REMARK                         _______ _______ _______ _____ _____    ______ ____
ROOT
ATOM      1  C   UNL     1      -0.029  10.736  20.365  0.00  0.00    +0.000 A 
ATOM      2  C   UNL     1      -0.018   9.849  21.440  0.00  0.00    +0.000 A 
ATOM      3  C   UNL     1       0.706   8.662  21.356  0.00  0.00    +0.000 A 
ATOM      4  C   UNL     1       1.397   8.329  20.184  0.00  0.00    +0.000 A 
ATOM      5  C   UNL     1       2.134   7.136  20.099  0.00  0.00    +0.000 A 
ATOM      6  C   UNL     1       2.823   6.800  18.933  0.00  0.00    +0.000 A 
ATOM      7  C   UNL     1       2.778   7.667  17.839  0.00  0.00    +0.000 A 
ATOM      8  C   UNL     1       2.046   8.858  17.908  0.00  0.00    +0.000 A 
ATOM      9  C   UNL     1       1.354   9.210  19.077  0.00  0.00    +0.000 A 
ATOM     10  C   UNL     1       0.639  10.415  19.178  0.00  0.00    +0.000 A 
ENDROOT
BRANCH   1  11
ATOM     11  O   UNL     1      -0.797  11.917  20.362  0.00  0.00    +0.000 OA
BRANCH  11  12
ATOM     12  C   UNL     1      -1.362  12.312  19.160  0.00  0.00    +0.000 C 
ATOM     13  O   UNL     1      -0.904  13.129  18.374  0.00  0.00    +0.000 OA
BRANCH  12  14
ATOM     14  O   UNL     1      -2.597  11.750  19.076  0.00  0.00    +0.000 OA
BRANCH  14  16
ATOM     15  C   UNL     1      -2.619   9.915  17.534  0.00  0.00    +0.000 C 
ATOM     16  C   UNL     1      -2.985  11.376  17.748  0.00  0.00    +0.000 C 
ENDBRANCH  14  16
ENDBRANCH  12  14
ENDBRANCH  11  12
ENDBRANCH   1  11
BRANCH   6  17
ATOM     17  S   UNL     1       3.880   5.362  18.896  0.00  0.00    +0.000 S 
BRANCH  17  18
ATOM     18  C   UNL     1       5.419   5.994  18.166  0.00  0.00    +0.000 C 
ATOM     19  S   UNL     1       5.548   5.719  16.381  0.00  0.00    +0.000 S 
ATOM     20  C   UNL     1       7.103   4.943  16.524  0.00  0.00    +0.000 C 
ATOM     21  O   UNL     1       7.707   4.462  15.583  0.00  0.00    +0.000 OA
ATOM     22  N   UNL     1       7.521   4.938  17.807  0.00  0.00    +0.000 N 
ATOM     23  C   UNL     1       6.672   5.399  18.774  0.00  0.00    +0.000 C 
ATOM     24  O   UNL     1       6.940   5.344  19.968  0.00  0.00    +0.000 OA
ATOM     25  H   UNL     1       8.394   4.503  18.055  0.00  0.00    +0.000 HD
ENDBRANCH  17  18
ENDBRANCH   6  17
TORSDOF 6
ENDMDL
MODEL 3
REMARK VINA RESULT:      -7.4      1.286      1.645
REMARK  Name = 
REMARK  7 active torsions:
REMARK  status: ('A' for Active; 'I' for Inactive)
REMARK    1  A    between atoms: C_1  and  C_2
REMARK    2  A    between atoms: C_2  and  O_3
REMARK    3  A    between atoms: O_3  and  C_4
REMARK    4  A    between atoms: C_4  and  O_6
REMARK    5  A    between atoms: O_6  and  C_7
REMARK    6  A    between atoms: C_12  and  S_13
REMARK    7  A    between atoms: S_13  and  C_14
REMARK                            x       y       z     vdW  Elec       q    Type
REMARK                         _______ _______ _______ _____ _____    ______ ____
ROOT
ATOM      1  C   UNL     1       1.288   7.805  20.569  0.00  0.00    +0.000 A 
ATOM      2  C   UNL     1       1.691   8.506  19.435  0.00  0.00    +0.000 A 
ATOM      3  C   UNL     1       2.468   7.876  18.466  0.00  0.00    +0.000 A 
ATOM      4  C   UNL     1       2.883   6.549  18.635  0.00  0.00    +0.000 A 
ATOM      5  C   UNL     1       3.661   5.909  17.656  0.00  0.00    +0.000 A 
ATOM      6  C   UNL     1       4.077   4.587  17.821  0.00  0.00    +0.000 A 
ATOM      7  C   UNL     1       3.710   3.896  18.978  0.00  0.00    +0.000 A 
ATOM      8  C   UNL     1       2.936   4.521  19.963  0.00  0.00    +0.000 A 
ATOM      9  C   UNL     1       2.507   5.847  19.805  0.00  0.00    +0.000 A 
ATOM     10  C   UNL     1       1.705   6.484  20.767  0.00  0.00    +0.000 A 
ENDROOT
BRANCH   1  11
ATOM     11  O   UNL     1       0.561   8.404  21.616  0.00  0.00    +0.000 OA
BRANCH  11  12
ATOM     12  C   UNL     1       1.138   9.488  22.259  0.00  0.00    +0.000 C 
ATOM     13  O   UNL     1       2.169   9.479  22.918  0.00  0.00    +0.000 OA
BRANCH  12  14
ATOM     14  O   UNL     1       0.276  10.534  22.165  0.00  0.00    +0.000 OA
BRANCH  14  16
ATOM     15  C   UNL     1      -1.587  11.781  23.015  0.00  0.00    +0.000 C 
ATOM     16  C   UNL     1      -0.850  10.451  23.049  0.00  0.00    +0.000 C 
ENDBRANCH  14  16
ENDBRANCH  12  14
ENDBRANCH  11  12
ENDBRANCH   1  11
BRANCH   6  17
ATOM     17  S   UNL     1       4.929   3.741  16.500  0.00  0.00    +0.000 S 
BRANCH  17  18
ATOM     18  C   UNL     1       6.629   4.368  16.632  0.00  0.00    +0.000 C 
ATOM     19  S   UNL     1       7.067   4.950  18.289  0.00  0.00    +0.000 S 
ATOM     20  C   UNL     1       7.597   6.503  17.698  0.00  0.00    +0.000 C 
ATOM     21  O   UNL     1       7.981   7.405  18.419  0.00  0.00    +0.000 OA
ATOM     22  N   UNL     1       7.506   6.562  16.353  0.00  0.00    +0.000 N 
ATOM     23  C   UNL     1       6.931   5.515  15.690  0.00  0.00    +0.000 C 
ATOM     24  O   UNL     1       6.728   5.530  14.482  0.00  0.00    +0.000 OA
ATOM     25  H   UNL     1       7.754   7.406  15.864  0.00  0.00    +0.000 HD
ENDBRANCH  17  18
ENDBRANCH   6  17
TORSDOF 6
ENDMDL
MODEL 4
REMARK VINA RESULT:      -7.3      1.075      1.559
REMARK  Name = 
REMARK  7 active torsions:
REMARK  status: ('A' for Active; 'I' for Inactive)
REMARK    1  A    between atoms: C_1  and  C_2
REMARK    2  A    between atoms: C_2  and  O_3
REMARK    3  A    between atoms: O_3  and  C_4
REMARK    4  A    between atoms: C_4  and  O_6
REMARK    5  A    between atoms: O_6  and  C_7
REMARK    6  A    between atoms: C_12  and  S_13
REMARK    7  A    between atoms: S_13  and  C_14
REMARK                            x       y       z     vdW  Elec       q    Type
REMARK                         _______ _______ _______ _____ _____    ______ ____
ROOT
ATOM      1  C   UNL     1       1.133   9.226  19.886  0.00  0.00    +0.000 A 
ATOM      2  C   UNL     1       1.527   9.599  18.603  0.00  0.00    +0.000 A 
ATOM      3  C   UNL     1       2.275   8.721  17.821  0.00  0.00    +0.000 A 
ATOM      4  C   UNL     1       2.669   7.475  18.324  0.00  0.00    +0.000 A 
ATOM      5  C   UNL     1       3.416   6.585  17.535  0.00  0.00    +0.000 A 
ATOM      6  C   UNL     1       3.812   5.343  18.033  0.00  0.00    +0.000 A 
ATOM      7  C   UNL     1       3.454   4.984  19.335  0.00  0.00    +0.000 A 
ATOM      8  C   UNL     1       2.711   5.861  20.134  0.00  0.00    +0.000 A 
ATOM      9  C   UNL     1       2.303   7.110  19.642  0.00  0.00    +0.000 A 
ATOM     10  C   UNL     1       1.531   7.993  20.416  0.00  0.00    +0.000 A 
ENDROOT
BRANCH   1  11
ATOM     11  O   UNL     1       0.438  10.093  20.751  0.00  0.00    +0.000 OA
BRANCH  11  12
ATOM     12  C   UNL     1       0.674  11.453  20.623  0.00  0.00    +0.000 C 
ATOM     13  O   UNL     1       1.711  12.040  20.895  0.00  0.00    +0.000 OA
BRANCH  12  14
ATOM     14  O   UNL     1      -0.502  12.049  20.290  0.00  0.00    +0.000 OA
BRANCH  14  16
ATOM     15  C   UNL     1      -1.481  11.802  18.116  0.00  0.00    +0.000 C 
ATOM     16  C   UNL     1      -0.522  12.614  18.973  0.00  0.00    +0.000 C 
ENDBRANCH  14  16
ENDBRANCH  12  14
ENDBRANCH  11  12
ENDBRANCH   1  11
BRANCH   6  17
ATOM     17  S   UNL     1       4.623   4.163  16.967  0.00  0.00    +0.000 S 
BRANCH  17  18
ATOM     18  C   UNL     1       6.374   4.631  17.084  0.00  0.00    +0.000 C 
ATOM     19  S   UNL     1       6.789   5.538  18.595  0.00  0.00    +0.000 S 
ATOM     20  C   UNL     1       7.524   6.849  17.711  0.00  0.00    +0.000 C 
ATOM     21  O   UNL     1       7.971   7.852  18.238  0.00  0.00    +0.000 OA
ATOM     22  N   UNL     1       7.510   6.601  16.385  0.00  0.00    +0.000 N 
ATOM     23  C   UNL     1       6.855   5.491  15.934  0.00  0.00    +0.000 C 
ATOM     24  O   UNL     1       6.718   5.244  14.741  0.00  0.00    +0.000 OA
ATOM     25  H   UNL     1       7.879   7.279  15.738  0.00  0.00    +0.000 HD
ENDBRANCH  17  18
ENDBRANCH   6  17
TORSDOF 6
ENDMDL
MODEL 5
REMARK VINA RESULT:      -7.2      3.197      4.239
REMARK  Name = 
REMARK  7 active torsions:
REMARK  status: ('A' for Active; 'I' for Inactive)
REMARK    1  A    between atoms: C_1  and  C_2
REMARK    2  A    between atoms: C_2  and  O_3
REMARK    3  A    between atoms: O_3  and  C_4
REMARK    4  A    between atoms: C_4  and  O_6
REMARK    5  A    between atoms: O_6  and  C_7
REMARK    6  A    between atoms: C_12  and  S_13
REMARK    7  A    between atoms: S_13  and  C_14
REMARK                            x       y       z     vdW  Elec       q    Type
REMARK                         _______ _______ _______ _____ _____    ______ ____
ROOT
ATOM      1  C   UNL     1      -0.211  10.681  21.137  0.00  0.00    +0.000 A 
ATOM      2  C   UNL     1       0.043   9.622  22.006  0.00  0.00    +0.000 A 
ATOM      3  C   UNL     1       0.817   8.544  21.583  0.00  0.00    +0.000 A 
ATOM      4  C   UNL     1       1.315   8.493  20.275  0.00  0.00    +0.000 A 
ATOM      5  C   UNL     1       2.101   7.410  19.848  0.00  0.00    +0.000 A 
ATOM      6  C   UNL     1       2.599   7.354  18.544  0.00  0.00    +0.000 A 
ATOM      7  C   UNL     1       2.309   8.394  17.659  0.00  0.00    +0.000 A 
ATOM      8  C   UNL     1       1.526   9.479  18.070  0.00  0.00    +0.000 A 
ATOM      9  C   UNL     1       1.025   9.549  19.378  0.00  0.00    +0.000 A 
ATOM     10  C   UNL     1       0.262  10.643  19.820  0.00  0.00    +0.000 A 
ENDROOT
BRANCH   1  11
ATOM     11  O   UNL     1      -1.042  11.765  21.481  0.00  0.00    +0.000 OA
BRANCH  11  12
ATOM     12  C   UNL     1      -0.490  12.779  22.248  0.00  0.00    +0.000 C 
ATOM     13  O   UNL     1       0.492  13.452  21.968  0.00  0.00    +0.000 OA
BRANCH  12  14
ATOM     14  O   UNL     1      -1.136  12.794  23.444  0.00  0.00    +0.000 OA
BRANCH  14  16
ATOM     15  C   UNL     1      -3.512  12.691  23.747  0.00  0.00    +0.000 C 
ATOM     16  C   UNL     1      -2.324  13.596  23.462  0.00  0.00    +0.000 C 
ENDBRANCH  14  16
ENDBRANCH  12  14
ENDBRANCH  11  12
ENDBRANCH   1  11
BRANCH   6  17
ATOM     17  S   UNL     1       3.724   6.054  18.066  0.00  0.00    +0.000 S 
BRANCH  17  18
ATOM     18  C   UNL     1       2.992   4.572  18.820  0.00  0.00    +0.000 C 
ATOM     19  S   UNL     1       4.213   3.348  19.359  0.00  0.00    +0.000 S 
ATOM     20  C   UNL     1       3.444   2.060  18.468  0.00  0.00    +0.000 C 
ATOM     21  O   UNL     1       3.882   0.926  18.406  0.00  0.00    +0.000 OA
ATOM     22  N   UNL     1       2.325   2.501  17.856  0.00  0.00    +0.000 N 
ATOM     23  C   UNL     1       2.032   3.834  17.911  0.00  0.00    +0.000 C 
ATOM     24  O   UNL     1       1.086   4.327  17.307  0.00  0.00    +0.000 OA
ATOM     25  H   UNL     1       1.782   1.879  17.282  0.00  0.00    +0.000 HD
ENDBRANCH  17  18
ENDBRANCH   6  17
TORSDOF 6
ENDMDL
MODEL 6
REMARK VINA RESULT:      -7.2      4.496      8.426
REMARK  Name = 
REMARK  7 active torsions:
REMARK  status: ('A' for Active; 'I' for Inactive)
REMARK    1  A    between atoms: C_1  and  C_2
REMARK    2  A    between atoms: C_2  and  O_3
REMARK    3  A    between atoms: O_3  and  C_4
REMARK    4  A    between atoms: C_4  and  O_6
REMARK    5  A    between atoms: O_6  and  C_7
REMARK    6  A    between atoms: C_12  and  S_13
REMARK    7  A    between atoms: S_13  and  C_14
REMARK                            x       y       z     vdW  Elec       q    Type
REMARK                         _______ _______ _______ _____ _____    ______ ____
ROOT
ATOM      1  C   UNL     1       3.816   5.798  18.871  0.00  0.00    +0.000 A 
ATOM      2  C   UNL     1       3.811   6.478  17.656  0.00  0.00    +0.000 A 
ATOM      3  C   UNL     1       3.035   7.625  17.503  0.00  0.00    +0.000 A 
ATOM      4  C   UNL     1       2.227   8.085  18.551  0.00  0.00    +0.000 A 
ATOM      5  C   UNL     1       1.450   9.246  18.402  0.00  0.00    +0.000 A 
ATOM      6  C   UNL     1       0.643   9.707  19.443  0.00  0.00    +0.000 A 
ATOM      7  C   UNL     1       0.614   9.001  20.648  0.00  0.00    +0.000 A 
ATOM      8  C   UNL     1       1.382   7.843  20.810  0.00  0.00    +0.000 A 
ATOM      9  C   UNL     1       2.201   7.373  19.773  0.00  0.00    +0.000 A 
ATOM     10  C   UNL     1       3.003   6.229  19.926  0.00  0.00    +0.000 A 
ENDROOT
BRANCH   1  11
ATOM     11  O   UNL     1       4.524   4.595  19.066  0.00  0.00    +0.000 OA
BRANCH  11  12
ATOM     12  C   UNL     1       5.906   4.667  19.136  0.00  0.00    +0.000 C 
ATOM     13  O   UNL     1       6.562   5.313  19.941  0.00  0.00    +0.000 OA
BRANCH  12  14
ATOM     14  O   UNL     1       6.411   4.018  18.053  0.00  0.00    +0.000 OA
BRANCH  14  16
ATOM     15  C   UNL     1       7.156   5.706  16.522  0.00  0.00    +0.000 C 
ATOM     16  C   UNL     1       7.587   4.623  17.500  0.00  0.00    +0.000 C 
ENDBRANCH  14  16
ENDBRANCH  12  14
ENDBRANCH  11  12
ENDBRANCH   1  11
BRANCH   6  17
ATOM     17  S   UNL     1      -0.215  11.265  19.293  0.00  0.00    +0.000 S 
BRANCH  17  18
ATOM     18  C   UNL     1      -1.903  10.770  18.840  0.00  0.00    +0.000 C 
ATOM     19  S   UNL     1      -2.026  10.004  17.205  0.00  0.00    +0.000 S 
ATOM     20  C   UNL     1      -3.275  11.106  16.686  0.00  0.00    +0.000 C 
ATOM     21  O   UNL     1      -3.752  11.106  15.566  0.00  0.00    +0.000 OA
ATOM     22  N   UNL     1      -3.614  11.950  17.682  0.00  0.00    +0.000 N 
ATOM     23  C   UNL     1      -2.896  11.914  18.843  0.00  0.00    +0.000 C 
ATOM     24  O   UNL     1      -3.081  12.707  19.759  0.00  0.00    +0.000 OA
ATOM     25  H   UNL     1      -4.307  12.663  17.528  0.00  0.00    +0.000 HD
ENDBRANCH  17  18
ENDBRANCH   6  17
TORSDOF 6
ENDMDL
MODEL 7
REMARK VINA RESULT:      -7.1      3.549      4.723
REMARK  Name = 
REMARK  7 active torsions:
REMARK  status: ('A' for Active; 'I' for Inactive)
REMARK    1  A    between atoms: C_1  and  C_2
REMARK    2  A    between atoms: C_2  and  O_3
REMARK    3  A    between atoms: O_3  and  C_4
REMARK    4  A    between atoms: C_4  and  O_6
REMARK    5  A    between atoms: O_6  and  C_7
REMARK    6  A    between atoms: C_12  and  S_13
REMARK    7  A    between atoms: S_13  and  C_14
REMARK                            x       y       z     vdW  Elec       q    Type
REMARK                         _______ _______ _______ _____ _____    ______ ____
ROOT
ATOM      1  C   UNL     1       1.020   9.505  19.072  0.00  0.00    +0.000 A 
ATOM      2  C   UNL     1       0.816   8.882  20.301  0.00  0.00    +0.000 A 
ATOM      3  C   UNL     1       1.489   7.700  20.603  0.00  0.00    +0.000 A 
ATOM      4  C   UNL     1       2.346   7.107  19.666  0.00  0.00    +0.000 A 
ATOM      5  C   UNL     1       3.031   5.920  19.971  0.00  0.00    +0.000 A 
ATOM      6  C   UNL     1       3.885   5.325  19.041  0.00  0.00    +0.000 A 
ATOM      7  C   UNL     1       4.057   5.926  17.792  0.00  0.00    +0.000 A 
ATOM      8  C   UNL     1       3.379   7.108  17.473  0.00  0.00    +0.000 A 
ATOM      9  C   UNL     1       2.523   7.718  18.402  0.00  0.00    +0.000 A 
ATOM     10  C   UNL     1       1.857   8.921  18.114  0.00  0.00    +0.000 A 
ENDROOT
BRANCH   1  11
ATOM     11  O   UNL     1       0.318  10.662  18.680  0.00  0.00    +0.000 OA
BRANCH  11  12
ATOM     12  C   UNL     1      -1.002  10.509  18.285  0.00  0.00    +0.000 C 
ATOM     13  O   UNL     1      -1.415   9.790  17.386  0.00  0.00    +0.000 OA
BRANCH  12  14
ATOM     14  O   UNL     1      -1.748  11.418  18.968  0.00  0.00    +0.000 OA
BRANCH  14  16
ATOM     15  C   UNL     1      -3.929  12.246  19.520  0.00  0.00    +0.000 C 
ATOM     16  C   UNL     1      -3.066  11.613  18.439  0.00  0.00    +0.000 C 
ENDBRANCH  14  16
ENDBRANCH  12  14
ENDBRANCH  11  12
ENDBRANCH   1  11
BRANCH   6  17
ATOM     17  S   UNL     1       4.867   3.907  19.499  0.00  0.00    +0.000 S 
BRANCH  17  18
ATOM     18  C   UNL     1       3.663   2.547  19.495  0.00  0.00    +0.000 C 
ATOM     19  S   UNL     1       2.638   2.483  18.004  0.00  0.00    +0.000 S 
ATOM     20  C   UNL     1       1.153   2.473  18.919  0.00  0.00    +0.000 C 
ATOM     21  O   UNL     1       0.046   2.489  18.411  0.00  0.00    +0.000 OA
ATOM     22  N   UNL     1       1.405   2.463  20.244  0.00  0.00    +0.000 N 
ATOM     23  C   UNL     1       2.700   2.580  20.664  0.00  0.00    +0.000 C 
ATOM     24  O   UNL     1       3.004   2.670  21.848  0.00  0.00    +0.000 OA
ATOM     25  H   UNL     1       0.647   2.480  20.905  0.00  0.00    +0.000 HD
ENDBRANCH  17  18
ENDBRANCH   6  17
TORSDOF 6
ENDMDL
MODEL 8
REMARK VINA RESULT:      -7.1      3.043      4.031
REMARK  Name = 
REMARK  7 active torsions:
REMARK  status: ('A' for Active; 'I' for Inactive)
REMARK    1  A    between atoms: C_1  and  C_2
REMARK    2  A    between atoms: C_2  and  O_3
REMARK    3  A    between atoms: O_3  and  C_4
REMARK    4  A    between atoms: C_4  and  O_6
REMARK    5  A    between atoms: O_6  and  C_7
REMARK    6  A    between atoms: C_12  and  S_13
REMARK    7  A    between atoms: S_13  and  C_14
REMARK                            x       y       z     vdW  Elec       q    Type
REMARK                         _______ _______ _______ _____ _____    ______ ____
ROOT
ATOM      1  C   UNL     1       0.684   9.514  19.774  0.00  0.00    +0.000 A 
ATOM      2  C   UNL     1       0.667   8.648  20.865  0.00  0.00    +0.000 A 
ATOM      3  C   UNL     1       1.475   7.513  20.866  0.00  0.00    +0.000 A 
ATOM      4  C   UNL     1       2.282   7.210  19.762  0.00  0.00    +0.000 A 
ATOM      5  C   UNL     1       3.102   6.069  19.764  0.00  0.00    +0.000 A 
ATOM      6  C   UNL     1       3.907   5.763  18.665  0.00  0.00    +0.000 A 
ATOM      7  C   UNL     1       3.893   6.608  17.552  0.00  0.00    +0.000 A 
ATOM      8  C   UNL     1       3.079   7.746  17.536  0.00  0.00    +0.000 A 
ATOM      9  C   UNL     1       2.270   8.067  18.636  0.00  0.00    +0.000 A 
ATOM     10  C   UNL     1       1.469   9.222  18.653  0.00  0.00    +0.000 A 
ENDROOT
BRANCH   1  11
ATOM     11  O   UNL     1      -0.159  10.639  19.682  0.00  0.00    +0.000 OA
BRANCH  11  12
ATOM     12  C   UNL     1       0.209  11.776  20.384  0.00  0.00    +0.000 C 
ATOM     13  O   UNL     1       1.340  12.228  20.497  0.00  0.00    +0.000 OA
BRANCH  12  14
ATOM     14  O   UNL     1      -0.884  12.219  21.060  0.00  0.00    +0.000 OA
BRANCH  14  16
ATOM     15  C   UNL     1      -1.400  11.101  23.117  0.00  0.00    +0.000 C 
ATOM     16  C   UNL     1      -0.707  12.296  22.480  0.00  0.00    +0.000 C 
ENDBRANCH  14  16
ENDBRANCH  12  14
ENDBRANCH  11  12
ENDBRANCH   1  11
BRANCH   6  17
ATOM     17  S   UNL     1       5.058   4.402  18.745  0.00  0.00    +0.000 S 
BRANCH  17  18
ATOM     18  C   UNL     1       3.990   2.942  18.584  0.00  0.00    +0.000 C 
ATOM     19  S   UNL     1       2.580   3.187  17.474  0.00  0.00    +0.000 S 
ATOM     20  C   UNL     1       1.430   2.665  18.677  0.00  0.00    +0.000 C 
ATOM     21  O   UNL     1       0.225   2.666  18.504  0.00  0.00    +0.000 OA
ATOM     22  N   UNL     1       2.058   2.282  19.808  0.00  0.00    +0.000 N 
ATOM     23  C   UNL     1       3.410   2.461  19.898  0.00  0.00    +0.000 C 
ATOM     24  O   UNL     1       4.040   2.225  20.922  0.00  0.00    +0.000 OA
ATOM     25  H   UNL     1       1.526   1.976  20.605  0.00  0.00    +0.000 HD
ENDBRANCH  17  18
ENDBRANCH   6  17
TORSDOF 6
ENDMDL
MODEL 9
REMARK VINA RESULT:      -7.1      4.356      8.488
REMARK  Name = 
REMARK  7 active torsions:
REMARK  status: ('A' for Active; 'I' for Inactive)
REMARK    1  A    between atoms: C_1  and  C_2
REMARK    2  A    between atoms: C_2  and  O_3
REMARK    3  A    between atoms: O_3  and  C_4
REMARK    4  A    between atoms: C_4  and  O_6
REMARK    5  A    between atoms: O_6  and  C_7
REMARK    6  A    between atoms: C_12  and  S_13
REMARK    7  A    between atoms: S_13  and  C_14
REMARK                            x       y       z     vdW  Elec       q    Type
REMARK                         _______ _______ _______ _____ _____    ______ ____
ROOT
ATOM      1  C   UNL     1       3.027   5.073  19.215  0.00  0.00    +0.000 A 
ATOM      2  C   UNL     1       2.398   5.288  20.440  0.00  0.00    +0.000 A 
ATOM      3  C   UNL     1       1.790   6.513  20.705  0.00  0.00    +0.000 A 
ATOM      4  C   UNL     1       1.835   7.551  19.765  0.00  0.00    +0.000 A 
ATOM      5  C   UNL     1       1.217   8.784  20.027  0.00  0.00    +0.000 A 
ATOM      6  C   UNL     1       1.260   9.821  19.093  0.00  0.00    +0.000 A 
ATOM      7  C   UNL     1       1.927   9.622  17.883  0.00  0.00    +0.000 A 
ATOM      8  C   UNL     1       2.549   8.398  17.608  0.00  0.00    +0.000 A 
ATOM      9  C   UNL     1       2.508   7.347  18.536  0.00  0.00    +0.000 A 
ATOM     10  C   UNL     1       3.099   6.101  18.268  0.00  0.00    +0.000 A 
ENDROOT
BRANCH   1  11
ATOM     11  O   UNL     1       3.718   3.883  18.914  0.00  0.00    +0.000 OA
BRANCH  11  12
ATOM     12  C   UNL     1       5.027   3.995  18.471  0.00  0.00    +0.000 C 
ATOM     13  O   UNL     1       5.991   4.352  19.133  0.00  0.00    +0.000 OA
BRANCH  12  14
ATOM     14  O   UNL     1       5.029   3.791  17.127  0.00  0.00    +0.000 OA
BRANCH  14  16
ATOM     15  C   UNL     1       6.096   3.995  14.990  0.00  0.00    +0.000 C 
ATOM     16  C   UNL     1       6.070   4.487  16.429  0.00  0.00    +0.000 C 
ENDBRANCH  14  16
ENDBRANCH  12  14
ENDBRANCH  11  12
ENDBRANCH   1  11
BRANCH   6  17
ATOM     17  S   UNL     1       0.338  11.323  19.375  0.00  0.00    +0.000 S 
BRANCH  17  18
ATOM     18  C   UNL     1      -1.383  10.815  19.094  0.00  0.00    +0.000 C 
ATOM     19  S   UNL     1      -1.677  10.104  17.455  0.00  0.00    +0.000 S 
ATOM     20  C   UNL     1      -2.991  11.200  17.118  0.00  0.00    +0.000 C 
ATOM     21  O   UNL     1      -3.590  11.232  16.059  0.00  0.00    +0.000 OA
ATOM     22  N   UNL     1      -3.229  12.003  18.176  0.00  0.00    +0.000 N 
ATOM     23  C   UNL     1      -2.385  11.939  19.249  0.00  0.00    +0.000 C 
ATOM     24  O   UNL     1      -2.478  12.697  20.208  0.00  0.00    +0.000 OA
ATOM     25  H   UNL     1      -3.944  12.709  18.127  0.00  0.00    +0.000 HD
ENDBRANCH  17  18
ENDBRANCH   6  17
TORSDOF 6
ENDMDL
