MODEL 1
REMARK VINA RESULT:      -6.8      0.000      0.000
REMARK  Name = 
REMARK  12 active torsions:
REMARK  status: ('A' for Active; 'I' for Inactive)
REMARK    1  A    between atoms: C_1  and  C_2
REMARK    2  A    between atoms: C_2  and  O_3
REMARK    3  A    between atoms: O_3  and  C_4
REMARK    4  A    between atoms: N_6  and  C_7
REMARK    5  A    between atoms: C_7  and  N_9
REMARK    6  A    between atoms: N_9  and  C_10
REMARK    7  A    between atoms: C_15  and  N_16
REMARK    8  A    between atoms: N_16  and  C_17
REMARK    9  A    between atoms: C_17  and  N_19
REMARK   10  A    between atoms: C_20  and  O_22
REMARK   11  A    between atoms: O_22  and  C_23
REMARK   12  A    between atoms: C_23  and  C_24
REMARK                            x       y       z     vdW  Elec       q    Type
REMARK                         _______ _______ _______ _____ _____    ______ ____
ROOT
ATOM      1  C   UNL     1       2.361   5.237  19.490  0.00  0.00    +0.000 A 
ATOM      2  C   UNL     1       1.336   4.536  20.148  0.00  0.00    +0.000 A 
ATOM      3  C   UNL     1       0.868   3.321  19.652  0.00  0.00    +0.000 A 
ATOM      4  C   UNL     1       1.417   2.797  18.495  0.00  0.00    +0.000 A 
ATOM      5  C   UNL     1       2.421   3.492  17.817  0.00  0.00    +0.000 A 
ATOM      6  C   UNL     1       2.891   4.725  18.287  0.00  0.00    +0.000 A 
ENDROOT
BRANCH   1   7
ATOM      7  N   UNL     1       2.786   6.502  19.968  0.00  0.00    +0.000 N 
ATOM      8  H   UNL     1       3.790   6.603  20.093  0.00  0.00    +0.000 HD
BRANCH   7   9
ATOM      9  C   UNL     1       2.065   7.675  19.989  0.00  0.00    +0.000 C 
ATOM     10  S   UNL     1       1.769   8.442  18.538  0.00  0.00    +0.000 S 
BRANCH   9  13
ATOM     11  C   UNL     1       0.520   8.481  21.748  0.00  0.00    +0.000 C 
ATOM     12  O   UNL     1      -0.561   7.983  21.488  0.00  0.00    +0.000 OA
ATOM     13  N   UNL     1       1.747   8.126  21.257  0.00  0.00    +0.000 N 
ATOM     14  H   UNL     1       2.494   8.633  21.708  0.00  0.00    +0.000 HD
BRANCH  11  15
ATOM     15  O   UNL     1       0.710   9.498  22.636  0.00  0.00    +0.000 OA
BRANCH  15  17
ATOM     16  C   UNL     1      -0.744  11.380  22.461  0.00  0.00    +0.000 C 
ATOM     17  C   UNL     1      -0.498  10.058  23.168  0.00  0.00    +0.000 C 
ENDBRANCH  15  17
ENDBRANCH  11  15
ENDBRANCH   9  13
ENDBRANCH   7   9
ENDBRANCH   1   7
BRANCH   6  18
ATOM     18  N   UNL     1       3.992   5.372  17.666  0.00  0.00    +0.000 N 
ATOM     19  H   UNL     1       3.747   6.134  17.032  0.00  0.00    +0.000 HD
BRANCH  18  20
ATOM     20  C   UNL     1       5.334   5.201  17.910  0.00  0.00    +0.000 C 
ATOM     21  S   UNL     1       6.106   5.273  19.397  0.00  0.00    +0.000 S 
BRANCH  20  22
ATOM     22  N   UNL     1       6.119   4.937  16.810  0.00  0.00    +0.000 N 
ATOM     23  C   UNL     1       6.270   5.685  15.672  0.00  0.00    +0.000 C 
ATOM     24  O   UNL     1       5.539   6.611  15.345  0.00  0.00    +0.000 OA
ATOM     25  H   UNL     1       6.669   4.089  16.843  0.00  0.00    +0.000 HD
BRANCH  23  26
ATOM     26  O   UNL     1       7.268   5.157  14.918  0.00  0.00    +0.000 OA
BRANCH  26  27
ATOM     27  C   UNL     1       6.930   4.844  13.558  0.00  0.00    +0.000 C 
ATOM     28  C   UNL     1       5.932   3.707  13.412  0.00  0.00    +0.000 C 
ENDBRANCH  26  27
ENDBRANCH  23  26
ENDBRANCH  20  22
ENDBRANCH  18  20
ENDBRANCH   6  18
TORSDOF 10
ENDMDL
MODEL 2
REMARK VINA RESULT:      -6.7      0.871      7.959
REMARK  Name = 
REMARK  12 active torsions:
REMARK  status: ('A' for Active; 'I' for Inactive)
REMARK    1  A    between atoms: C_1  and  C_2
REMARK    2  A    between atoms: C_2  and  O_3
REMARK    3  A    between atoms: O_3  and  C_4
REMARK    4  A    between atoms: N_6  and  C_7
REMARK    5  A    between atoms: C_7  and  N_9
REMARK    6  A    between atoms: N_9  and  C_10
REMARK    7  A    between atoms: C_15  and  N_16
REMARK    8  A    between atoms: N_16  and  C_17
REMARK    9  A    between atoms: C_17  and  N_19
REMARK   10  A    between atoms: C_20  and  O_22
REMARK   11  A    between atoms: O_22  and  C_23
REMARK   12  A    between atoms: C_23  and  C_24
REMARK                            x       y       z     vdW  Elec       q    Type
REMARK                         _______ _______ _______ _____ _____    ______ ____
ROOT
ATOM      1  C   UNL     1       2.779   4.594  18.501  0.00  0.00    +0.000 A 
ATOM      2  C   UNL     1       2.300   3.315  18.173  0.00  0.00    +0.000 A 
ATOM      3  C   UNL     1       1.293   2.713  18.923  0.00  0.00    +0.000 A 
ATOM      4  C   UNL     1       0.756   3.382  20.009  0.00  0.00    +0.000 A 
ATOM      5  C   UNL     1       1.236   4.645  20.362  0.00  0.00    +0.000 A 
ATOM      6  C   UNL     1       2.263   5.259  19.634  0.00  0.00    +0.000 A 
ENDROOT
BRANCH   1   7
ATOM      7  N   UNL     1       3.847   5.170  17.770  0.00  0.00    +0.000 N 
ATOM      8  H   UNL     1       3.630   6.048  17.304  0.00  0.00    +0.000 HD
BRANCH   7   9
ATOM      9  C   UNL     1       5.187   4.864  17.860  0.00  0.00    +0.000 C 
ATOM     10  S   UNL     1       5.991   5.263  19.266  0.00  0.00    +0.000 S 
BRANCH   9  13
ATOM     11  C   UNL     1       7.033   4.344  16.294  0.00  0.00    +0.000 C 
ATOM     12  O   UNL     1       8.035   4.262  16.984  0.00  0.00    +0.000 OA
ATOM     13  N   UNL     1       5.728   4.329  16.705  0.00  0.00    +0.000 N 
ATOM     14  H   UNL     1       5.089   4.314  15.926  0.00  0.00    +0.000 HD
BRANCH  11  15
ATOM     15  O   UNL     1       7.036   4.434  14.934  0.00  0.00    +0.000 OA
BRANCH  15  17
ATOM     16  C   UNL     1       5.941   3.671  12.957  0.00  0.00    +0.000 C 
ATOM     17  C   UNL     1       5.745   4.301  14.326  0.00  0.00    +0.000 C 
ENDBRANCH  15  17
ENDBRANCH  11  15
ENDBRANCH   9  13
ENDBRANCH   7   9
ENDBRANCH   1   7
BRANCH   6  18
ATOM     18  N   UNL     1       2.667   6.590  19.919  0.00  0.00    +0.000 N 
ATOM     19  H   UNL     1       3.521   6.676  20.474  0.00  0.00    +0.000 HD
BRANCH  18  20
ATOM     20  C   UNL     1       2.143   7.766  19.437  0.00  0.00    +0.000 C 
ATOM     21  S   UNL     1       2.018   8.228  17.830  0.00  0.00    +0.000 S 
BRANCH  20  22
ATOM     22  N   UNL     1       1.669   8.649  20.380  0.00  0.00    +0.000 N 
ATOM     23  C   UNL     1       0.659   8.465  21.286  0.00  0.00    +0.000 C 
ATOM     24  O   UNL     1      -0.155   7.552  21.248  0.00  0.00    +0.000 OA
ATOM     25  H   UNL     1       2.129   9.548  20.425  0.00  0.00    +0.000 HD
BRANCH  23  26
ATOM     26  O   UNL     1       0.630   9.517  22.145  0.00  0.00    +0.000 OA
BRANCH  26  27
ATOM     27  C   UNL     1      -0.544   9.628  22.964  0.00  0.00    +0.000 C 
ATOM     28  C   UNL     1      -1.053  11.051  23.129  0.00  0.00    +0.000 C 
ENDBRANCH  26  27
ENDBRANCH  23  26
ENDBRANCH  20  22
ENDBRANCH  18  20
ENDBRANCH   6  18
TORSDOF 10
ENDMDL
MODEL 3
REMARK VINA RESULT:      -6.6      2.382      2.913
REMARK  Name = 
REMARK  12 active torsions:
REMARK  status: ('A' for Active; 'I' for Inactive)
REMARK    1  A    between atoms: C_1  and  C_2
REMARK    2  A    between atoms: C_2  and  O_3
REMARK    3  A    between atoms: O_3  and  C_4
REMARK    4  A    between atoms: N_6  and  C_7
REMARK    5  A    between atoms: C_7  and  N_9
REMARK    6  A    between atoms: N_9  and  C_10
REMARK    7  A    between atoms: C_15  and  N_16
REMARK    8  A    between atoms: N_16  and  C_17
REMARK    9  A    between atoms: C_17  and  N_19
REMARK   10  A    between atoms: C_20  and  O_22
REMARK   11  A    between atoms: O_22  and  C_23
REMARK   12  A    between atoms: C_23  and  C_24
REMARK                            x       y       z     vdW  Elec       q    Type
REMARK                         _______ _______ _______ _____ _____    ______ ____
ROOT
ATOM      1  C   UNL     1       2.537   5.144  20.175  0.00  0.00    +0.000 A 
ATOM      2  C   UNL     1       1.289   4.713  20.654  0.00  0.00    +0.000 A 
ATOM      3  C   UNL     1       0.946   3.362  20.646  0.00  0.00    +0.000 A 
ATOM      4  C   UNL     1       1.847   2.431  20.159  0.00  0.00    +0.000 A 
ATOM      5  C   UNL     1       3.084   2.846  19.660  0.00  0.00    +0.000 A 
ATOM      6  C   UNL     1       3.438   4.201  19.638  0.00  0.00    +0.000 A 
ENDROOT
BRANCH   1   7
ATOM      7  N   UNL     1       2.849   6.526  20.129  0.00  0.00    +0.000 N 
ATOM      8  H   UNL     1       3.727   6.787  20.571  0.00  0.00    +0.000 HD
BRANCH   7   9
ATOM      9  C   UNL     1       2.286   7.486  19.318  0.00  0.00    +0.000 C 
ATOM     10  S   UNL     1       2.975   7.754  17.823  0.00  0.00    +0.000 S 
BRANCH   9  13
ATOM     11  C   UNL     1       0.998   9.532  19.854  0.00  0.00    +0.000 C 
ATOM     12  O   UNL     1       1.193  10.295  18.925  0.00  0.00    +0.000 OA
ATOM     13  N   UNL     1       1.246   8.187  19.901  0.00  0.00    +0.000 N 
ATOM     14  H   UNL     1       0.903   7.771  20.754  0.00  0.00    +0.000 HD
BRANCH  11  15
ATOM     15  O   UNL     1       0.442   9.891  21.046  0.00  0.00    +0.000 OA
BRANCH  15  17
ATOM     16  C   UNL     1       0.041   9.351  23.335  0.00  0.00    +0.000 C 
ATOM     17  C   UNL     1       1.039   9.268  22.192  0.00  0.00    +0.000 C 
ENDBRANCH  15  17
ENDBRANCH  11  15
ENDBRANCH   9  13
ENDBRANCH   7   9
ENDBRANCH   1   7
BRANCH   6  18
ATOM     18  N   UNL     1       4.739   4.610  19.243  0.00  0.00    +0.000 N 
ATOM     19  H   UNL     1       5.432   4.641  19.993  0.00  0.00    +0.000 HD
BRANCH  18  20
ATOM     20  C   UNL     1       5.218   4.834  17.974  0.00  0.00    +0.000 C 
ATOM     21  S   UNL     1       4.659   4.146  16.550  0.00  0.00    +0.000 S 
BRANCH  20  22
ATOM     22  N   UNL     1       6.265   5.722  17.870  0.00  0.00    +0.000 N 
ATOM     23  C   UNL     1       7.245   5.993  18.787  0.00  0.00    +0.000 C 
ATOM     24  O   UNL     1       7.216   5.650  19.962  0.00  0.00    +0.000 OA
ATOM     25  H   UNL     1       6.332   6.237  17.003  0.00  0.00    +0.000 HD
BRANCH  23  26
ATOM     26  O   UNL     1       8.178   6.801  18.220  0.00  0.00    +0.000 OA
BRANCH  26  27
ATOM     27  C   UNL     1       7.692   8.037  17.676  0.00  0.00    +0.000 C 
ATOM     28  C   UNL     1       8.413   9.271  18.194  0.00  0.00    +0.000 C 
ENDBRANCH  26  27
ENDBRANCH  23  26
ENDBRANCH  20  22
ENDBRANCH  18  20
ENDBRANCH   6  18
TORSDOF 10
ENDMDL
MODEL 4
REMARK VINA RESULT:      -6.6      1.195      1.210
REMARK  Name = 
REMARK  12 active torsions:
REMARK  status: ('A' for Active; 'I' for Inactive)
REMARK    1  A    between atoms: C_1  and  C_2
REMARK    2  A    between atoms: C_2  and  O_3
REMARK    3  A    between atoms: O_3  and  C_4
REMARK    4  A    between atoms: N_6  and  C_7
REMARK    5  A    between atoms: C_7  and  N_9
REMARK    6  A    between atoms: N_9  and  C_10
REMARK    7  A    between atoms: C_15  and  N_16
REMARK    8  A    between atoms: N_16  and  C_17
REMARK    9  A    between atoms: C_17  and  N_19
REMARK   10  A    between atoms: C_20  and  O_22
REMARK   11  A    between atoms: O_22  and  C_23
REMARK   12  A    between atoms: C_23  and  C_24
REMARK                            x       y       z     vdW  Elec       q    Type
REMARK                         _______ _______ _______ _____ _____    ______ ____
ROOT
ATOM      1  C   UNL     1       2.564   4.627  19.839  0.00  0.00    +0.000 A 
ATOM      2  C   UNL     1       1.291   4.036  19.787  0.00  0.00    +0.000 A 
ATOM      3  C   UNL     1       1.099   2.800  19.174  0.00  0.00    +0.000 A 
ATOM      4  C   UNL     1       2.177   2.144  18.605  0.00  0.00    +0.000 A 
ATOM      5  C   UNL     1       3.445   2.728  18.629  0.00  0.00    +0.000 A 
ATOM      6  C   UNL     1       3.655   3.980  19.221  0.00  0.00    +0.000 A 
ENDROOT
BRANCH   1   7
ATOM      7  N   UNL     1       2.735   5.913  20.409  0.00  0.00    +0.000 N 
ATOM      8  H   UNL     1       3.514   5.999  21.057  0.00  0.00    +0.000 HD
BRANCH   7   9
ATOM      9  C   UNL     1       2.192   7.102  19.975  0.00  0.00    +0.000 C 
ATOM     10  S   UNL     1       2.450   7.553  18.390  0.00  0.00    +0.000 S 
BRANCH   9  13
ATOM     11  C   UNL     1       1.082   9.114  20.899  0.00  0.00    +0.000 C 
ATOM     12  O   UNL     1       0.570   9.673  19.945  0.00  0.00    +0.000 OA
ATOM     13  N   UNL     1       1.557   7.832  20.964  0.00  0.00    +0.000 N 
ATOM     14  H   UNL     1       1.842   7.584  21.899  0.00  0.00    +0.000 HD
BRANCH  11  15
ATOM     15  O   UNL     1       1.245   9.677  22.129  0.00  0.00    +0.000 OA
BRANCH  15  17
ATOM     16  C   UNL     1      -0.814  10.522  22.986  0.00  0.00    +0.000 C 
ATOM     17  C   UNL     1       0.194   9.388  23.061  0.00  0.00    +0.000 C 
ENDBRANCH  15  17
ENDBRANCH  11  15
ENDBRANCH   9  13
ENDBRANCH   7   9
ENDBRANCH   1   7
BRANCH   6  18
ATOM     18  N   UNL     1       4.963   4.517  19.351  0.00  0.00    +0.000 N 
ATOM     19  H   UNL     1       5.311   4.588  20.309  0.00  0.00    +0.000 HD
BRANCH  18  20
ATOM     20  C   UNL     1       5.866   4.821  18.360  0.00  0.00    +0.000 C 
ATOM     21  S   UNL     1       7.326   5.627  18.540  0.00  0.00    +0.000 S 
BRANCH  20  22
ATOM     22  N   UNL     1       5.531   4.411  17.089  0.00  0.00    +0.000 N 
ATOM     23  C   UNL     1       5.555   5.135  15.927  0.00  0.00    +0.000 C 
ATOM     24  O   UNL     1       5.660   6.353  15.867  0.00  0.00    +0.000 OA
ATOM     25  H   UNL     1       5.239   3.448  16.990  0.00  0.00    +0.000 HD
BRANCH  23  26
ATOM     26  O   UNL     1       5.319   4.306  14.878  0.00  0.00    +0.000 OA
BRANCH  26  27
ATOM     27  C   UNL     1       6.396   4.154  13.942  0.00  0.00    +0.000 C 
ATOM     28  C   UNL     1       5.991   3.505  12.628  0.00  0.00    +0.000 C 
ENDBRANCH  26  27
ENDBRANCH  23  26
ENDBRANCH  20  22
ENDBRANCH  18  20
ENDBRANCH   6  18
TORSDOF 10
ENDMDL
MODEL 5
REMARK VINA RESULT:      -6.5      1.373      7.631
REMARK  Name = 
REMARK  12 active torsions:
REMARK  status: ('A' for Active; 'I' for Inactive)
REMARK    1  A    between atoms: C_1  and  C_2
REMARK    2  A    between atoms: C_2  and  O_3
REMARK    3  A    between atoms: O_3  and  C_4
REMARK    4  A    between atoms: N_6  and  C_7
REMARK    5  A    between atoms: C_7  and  N_9
REMARK    6  A    between atoms: N_9  and  C_10
REMARK    7  A    between atoms: C_15  and  N_16
REMARK    8  A    between atoms: N_16  and  C_17
REMARK    9  A    between atoms: C_17  and  N_19
REMARK   10  A    between atoms: C_20  and  O_22
REMARK   11  A    between atoms: O_22  and  C_23
REMARK   12  A    between atoms: C_23  and  C_24
REMARK                            x       y       z     vdW  Elec       q    Type
REMARK                         _______ _______ _______ _____ _____    ______ ____
ROOT
ATOM      1  C   UNL     1       3.029   3.464  18.029  0.00  0.00    +0.000 A 
ATOM      2  C   UNL     1       3.050   2.134  18.479  0.00  0.00    +0.000 A 
ATOM      3  C   UNL     1       2.135   1.685  19.431  0.00  0.00    +0.000 A 
ATOM      4  C   UNL     1       1.194   2.562  19.941  0.00  0.00    +0.000 A 
ATOM      5  C   UNL     1       1.173   3.893  19.519  0.00  0.00    +0.000 A 
ATOM      6  C   UNL     1       2.098   4.369  18.580  0.00  0.00    +0.000 A 
ENDROOT
BRANCH   1   7
ATOM      7  N   UNL     1       4.003   3.925  17.108  0.00  0.00    +0.000 N 
ATOM      8  H   UNL     1       3.633   4.315  16.245  0.00  0.00    +0.000 HD
BRANCH   7   9
ATOM      9  C   UNL     1       5.332   4.189  17.356  0.00  0.00    +0.000 C 
ATOM     10  S   UNL     1       5.747   4.796  18.853  0.00  0.00    +0.000 S 
BRANCH   9  13
ATOM     11  C   UNL     1       6.902   4.923  15.588  0.00  0.00    +0.000 C 
ATOM     12  O   UNL     1       7.469   5.903  16.039  0.00  0.00    +0.000 OA
ATOM     13  N   UNL     1       6.164   3.993  16.269  0.00  0.00    +0.000 N 
ATOM     14  H   UNL     1       5.885   3.227  15.676  0.00  0.00    +0.000 HD
BRANCH  11  15
ATOM     15  O   UNL     1       6.934   4.545  14.279  0.00  0.00    +0.000 OA
BRANCH  15  17
ATOM     16  C   UNL     1       6.004   3.392  12.409  0.00  0.00    +0.000 C 
ATOM     17  C   UNL     1       5.737   3.907  13.813  0.00  0.00    +0.000 C 
ENDBRANCH  15  17
ENDBRANCH  11  15
ENDBRANCH   9  13
ENDBRANCH   7   9
ENDBRANCH   1   7
BRANCH   6  18
ATOM     18  N   UNL     1       2.001   5.688  18.063  0.00  0.00    +0.000 N 
ATOM     19  H   UNL     1       1.294   5.820  17.338  0.00  0.00    +0.000 HD
BRANCH  18  20
ATOM     20  C   UNL     1       2.630   6.829  18.503  0.00  0.00    +0.000 C 
ATOM     21  S   UNL     1       3.738   7.759  17.655  0.00  0.00    +0.000 S 
BRANCH  20  22
ATOM     22  N   UNL     1       2.304   7.248  19.773  0.00  0.00    +0.000 N 
ATOM     23  C   UNL     1       1.512   8.301  20.146  0.00  0.00    +0.000 C 
ATOM     24  O   UNL     1       1.145   9.196  19.396  0.00  0.00    +0.000 OA
ATOM     25  H   UNL     1       2.686   6.706  20.537  0.00  0.00    +0.000 HD
BRANCH  23  26
ATOM     26  O   UNL     1       1.310   8.257  21.488  0.00  0.00    +0.000 OA
BRANCH  26  27
ATOM     27  C   UNL     1      -0.016   8.574  21.935  0.00  0.00    +0.000 C 
ATOM     28  C   UNL     1      -0.069   9.644  23.013  0.00  0.00    +0.000 C 
ENDBRANCH  26  27
ENDBRANCH  23  26
ENDBRANCH  20  22
ENDBRANCH  18  20
ENDBRANCH   6  18
TORSDOF 10
ENDMDL
MODEL 6
REMARK VINA RESULT:      -6.5      1.302      7.845
REMARK  Name = 
REMARK  12 active torsions:
REMARK  status: ('A' for Active; 'I' for Inactive)
REMARK    1  A    between atoms: C_1  and  C_2
REMARK    2  A    between atoms: C_2  and  O_3
REMARK    3  A    between atoms: O_3  and  C_4
REMARK    4  A    between atoms: N_6  and  C_7
REMARK    5  A    between atoms: C_7  and  N_9
REMARK    6  A    between atoms: N_9  and  C_10
REMARK    7  A    between atoms: C_15  and  N_16
REMARK    8  A    between atoms: N_16  and  C_17
REMARK    9  A    between atoms: C_17  and  N_19
REMARK   10  A    between atoms: C_20  and  O_22
REMARK   11  A    between atoms: O_22  and  C_23
REMARK   12  A    between atoms: C_23  and  C_24
REMARK                            x       y       z     vdW  Elec       q    Type
REMARK                         _______ _______ _______ _____ _____    ______ ____
ROOT
ATOM      1  C   UNL     1       2.785   4.369  18.473  0.00  0.00    +0.000 A 
ATOM      2  C   UNL     1       2.266   3.101  18.162  0.00  0.00    +0.000 A 
ATOM      3  C   UNL     1       1.229   2.548  18.912  0.00  0.00    +0.000 A 
ATOM      4  C   UNL     1       0.705   3.255  19.980  0.00  0.00    +0.000 A 
ATOM      5  C   UNL     1       1.225   4.507  20.316  0.00  0.00    +0.000 A 
ATOM      6  C   UNL     1       2.281   5.071  19.588  0.00  0.00    +0.000 A 
ENDROOT
BRANCH   1   7
ATOM      7  N   UNL     1       3.881   4.894  17.743  0.00  0.00    +0.000 N 
ATOM      8  H   UNL     1       3.694   5.761  17.247  0.00  0.00    +0.000 HD
BRANCH   7   9
ATOM      9  C   UNL     1       5.210   4.556  17.867  0.00  0.00    +0.000 C 
ATOM     10  S   UNL     1       6.068   5.198  19.146  0.00  0.00    +0.000 S 
BRANCH   9  13
ATOM     11  C   UNL     1       6.562   4.135  15.836  0.00  0.00    +0.000 C 
ATOM     12  O   UNL     1       7.504   4.905  15.904  0.00  0.00    +0.000 OA
ATOM     13  N   UNL     1       5.699   3.776  16.836  0.00  0.00    +0.000 N 
ATOM     14  H   UNL     1       5.066   3.047  16.543  0.00  0.00    +0.000 HD
BRANCH  11  15
ATOM     15  O   UNL     1       6.210   3.440  14.718  0.00  0.00    +0.000 OA
BRANCH  15  17
ATOM     16  C   UNL     1       5.699   3.383  12.388  0.00  0.00    +0.000 C 
ATOM     17  C   UNL     1       6.418   4.147  13.487  0.00  0.00    +0.000 C 
ENDBRANCH  15  17
ENDBRANCH  11  15
ENDBRANCH   9  13
ENDBRANCH   7   9
ENDBRANCH   1   7
BRANCH   6  18
ATOM     18  N   UNL     1       2.728   6.392  19.854  0.00  0.00    +0.000 N 
ATOM     19  H   UNL     1       3.566   6.459  20.434  0.00  0.00    +0.000 HD
BRANCH  18  20
ATOM     20  C   UNL     1       2.268   7.575  19.326  0.00  0.00    +0.000 C 
ATOM     21  S   UNL     1       2.659   8.232  17.833  0.00  0.00    +0.000 S 
BRANCH  20  22
ATOM     22  N   UNL     1       1.389   8.286  20.111  0.00  0.00    +0.000 N 
ATOM     23  C   UNL     1       0.837   9.517  19.871  0.00  0.00    +0.000 C 
ATOM     24  O   UNL     1       1.224  10.299  19.012  0.00  0.00    +0.000 OA
ATOM     25  H   UNL     1       1.097   7.845  20.973  0.00  0.00    +0.000 HD
BRANCH  23  26
ATOM     26  O   UNL     1      -0.110   9.774  20.810  0.00  0.00    +0.000 OA
BRANCH  26  27
ATOM     27  C   UNL     1       0.373  10.245  22.077  0.00  0.00    +0.000 C 
ATOM     28  C   UNL     1      -0.379   9.689  23.274  0.00  0.00    +0.000 C 
ENDBRANCH  26  27
ENDBRANCH  23  26
ENDBRANCH  20  22
ENDBRANCH  18  20
ENDBRANCH   6  18
TORSDOF 10
ENDMDL
MODEL 7
REMARK VINA RESULT:      -6.4      3.478      7.230
REMARK  Name = 
REMARK  12 active torsions:
REMARK  status: ('A' for Active; 'I' for Inactive)
REMARK    1  A    between atoms: C_1  and  C_2
REMARK    2  A    between atoms: C_2  and  O_3
REMARK    3  A    between atoms: O_3  and  C_4
REMARK    4  A    between atoms: N_6  and  C_7
REMARK    5  A    between atoms: C_7  and  N_9
REMARK    6  A    between atoms: N_9  and  C_10
REMARK    7  A    between atoms: C_15  and  N_16
REMARK    8  A    between atoms: N_16  and  C_17
REMARK    9  A    between atoms: C_17  and  N_19
REMARK   10  A    between atoms: C_20  and  O_22
REMARK   11  A    between atoms: O_22  and  C_23
REMARK   12  A    between atoms: C_23  and  C_24
REMARK                            x       y       z     vdW  Elec       q    Type
REMARK                         _______ _______ _______ _____ _____    ______ ____
ROOT
ATOM      1  C   UNL     1       3.403   6.291  18.670  0.00  0.00    +0.000 A 
ATOM      2  C   UNL     1       3.183   7.432  17.881  0.00  0.00    +0.000 A 
ATOM      3  C   UNL     1       2.269   8.409  18.274  0.00  0.00    +0.000 A 
ATOM      4  C   UNL     1       1.568   8.253  19.456  0.00  0.00    +0.000 A 
ATOM      5  C   UNL     1       1.760   7.114  20.241  0.00  0.00    +0.000 A 
ATOM      6  C   UNL     1       2.657   6.110  19.853  0.00  0.00    +0.000 A 
ENDROOT
BRANCH   1   7
ATOM      7  N   UNL     1       4.287   5.274  18.230  0.00  0.00    +0.000 N 
ATOM      8  H   UNL     1       4.946   4.941  18.929  0.00  0.00    +0.000 HD
BRANCH   7   9
ATOM      9  C   UNL     1       4.167   4.487  17.106  0.00  0.00    +0.000 C 
ATOM     10  S   UNL     1       2.801   3.542  16.951  0.00  0.00    +0.000 S 
BRANCH   9  13
ATOM     11  C   UNL     1       5.876   5.605  15.706  0.00  0.00    +0.000 C 
ATOM     12  O   UNL     1       6.025   6.713  16.191  0.00  0.00    +0.000 OA
ATOM     13  N   UNL     1       5.267   4.517  16.269  0.00  0.00    +0.000 N 
ATOM     14  H   UNL     1       5.364   3.693  15.696  0.00  0.00    +0.000 HD
BRANCH  11  15
ATOM     15  O   UNL     1       6.338   5.230  14.479  0.00  0.00    +0.000 OA
BRANCH  15  17
ATOM     16  C   UNL     1       5.959   3.582  12.797  0.00  0.00    +0.000 C 
ATOM     17  C   UNL     1       6.337   3.814  14.250  0.00  0.00    +0.000 C 
ENDBRANCH  15  17
ENDBRANCH  11  15
ENDBRANCH   9  13
ENDBRANCH   7   9
ENDBRANCH   1   7
BRANCH   6  18
ATOM     18  N   UNL     1       2.939   5.013  20.709  0.00  0.00    +0.000 N 
ATOM     19  H   UNL     1       3.594   5.211  21.468  0.00  0.00    +0.000 HD
BRANCH  18  20
ATOM     20  C   UNL     1       2.349   3.772  20.734  0.00  0.00    +0.000 C 
ATOM     21  S   UNL     1       0.813   3.375  20.190  0.00  0.00    +0.000 S 
BRANCH  20  22
ATOM     22  N   UNL     1       3.109   2.751  21.258  0.00  0.00    +0.000 N 
ATOM     23  C   UNL     1       4.341   2.312  20.851  0.00  0.00    +0.000 C 
ATOM     24  O   UNL     1       4.873   2.612  19.790  0.00  0.00    +0.000 OA
ATOM     25  H   UNL     1       2.720   2.264  22.054  0.00  0.00    +0.000 HD
BRANCH  23  26
ATOM     26  O   UNL     1       4.811   1.404  21.745  0.00  0.00    +0.000 OA
BRANCH  26  27
ATOM     27  C   UNL     1       5.706   0.411  21.222  0.00  0.00    +0.000 C 
ATOM     28  C   UNL     1       6.486  -0.345  22.285  0.00  0.00    +0.000 C 
ENDBRANCH  26  27
ENDBRANCH  23  26
ENDBRANCH  20  22
ENDBRANCH  18  20
ENDBRANCH   6  18
TORSDOF 10
ENDMDL
MODEL 8
REMARK VINA RESULT:      -6.4      1.211      1.337
REMARK  Name = 
REMARK  12 active torsions:
REMARK  status: ('A' for Active; 'I' for Inactive)
REMARK    1  A    between atoms: C_1  and  C_2
REMARK    2  A    between atoms: C_2  and  O_3
REMARK    3  A    between atoms: O_3  and  C_4
REMARK    4  A    between atoms: N_6  and  C_7
REMARK    5  A    between atoms: C_7  and  N_9
REMARK    6  A    between atoms: N_9  and  C_10
REMARK    7  A    between atoms: C_15  and  N_16
REMARK    8  A    between atoms: N_16  and  C_17
REMARK    9  A    between atoms: C_17  and  N_19
REMARK   10  A    between atoms: C_20  and  O_22
REMARK   11  A    between atoms: O_22  and  C_23
REMARK   12  A    between atoms: C_23  and  C_24
REMARK                            x       y       z     vdW  Elec       q    Type
REMARK                         _______ _______ _______ _____ _____    ______ ____
ROOT
ATOM      1  C   UNL     1       2.541   4.836  19.677  0.00  0.00    +0.000 A 
ATOM      2  C   UNL     1       1.277   4.288  19.949  0.00  0.00    +0.000 A 
ATOM      3  C   UNL     1       0.894   3.066  19.401  0.00  0.00    +0.000 A 
ATOM      4  C   UNL     1       1.768   2.383  18.574  0.00  0.00    +0.000 A 
ATOM      5  C   UNL     1       3.020   2.925  18.276  0.00  0.00    +0.000 A 
ATOM      6  C   UNL     1       3.416   4.162  18.800  0.00  0.00    +0.000 A 
ENDROOT
BRANCH   1   7
ATOM      7  N   UNL     1       2.896   6.110  20.189  0.00  0.00    +0.000 N 
ATOM      8  H   UNL     1       3.836   6.176  20.573  0.00  0.00    +0.000 HD
BRANCH   7   9
ATOM      9  C   UNL     1       2.264   7.311  19.961  0.00  0.00    +0.000 C 
ATOM     10  S   UNL     1       2.033   7.790  18.380  0.00  0.00    +0.000 S 
BRANCH   9  13
ATOM     11  C   UNL     1       0.776   8.571  21.488  0.00  0.00    +0.000 C 
ATOM     12  O   UNL     1      -0.341   8.118  21.305  0.00  0.00    +0.000 OA
ATOM     13  N   UNL     1       1.973   8.029  21.107  0.00  0.00    +0.000 N 
ATOM     14  H   UNL     1       2.755   8.555  21.466  0.00  0.00    +0.000 HD
BRANCH  11  15
ATOM     15  O   UNL     1       1.041   9.725  22.161  0.00  0.00    +0.000 OA
BRANCH  15  17
ATOM     16  C   UNL     1       0.739  11.383  20.473  0.00  0.00    +0.000 C 
ATOM     17  C   UNL     1       0.213  10.836  21.789  0.00  0.00    +0.000 C 
ENDBRANCH  15  17
ENDBRANCH  11  15
ENDBRANCH   9  13
ENDBRANCH   7   9
ENDBRANCH   1   7
BRANCH   6  18
ATOM     18  N   UNL     1       4.732   4.656  18.594  0.00  0.00    +0.000 N 
ATOM     19  H   UNL     1       5.422   4.353  19.283  0.00  0.00    +0.000 HD
BRANCH  18  20
ATOM     20  C   UNL     1       5.223   5.365  17.524  0.00  0.00    +0.000 C 
ATOM     21  S   UNL     1       5.637   6.991  17.497  0.00  0.00    +0.000 S 
BRANCH  20  22
ATOM     22  N   UNL     1       5.396   4.657  16.356  0.00  0.00    +0.000 N 
ATOM     23  C   UNL     1       6.557   4.155  15.829  0.00  0.00    +0.000 C 
ATOM     24  O   UNL     1       7.682   4.461  16.202  0.00  0.00    +0.000 OA
ATOM     25  H   UNL     1       4.562   4.467  15.817  0.00  0.00    +0.000 HD
BRANCH  23  26
ATOM     26  O   UNL     1       6.261   3.374  14.758  0.00  0.00    +0.000 OA
BRANCH  26  27
ATOM     27  C   UNL     1       5.818   4.064  13.580  0.00  0.00    +0.000 C 
ATOM     28  C   UNL     1       6.053   3.300  12.287  0.00  0.00    +0.000 C 
ENDBRANCH  26  27
ENDBRANCH  23  26
ENDBRANCH  20  22
ENDBRANCH  18  20
ENDBRANCH   6  18
TORSDOF 10
ENDMDL
MODEL 9
REMARK VINA RESULT:      -6.4      2.301      7.118
REMARK  Name = 
REMARK  12 active torsions:
REMARK  status: ('A' for Active; 'I' for Inactive)
REMARK    1  A    between atoms: C_1  and  C_2
REMARK    2  A    between atoms: C_2  and  O_3
REMARK    3  A    between atoms: O_3  and  C_4
REMARK    4  A    between atoms: N_6  and  C_7
REMARK    5  A    between atoms: C_7  and  N_9
REMARK    6  A    between atoms: N_9  and  C_10
REMARK    7  A    between atoms: C_15  and  N_16
REMARK    8  A    between atoms: N_16  and  C_17
REMARK    9  A    between atoms: C_17  and  N_19
REMARK   10  A    between atoms: C_20  and  O_22
REMARK   11  A    between atoms: O_22  and  C_23
REMARK   12  A    between atoms: C_23  and  C_24
REMARK                            x       y       z     vdW  Elec       q    Type
REMARK                         _______ _______ _______ _____ _____    ______ ____
ROOT
ATOM      1  C   UNL     1       3.469   4.289  19.934  0.00  0.00    +0.000 A 
ATOM      2  C   UNL     1       3.598   3.169  20.773  0.00  0.00    +0.000 A 
ATOM      3  C   UNL     1       2.479   2.583  21.362  0.00  0.00    +0.000 A 
ATOM      4  C   UNL     1       1.223   3.112  21.121  0.00  0.00    +0.000 A 
ATOM      5  C   UNL     1       1.080   4.237  20.307  0.00  0.00    +0.000 A 
ATOM      6  C   UNL     1       2.194   4.854  19.723  0.00  0.00    +0.000 A 
ENDROOT
BRANCH   1   7
ATOM      7  N   UNL     1       4.619   4.915  19.392  0.00  0.00    +0.000 N 
ATOM      8  H   UNL     1       5.277   5.279  20.076  0.00  0.00    +0.000 HD
BRANCH   7   9
ATOM      9  C   UNL     1       5.095   4.822  18.103  0.00  0.00    +0.000 C 
ATOM     10  S   UNL     1       4.393   3.702  17.085  0.00  0.00    +0.000 S 
BRANCH   9  13
ATOM     11  C   UNL     1       7.494   5.430  18.177  0.00  0.00    +0.000 C 
ATOM     12  O   UNL     1       8.098   4.373  18.225  0.00  0.00    +0.000 OA
ATOM     13  N   UNL     1       6.183   5.632  17.838  0.00  0.00    +0.000 N 
ATOM     14  H   UNL     1       5.956   6.613  17.782  0.00  0.00    +0.000 HD
BRANCH  11  15
ATOM     15  O   UNL     1       8.047   6.650  18.429  0.00  0.00    +0.000 OA
BRANCH  15  17
ATOM     16  C   UNL     1       8.275   8.985  18.000  0.00  0.00    +0.000 C 
ATOM     17  C   UNL     1       7.618   7.693  17.544  0.00  0.00    +0.000 C 
ENDBRANCH  15  17
ENDBRANCH  11  15
ENDBRANCH   9  13
ENDBRANCH   7   9
ENDBRANCH   1   7
BRANCH   6  18
ATOM     18  N   UNL     1       2.037   5.923  18.801  0.00  0.00    +0.000 N 
ATOM     19  H   UNL     1       1.624   5.666  17.903  0.00  0.00    +0.000 HD
BRANCH  18  20
ATOM     20  C   UNL     1       2.237   7.268  19.006  0.00  0.00    +0.000 C 
ATOM     21  S   UNL     1       2.761   8.393  17.877  0.00  0.00    +0.000 S 
BRANCH  20  22
ATOM     22  N   UNL     1       1.972   7.732  20.275  0.00  0.00    +0.000 N 
ATOM     23  C   UNL     1       1.098   8.716  20.655  0.00  0.00    +0.000 C 
ATOM     24  O   UNL     1       0.571   9.515  19.892  0.00  0.00    +0.000 OA
ATOM     25  H   UNL     1       2.474   7.287  21.031  0.00  0.00    +0.000 HD
BRANCH  23  26
ATOM     26  O   UNL     1       1.013   8.740  22.011  0.00  0.00    +0.000 OA
BRANCH  26  27
ATOM     27  C   UNL     1      -0.311   8.823  22.556  0.00  0.00    +0.000 C 
ATOM     28  C   UNL     1      -0.656  10.181  23.147  0.00  0.00    +0.000 C 
ENDBRANCH  26  27
ENDBRANCH  23  26
ENDBRANCH  20  22
ENDBRANCH  18  20
ENDBRANCH   6  18
TORSDOF 10
ENDMDL
