MODEL 1
REMARK VINA RESULT:      -8.6      0.000      0.000
REMARK  Name = 
REMARK  6 active torsions:
REMARK  status: ('A' for Active; 'I' for Inactive)
REMARK    1  A    between atoms: C_1  and  C_2
REMARK    2  A    between atoms: N_4  and  C_5
REMARK    3  A    between atoms: C_15  and  C_16
REMARK    4  A    between atoms: C_19  and  C_20
REMARK    5  A    between atoms: C_24  and  C_25
REMARK    6  A    between atoms: C_25  and  O_27
REMARK                            x       y       z     vdW  Elec       q    Type
REMARK                         _______ _______ _______ _____ _____    ______ ____
ROOT
ATOM      1  C   UNL     1       1.846   8.533  17.846  0.00  0.00    +0.000 C 
ATOM      2  C   UNL     1       1.435   9.020  19.195  0.00  0.00    +0.000 C 
ATOM      3  N   UNL     1       1.015  10.237  19.407  0.00  0.00    +0.000 NA
ATOM      4  N   UNL     1       0.775  10.341  20.777  0.00  0.00    +0.000 N 
ATOM      5  C   UNL     1       1.038   9.166  21.493  0.00  0.00    +0.000 C 
ATOM      6  O   UNL     1       0.978   8.901  22.680  0.00  0.00    +0.000 OA
ATOM      7  C   UNL     1       1.471   8.227  20.432  0.00  0.00    +0.000 C 
ATOM      8  C   UNL     1       1.807   6.968  20.730  0.00  0.00    +0.000 C 
ENDROOT
BRANCH   4   9
ATOM      9  C   UNL     1       0.361  11.593  21.292  0.00  0.00    +0.000 A 
ATOM     10  C   UNL     1      -0.708  11.704  22.191  0.00  0.00    +0.000 A 
ATOM     11  C   UNL     1      -1.093  12.951  22.700  0.00  0.00    +0.000 A 
ATOM     12  C   UNL     1      -0.418  14.100  22.301  0.00  0.00    +0.000 A 
ATOM     13 BR   UNL     1      -0.945  15.784  22.980  0.00  0.00    +0.000 Br
ATOM     14  C   UNL     1       0.643  14.017  21.405  0.00  0.00    +0.000 A 
ATOM     15  C   UNL     1       1.032  12.766  20.912  0.00  0.00    +0.000 A 
ENDBRANCH   4   9
BRANCH   8  16
ATOM     16  C   UNL     1       2.329   6.066  19.778  0.00  0.00    +0.000 A 
ATOM     17  C   UNL     1       1.648   5.078  19.081  0.00  0.00    +0.000 A 
ATOM     18  C   UNL     1       2.571   4.452  18.215  0.00  0.00    +0.000 A 
ATOM     19  C   UNL     1       3.775   5.100  18.390  0.00  0.00    +0.000 A 
ATOM     20  O   UNL     1       3.634   6.060  19.352  0.00  0.00    +0.000 OA
BRANCH  19  21
ATOM     21  C   UNL     1       5.088   4.989  17.755  0.00  0.00    +0.000 A 
ATOM     22  C   UNL     1       6.241   4.866  18.546  0.00  0.00    +0.000 A 
ATOM     23  C   UNL     1       7.498   4.685  17.967  0.00  0.00    +0.000 A 
ATOM     24  C   UNL     1       7.622   4.636  16.581  0.00  0.00    +0.000 A 
ATOM     25  C   UNL     1       6.491   4.780  15.770  0.00  0.00    +0.000 A 
ATOM     26  C   UNL     1       5.227   4.947  16.357  0.00  0.00    +0.000 A 
BRANCH  25  27
ATOM     27  C   UNL     1       6.681   4.673  14.300  0.00  0.00    +0.000 C 
ATOM     28  O   UNL     1       5.984   3.960  13.600  0.00  0.00    +0.000 OA
BRANCH  27  29
ATOM     29  O   UNL     1       7.713   5.394  13.819  0.00  0.00    +0.000 OA
ATOM     30  H   UNL     1       7.860   6.258  14.240  0.00  0.00    +0.000 HD
ENDBRANCH  27  29
ENDBRANCH  25  27
ENDBRANCH  19  21
ENDBRANCH   8  16
TORSDOF 5
ENDMDL
MODEL 2
REMARK VINA RESULT:      -8.2      3.148      4.563
REMARK  Name = 
REMARK  6 active torsions:
REMARK  status: ('A' for Active; 'I' for Inactive)
REMARK    1  A    between atoms: C_1  and  C_2
REMARK    2  A    between atoms: N_4  and  C_5
REMARK    3  A    between atoms: C_15  and  C_16
REMARK    4  A    between atoms: C_19  and  C_20
REMARK    5  A    between atoms: C_24  and  C_25
REMARK    6  A    between atoms: C_25  and  O_27
REMARK                            x       y       z     vdW  Elec       q    Type
REMARK                         _______ _______ _______ _____ _____    ______ ____
ROOT
ATOM      1  C   UNL     1       1.465   7.951  21.019  0.00  0.00    +0.000 C 
ATOM      2  C   UNL     1       0.764   9.198  20.597  0.00  0.00    +0.000 C 
ATOM      3  N   UNL     1       0.023   9.900  21.410  0.00  0.00    +0.000 NA
ATOM      4  N   UNL     1      -0.502  10.952  20.661  0.00  0.00    +0.000 N 
ATOM      5  C   UNL     1      -0.101  10.952  19.319  0.00  0.00    +0.000 C 
ATOM      6  O   UNL     1      -0.381  11.678  18.382  0.00  0.00    +0.000 OA
ATOM      7  C   UNL     1       0.793   9.773  19.244  0.00  0.00    +0.000 C 
ATOM      8  C   UNL     1       1.392   9.442  18.097  0.00  0.00    +0.000 C 
ENDROOT
BRANCH   4   9
ATOM      9  C   UNL     1      -1.400  11.844  21.295  0.00  0.00    +0.000 A 
ATOM     10  C   UNL     1      -1.274  12.180  22.649  0.00  0.00    +0.000 A 
ATOM     11  C   UNL     1      -2.165  13.075  23.254  0.00  0.00    +0.000 A 
ATOM     12  C   UNL     1      -3.200  13.631  22.510  0.00  0.00    +0.000 A 
ATOM     13 BR   UNL     1      -4.409  14.831  23.330  0.00  0.00    +0.000 Br
ATOM     14  C   UNL     1      -3.350  13.309  21.165  0.00  0.00    +0.000 A 
ATOM     15  C   UNL     1      -2.448  12.425  20.562  0.00  0.00    +0.000 A 
ENDBRANCH   4   9
BRANCH   8  16
ATOM     16  C   UNL     1       2.164   8.269  17.943  0.00  0.00    +0.000 A 
ATOM     17  C   UNL     1       3.469   8.166  17.482  0.00  0.00    +0.000 A 
ATOM     18  C   UNL     1       3.834   6.802  17.535  0.00  0.00    +0.000 A 
ATOM     19  C   UNL     1       2.751   6.126  18.056  0.00  0.00    +0.000 A 
ATOM     20  O   UNL     1       1.733   7.010  18.280  0.00  0.00    +0.000 OA
BRANCH  19  21
ATOM     21  C   UNL     1       2.509   4.732  18.426  0.00  0.00    +0.000 A 
ATOM     22  C   UNL     1       2.464   3.740  17.434  0.00  0.00    +0.000 A 
ATOM     23  C   UNL     1       2.307   2.394  17.765  0.00  0.00    +0.000 A 
ATOM     24  C   UNL     1       2.182   2.019  19.100  0.00  0.00    +0.000 A 
ATOM     25  C   UNL     1       2.199   2.991  20.107  0.00  0.00    +0.000 A 
ATOM     26  C   UNL     1       2.371   4.343  19.770  0.00  0.00    +0.000 A 
BRANCH  25  27
ATOM     27  C   UNL     1       2.106   2.525  21.514  0.00  0.00    +0.000 C 
ATOM     28  O   UNL     1       1.074   2.585  22.158  0.00  0.00    +0.000 OA
BRANCH  27  29
ATOM     29  O   UNL     1       3.268   2.074  22.029  0.00  0.00    +0.000 OA
ATOM     30  H   UNL     1       4.059   2.598  21.814  0.00  0.00    +0.000 HD
ENDBRANCH  27  29
ENDBRANCH  25  27
ENDBRANCH  19  21
ENDBRANCH   8  16
TORSDOF 5
ENDMDL
MODEL 3
REMARK VINA RESULT:      -8.1      3.096      4.178
REMARK  Name = 
REMARK  6 active torsions:
REMARK  status: ('A' for Active; 'I' for Inactive)
REMARK    1  A    between atoms: C_1  and  C_2
REMARK    2  A    between atoms: N_4  and  C_5
REMARK    3  A    between atoms: C_15  and  C_16
REMARK    4  A    between atoms: C_19  and  C_20
REMARK    5  A    between atoms: C_24  and  C_25
REMARK    6  A    between atoms: C_25  and  O_27
REMARK                            x       y       z     vdW  Elec       q    Type
REMARK                         _______ _______ _______ _____ _____    ______ ____
ROOT
ATOM      1  C   UNL     1       1.647   8.559  21.800  0.00  0.00    +0.000 C 
ATOM      2  C   UNL     1       0.896   9.800  21.452  0.00  0.00    +0.000 C 
ATOM      3  N   UNL     1       0.327  10.555  22.352  0.00  0.00    +0.000 NA
ATOM      4  N   UNL     1      -0.315  11.581  21.661  0.00  0.00    +0.000 N 
ATOM      5  C   UNL     1      -0.170  11.510  20.269  0.00  0.00    +0.000 C 
ATOM      6  O   UNL     1      -0.610  12.197  19.365  0.00  0.00    +0.000 OA
ATOM      7  C   UNL     1       0.679  10.310  20.090  0.00  0.00    +0.000 C 
ATOM      8  C   UNL     1       1.052   9.912  18.870  0.00  0.00    +0.000 C 
ENDROOT
BRANCH   4   9
ATOM      9  C   UNL     1      -1.069  12.522  22.404  0.00  0.00    +0.000 A 
ATOM     10  C   UNL     1      -0.595  13.817  22.652  0.00  0.00    +0.000 A 
ATOM     11  C   UNL     1      -1.362  14.737  23.378  0.00  0.00    +0.000 A 
ATOM     12  C   UNL     1      -2.606  14.362  23.876  0.00  0.00    +0.000 A 
ATOM     13 BR   UNL     1      -3.636  15.600  24.865  0.00  0.00    +0.000 Br
ATOM     14  C   UNL     1      -3.095  13.080  23.648  0.00  0.00    +0.000 A 
ATOM     15  C   UNL     1      -2.331  12.170  22.909  0.00  0.00    +0.000 A 
ENDBRANCH   4   9
BRANCH   8  16
ATOM     16  C   UNL     1       1.767   8.717  18.635  0.00  0.00    +0.000 A 
ATOM     17  C   UNL     1       2.838   8.525  17.775  0.00  0.00    +0.000 A 
ATOM     18  C   UNL     1       3.249   7.179  17.900  0.00  0.00    +0.000 A 
ATOM     19  C   UNL     1       2.436   6.607  18.854  0.00  0.00    +0.000 A 
ATOM     20  O   UNL     1       1.524   7.531  19.282  0.00  0.00    +0.000 OA
BRANCH  19  21
ATOM     21  C   UNL     1       2.387   5.289  19.487  0.00  0.00    +0.000 A 
ATOM     22  C   UNL     1       1.400   5.008  20.446  0.00  0.00    +0.000 A 
ATOM     23  C   UNL     1       1.285   3.737  21.012  0.00  0.00    +0.000 A 
ATOM     24  C   UNL     1       2.167   2.728  20.634  0.00  0.00    +0.000 A 
ATOM     25  C   UNL     1       3.174   2.990  19.699  0.00  0.00    +0.000 A 
ATOM     26  C   UNL     1       3.277   4.265  19.122  0.00  0.00    +0.000 A 
BRANCH  25  27
ATOM     27  C   UNL     1       4.055   1.861  19.303  0.00  0.00    +0.000 C 
ATOM     28  O   UNL     1       3.765   1.085  18.409  0.00  0.00    +0.000 OA
BRANCH  27  29
ATOM     29  O   UNL     1       5.174   1.742  20.044  0.00  0.00    +0.000 OA
ATOM     30  H   UNL     1       5.048   1.437  20.959  0.00  0.00    +0.000 HD
ENDBRANCH  27  29
ENDBRANCH  25  27
ENDBRANCH  19  21
ENDBRANCH   8  16
TORSDOF 5
ENDMDL
MODEL 4
REMARK VINA RESULT:      -8.0      3.132      4.131
REMARK  Name = 
REMARK  6 active torsions:
REMARK  status: ('A' for Active; 'I' for Inactive)
REMARK    1  A    between atoms: C_1  and  C_2
REMARK    2  A    between atoms: N_4  and  C_5
REMARK    3  A    between atoms: C_15  and  C_16
REMARK    4  A    between atoms: C_19  and  C_20
REMARK    5  A    between atoms: C_24  and  C_25
REMARK    6  A    between atoms: C_25  and  O_27
REMARK                            x       y       z     vdW  Elec       q    Type
REMARK                         _______ _______ _______ _____ _____    ______ ____
ROOT
ATOM      1  C   UNL     1       1.633   8.228  21.081  0.00  0.00    +0.000 C 
ATOM      2  C   UNL     1       0.816   9.366  20.570  0.00  0.00    +0.000 C 
ATOM      3  N   UNL     1       0.088  10.117  21.350  0.00  0.00    +0.000 NA
ATOM      4  N   UNL     1      -0.564  11.032  20.525  0.00  0.00    +0.000 N 
ATOM      5  C   UNL     1      -0.263  10.890  19.164  0.00  0.00    +0.000 C 
ATOM      6  O   UNL     1      -0.661  11.473  18.173  0.00  0.00    +0.000 OA
ATOM      7  C   UNL     1       0.705   9.768  19.160  0.00  0.00    +0.000 C 
ATOM      8  C   UNL     1       1.242   9.333  18.016  0.00  0.00    +0.000 C 
ENDROOT
BRANCH   4   9
ATOM      9  C   UNL     1      -1.476  11.940  21.118  0.00  0.00    +0.000 A 
ATOM     10  C   UNL     1      -1.507  12.155  22.502  0.00  0.00    +0.000 A 
ATOM     11  C   UNL     1      -2.407  13.068  23.067  0.00  0.00    +0.000 A 
ATOM     12  C   UNL     1      -3.295  13.761  22.251  0.00  0.00    +0.000 A 
ATOM     13 BR   UNL     1      -4.517  14.984  23.015  0.00  0.00    +0.000 Br
ATOM     14  C   UNL     1      -3.287  13.560  20.874  0.00  0.00    +0.000 A 
ATOM     15  C   UNL     1      -2.375  12.658  20.314  0.00  0.00    +0.000 A 
ENDBRANCH   4   9
BRANCH   8  16
ATOM     16  C   UNL     1       2.082   8.201  17.942  0.00  0.00    +0.000 A 
ATOM     17  C   UNL     1       3.429   8.163  17.612  0.00  0.00    +0.000 A 
ATOM     18  C   UNL     1       3.854   6.819  17.705  0.00  0.00    +0.000 A 
ATOM     19  C   UNL     1       2.761   6.089  18.119  0.00  0.00    +0.000 A 
ATOM     20  O   UNL     1       1.683   6.922  18.240  0.00  0.00    +0.000 OA
BRANCH  19  21
ATOM     21  C   UNL     1       2.553   4.685  18.469  0.00  0.00    +0.000 A 
ATOM     22  C   UNL     1       1.336   4.058  18.161  0.00  0.00    +0.000 A 
ATOM     23  C   UNL     1       1.137   2.700  18.417  0.00  0.00    +0.000 A 
ATOM     24  C   UNL     1       2.155   1.949  18.999  0.00  0.00    +0.000 A 
ATOM     25  C   UNL     1       3.369   2.556  19.338  0.00  0.00    +0.000 A 
ATOM     26  C   UNL     1       3.569   3.918  19.065  0.00  0.00    +0.000 A 
BRANCH  25  27
ATOM     27  C   UNL     1       4.432   1.693  19.915  0.00  0.00    +0.000 C 
ATOM     28  O   UNL     1       5.025   1.980  20.940  0.00  0.00    +0.000 OA
BRANCH  27  29
ATOM     29  O   UNL     1       4.713   0.594  19.186  0.00  0.00    +0.000 OA
ATOM     30  H   UNL     1       4.487   0.643  18.241  0.00  0.00    +0.000 HD
ENDBRANCH  27  29
ENDBRANCH  25  27
ENDBRANCH  19  21
ENDBRANCH   8  16
TORSDOF 5
ENDMDL
MODEL 5
REMARK VINA RESULT:      -8.0      3.060      4.145
REMARK  Name = 
REMARK  6 active torsions:
REMARK  status: ('A' for Active; 'I' for Inactive)
REMARK    1  A    between atoms: C_1  and  C_2
REMARK    2  A    between atoms: N_4  and  C_5
REMARK    3  A    between atoms: C_15  and  C_16
REMARK    4  A    between atoms: C_19  and  C_20
REMARK    5  A    between atoms: C_24  and  C_25
REMARK    6  A    between atoms: C_25  and  O_27
REMARK                            x       y       z     vdW  Elec       q    Type
REMARK                         _______ _______ _______ _____ _____    ______ ____
ROOT
ATOM      1  C   UNL     1       1.590   8.489  21.796  0.00  0.00    +0.000 C 
ATOM      2  C   UNL     1       0.894   9.760  21.440  0.00  0.00    +0.000 C 
ATOM      3  N   UNL     1       0.317  10.521  22.330  0.00  0.00    +0.000 NA
ATOM      4  N   UNL     1      -0.263  11.578  21.631  0.00  0.00    +0.000 N 
ATOM      5  C   UNL     1      -0.067  11.523  20.245  0.00  0.00    +0.000 C 
ATOM      6  O   UNL     1      -0.448  12.238  19.336  0.00  0.00    +0.000 OA
ATOM      7  C   UNL     1       0.748  10.297  20.079  0.00  0.00    +0.000 C 
ATOM      8  C   UNL     1       1.154   9.905  18.868  0.00  0.00    +0.000 C 
ENDROOT
BRANCH   4   9
ATOM      9  C   UNL     1      -1.013  12.533  22.361  0.00  0.00    +0.000 A 
ATOM     10  C   UNL     1      -2.168  12.177  23.071  0.00  0.00    +0.000 A 
ATOM     11  C   UNL     1      -2.888  13.134  23.797  0.00  0.00    +0.000 A 
ATOM     12  C   UNL     1      -2.466  14.460  23.806  0.00  0.00    +0.000 A 
ATOM     13 BR   UNL     1      -3.445  15.752  24.777  0.00  0.00    +0.000 Br
ATOM     14  C   UNL     1      -1.326  14.838  23.104  0.00  0.00    +0.000 A 
ATOM     15  C   UNL     1      -0.602  13.875  22.392  0.00  0.00    +0.000 A 
ENDBRANCH   4   9
BRANCH   8  16
ATOM     16  C   UNL     1       1.838   8.691  18.641  0.00  0.00    +0.000 A 
ATOM     17  C   UNL     1       2.884   8.457  17.761  0.00  0.00    +0.000 A 
ATOM     18  C   UNL     1       3.269   7.105  17.904  0.00  0.00    +0.000 A 
ATOM     19  C   UNL     1       2.466   6.571  18.888  0.00  0.00    +0.000 A 
ATOM     20  O   UNL     1       1.584   7.523  19.318  0.00  0.00    +0.000 OA
BRANCH  19  21
ATOM     21  C   UNL     1       2.403   5.267  19.549  0.00  0.00    +0.000 A 
ATOM     22  C   UNL     1       1.286   4.930  20.331  0.00  0.00    +0.000 A 
ATOM     23  C   UNL     1       1.167   3.667  20.912  0.00  0.00    +0.000 A 
ATOM     24  C   UNL     1       2.173   2.722  20.729  0.00  0.00    +0.000 A 
ATOM     25  C   UNL     1       3.307   3.042  19.975  0.00  0.00    +0.000 A 
ATOM     26  C   UNL     1       3.416   4.308  19.379  0.00  0.00    +0.000 A 
BRANCH  25  27
ATOM     27  C   UNL     1       4.324   1.977  19.777  0.00  0.00    +0.000 C 
ATOM     28  O   UNL     1       5.251   1.804  20.549  0.00  0.00    +0.000 OA
BRANCH  27  29
ATOM     29  O   UNL     1       4.160   1.252  18.653  0.00  0.00    +0.000 OA
ATOM     30  H   UNL     1       3.690   1.696  17.926  0.00  0.00    +0.000 HD
ENDBRANCH  27  29
ENDBRANCH  25  27
ENDBRANCH  19  21
ENDBRANCH   8  16
TORSDOF 5
ENDMDL
MODEL 6
REMARK VINA RESULT:      -8.0      1.021      1.236
REMARK  Name = 
REMARK  6 active torsions:
REMARK  status: ('A' for Active; 'I' for Inactive)
REMARK    1  A    between atoms: C_1  and  C_2
REMARK    2  A    between atoms: N_4  and  C_5
REMARK    3  A    between atoms: C_15  and  C_16
REMARK    4  A    between atoms: C_19  and  C_20
REMARK    5  A    between atoms: C_24  and  C_25
REMARK    6  A    between atoms: C_25  and  O_27
REMARK                            x       y       z     vdW  Elec       q    Type
REMARK                         _______ _______ _______ _____ _____    ______ ____
ROOT
ATOM      1  C   UNL     1       2.153   8.193  17.899  0.00  0.00    +0.000 C 
ATOM      2  C   UNL     1       1.422   8.804  19.046  0.00  0.00    +0.000 C 
ATOM      3  N   UNL     1       0.949  10.020  19.013  0.00  0.00    +0.000 NA
ATOM      4  N   UNL     1       0.383  10.260  20.264  0.00  0.00    +0.000 N 
ATOM      5  C   UNL     1       0.478   9.180  21.151  0.00  0.00    +0.000 C 
ATOM      6  O   UNL     1       0.135   9.040  22.310  0.00  0.00    +0.000 OA
ATOM      7  C   UNL     1       1.165   8.149  20.337  0.00  0.00    +0.000 C 
ATOM      8  C   UNL     1       1.433   6.944  20.846  0.00  0.00    +0.000 C 
ENDROOT
BRANCH   4   9
ATOM      9  C   UNL     1      -0.158  11.544  20.521  0.00  0.00    +0.000 A 
ATOM     10  C   UNL     1      -1.065  12.151  19.643  0.00  0.00    +0.000 A 
ATOM     11  C   UNL     1      -1.598  13.416  19.923  0.00  0.00    +0.000 A 
ATOM     12  C   UNL     1      -1.215  14.089  21.078  0.00  0.00    +0.000 A 
ATOM     13 BR   UNL     1      -1.927  15.801  21.449  0.00  0.00    +0.000 Br
ATOM     14  C   UNL     1      -0.312  13.510  21.962  0.00  0.00    +0.000 A 
ATOM     15  C   UNL     1       0.207  12.239  21.685  0.00  0.00    +0.000 A 
ENDBRANCH   4   9
BRANCH   8  16
ATOM     16  C   UNL     1       2.181   5.965  20.155  0.00  0.00    +0.000 A 
ATOM     17  C   UNL     1       1.769   4.698  19.769  0.00  0.00    +0.000 A 
ATOM     18  C   UNL     1       2.841   4.094  19.074  0.00  0.00    +0.000 A 
ATOM     19  C   UNL     1       3.856   5.024  19.033  0.00  0.00    +0.000 A 
ATOM     20  O   UNL     1       3.466   6.148  19.707  0.00  0.00    +0.000 OA
BRANCH  19  21
ATOM     21  C   UNL     1       5.180   5.054  18.412  0.00  0.00    +0.000 A 
ATOM     22  C   UNL     1       6.323   5.239  19.206  0.00  0.00    +0.000 A 
ATOM     23  C   UNL     1       7.603   5.198  18.649  0.00  0.00    +0.000 A 
ATOM     24  C   UNL     1       7.758   4.982  17.282  0.00  0.00    +0.000 A 
ATOM     25  C   UNL     1       6.633   4.820  16.466  0.00  0.00    +0.000 A 
ATOM     26  C   UNL     1       5.349   4.847  17.032  0.00  0.00    +0.000 A 
BRANCH  25  27
ATOM     27  C   UNL     1       6.864   4.548  15.024  0.00  0.00    +0.000 C 
ATOM     28  O   UNL     1       7.551   5.270  14.322  0.00  0.00    +0.000 OA
BRANCH  27  29
ATOM     29  O   UNL     1       6.215   3.466  14.551  0.00  0.00    +0.000 OA
ATOM     30  H   UNL     1       5.249   3.547  14.480  0.00  0.00    +0.000 HD
ENDBRANCH  27  29
ENDBRANCH  25  27
ENDBRANCH  19  21
ENDBRANCH   8  16
TORSDOF 5
ENDMDL
MODEL 7
REMARK VINA RESULT:      -8.0      2.056      2.841
REMARK  Name = 
REMARK  6 active torsions:
REMARK  status: ('A' for Active; 'I' for Inactive)
REMARK    1  A    between atoms: C_1  and  C_2
REMARK    2  A    between atoms: N_4  and  C_5
REMARK    3  A    between atoms: C_15  and  C_16
REMARK    4  A    between atoms: C_19  and  C_20
REMARK    5  A    between atoms: C_24  and  C_25
REMARK    6  A    between atoms: C_25  and  O_27
REMARK                            x       y       z     vdW  Elec       q    Type
REMARK                         _______ _______ _______ _____ _____    ______ ____
ROOT
ATOM      1  C   UNL     1       1.811   8.491  17.770  0.00  0.00    +0.000 C 
ATOM      2  C   UNL     1       1.410   9.559  18.731  0.00  0.00    +0.000 C 
ATOM      3  N   UNL     1       1.212  10.797  18.366  0.00  0.00    +0.000 NA
ATOM      4  N   UNL     1       0.905  11.507  19.525  0.00  0.00    +0.000 N 
ATOM      5  C   UNL     1       0.895  10.726  20.688  0.00  0.00    +0.000 C 
ATOM      6  O   UNL     1       0.707  11.004  21.858  0.00  0.00    +0.000 OA
ATOM      7  C   UNL     1       1.213   9.373  20.176  0.00  0.00    +0.000 C 
ATOM      8  C   UNL     1       1.287   8.328  21.005  0.00  0.00    +0.000 C 
ENDROOT
BRANCH   4   9
ATOM      9  C   UNL     1       0.699  12.905  19.421  0.00  0.00    +0.000 A 
ATOM     10  C   UNL     1       1.705  13.766  18.962  0.00  0.00    +0.000 A 
ATOM     11  C   UNL     1       1.477  15.143  18.854  0.00  0.00    +0.000 A 
ATOM     12  C   UNL     1       0.243  15.672  19.218  0.00  0.00    +0.000 A 
ATOM     13 BR   UNL     1      -0.060  17.533  19.081  0.00  0.00    +0.000 Br
ATOM     14  C   UNL     1      -0.769  14.839  19.681  0.00  0.00    +0.000 A 
ATOM     15  C   UNL     1      -0.540  13.461  19.774  0.00  0.00    +0.000 A 
ENDBRANCH   4   9
BRANCH   8  16
ATOM     16  C   UNL     1       1.693   7.042  20.588  0.00  0.00    +0.000 A 
ATOM     17  C   UNL     1       1.079   5.828  20.859  0.00  0.00    +0.000 A 
ATOM     18  C   UNL     1       1.820   4.818  20.206  0.00  0.00    +0.000 A 
ATOM     19  C   UNL     1       2.841   5.454  19.533  0.00  0.00    +0.000 A 
ATOM     20  O   UNL     1       2.778   6.797  19.783  0.00  0.00    +0.000 OA
BRANCH  19  21
ATOM     21  C   UNL     1       3.895   5.000  18.626  0.00  0.00    +0.000 A 
ATOM     22  C   UNL     1       3.558   4.442  17.383  0.00  0.00    +0.000 A 
ATOM     23  C   UNL     1       4.544   4.067  16.469  0.00  0.00    +0.000 A 
ATOM     24  C   UNL     1       5.888   4.236  16.791  0.00  0.00    +0.000 A 
ATOM     25  C   UNL     1       6.250   4.768  18.033  0.00  0.00    +0.000 A 
ATOM     26  C   UNL     1       5.255   5.157  18.944  0.00  0.00    +0.000 A 
BRANCH  25  27
ATOM     27  C   UNL     1       7.698   4.966  18.300  0.00  0.00    +0.000 C 
ATOM     28  O   UNL     1       8.127   5.936  18.901  0.00  0.00    +0.000 OA
BRANCH  27  29
ATOM     29  O   UNL     1       8.495   4.009  17.785  0.00  0.00    +0.000 OA
ATOM     30  H   UNL     1       9.442   4.090  17.989  0.00  0.00    +0.000 HD
ENDBRANCH  27  29
ENDBRANCH  25  27
ENDBRANCH  19  21
ENDBRANCH   8  16
TORSDOF 5
ENDMDL
MODEL 8
REMARK VINA RESULT:      -7.9      2.468      3.762
REMARK  Name = 
REMARK  6 active torsions:
REMARK  status: ('A' for Active; 'I' for Inactive)
REMARK    1  A    between atoms: C_1  and  C_2
REMARK    2  A    between atoms: N_4  and  C_5
REMARK    3  A    between atoms: C_15  and  C_16
REMARK    4  A    between atoms: C_19  and  C_20
REMARK    5  A    between atoms: C_24  and  C_25
REMARK    6  A    between atoms: C_25  and  O_27
REMARK                            x       y       z     vdW  Elec       q    Type
REMARK                         _______ _______ _______ _____ _____    ______ ____
ROOT
ATOM      1  C   UNL     1      -1.170  10.450  18.047  0.00  0.00    +0.000 C 
ATOM      2  C   UNL     1      -1.275  10.973  19.439  0.00  0.00    +0.000 C 
ATOM      3  N   UNL     1      -2.246  11.755  19.827  0.00  0.00    +0.000 NA
ATOM      4  N   UNL     1      -1.988  12.076  21.159  0.00  0.00    +0.000 N 
ATOM      5  C   UNL     1      -0.822  11.495  21.671  0.00  0.00    +0.000 C 
ATOM      6  O   UNL     1      -0.275  11.577  22.757  0.00  0.00    +0.000 OA
ATOM      7  C   UNL     1      -0.318  10.706  20.523  0.00  0.00    +0.000 C 
ATOM      8  C   UNL     1       0.802   9.985  20.628  0.00  0.00    +0.000 C 
ENDROOT
BRANCH   4   9
ATOM      9  C   UNL     1      -2.868  12.972  21.815  0.00  0.00    +0.000 A 
ATOM     10  C   UNL     1      -3.634  12.577  22.919  0.00  0.00    +0.000 A 
ATOM     11  C   UNL     1      -4.488  13.482  23.562  0.00  0.00    +0.000 A 
ATOM     12  C   UNL     1      -4.592  14.788  23.094  0.00  0.00    +0.000 A 
ATOM     13 BR   UNL     1      -5.753  16.007  23.956  0.00  0.00    +0.000 Br
ATOM     14  C   UNL     1      -3.846  15.203  21.996  0.00  0.00    +0.000 A 
ATOM     15  C   UNL     1      -2.983  14.298  21.367  0.00  0.00    +0.000 A 
ENDBRANCH   4   9
BRANCH   8  16
ATOM     16  C   UNL     1       1.385   9.305  19.536  0.00  0.00    +0.000 A 
ATOM     17  C   UNL     1       1.765   9.835  18.312  0.00  0.00    +0.000 A 
ATOM     18  C   UNL     1       2.334   8.788  17.552  0.00  0.00    +0.000 A 
ATOM     19  C   UNL     1       2.309   7.665  18.350  0.00  0.00    +0.000 A 
ATOM     20  O   UNL     1       1.713   7.972  19.542  0.00  0.00    +0.000 OA
BRANCH  19  21
ATOM     21  C   UNL     1       2.801   6.297  18.191  0.00  0.00    +0.000 A 
ATOM     22  C   UNL     1       1.892   5.239  18.026  0.00  0.00    +0.000 A 
ATOM     23  C   UNL     1       2.335   3.936  17.799  0.00  0.00    +0.000 A 
ATOM     24  C   UNL     1       3.700   3.667  17.746  0.00  0.00    +0.000 A 
ATOM     25  C   UNL     1       4.626   4.699  17.932  0.00  0.00    +0.000 A 
ATOM     26  C   UNL     1       4.176   6.012  18.145  0.00  0.00    +0.000 A 
BRANCH  25  27
ATOM     27  C   UNL     1       6.068   4.358  17.819  0.00  0.00    +0.000 C 
ATOM     28  O   UNL     1       6.861   4.557  18.723  0.00  0.00    +0.000 OA
BRANCH  27  29
ATOM     29  O   UNL     1       6.428   3.855  16.622  0.00  0.00    +0.000 OA
ATOM     30  H   UNL     1       6.328   4.453  15.862  0.00  0.00    +0.000 HD
ENDBRANCH  27  29
ENDBRANCH  25  27
ENDBRANCH  19  21
ENDBRANCH   8  16
TORSDOF 5
ENDMDL
MODEL 9
REMARK VINA RESULT:      -7.9      2.950      4.199
REMARK  Name = 
REMARK  6 active torsions:
REMARK  status: ('A' for Active; 'I' for Inactive)
REMARK    1  A    between atoms: C_1  and  C_2
REMARK    2  A    between atoms: N_4  and  C_5
REMARK    3  A    between atoms: C_15  and  C_16
REMARK    4  A    between atoms: C_19  and  C_20
REMARK    5  A    between atoms: C_24  and  C_25
REMARK    6  A    between atoms: C_25  and  O_27
REMARK                            x       y       z     vdW  Elec       q    Type
REMARK                         _______ _______ _______ _____ _____    ______ ____
ROOT
ATOM      1  C   UNL     1      -1.054  10.398  18.011  0.00  0.00    +0.000 C 
ATOM      2  C   UNL     1      -1.168  10.903  19.410  0.00  0.00    +0.000 C 
ATOM      3  N   UNL     1      -2.123  11.708  19.793  0.00  0.00    +0.000 NA
ATOM      4  N   UNL     1      -1.879  12.002  21.133  0.00  0.00    +0.000 N 
ATOM      5  C   UNL     1      -0.739  11.380  21.657  0.00  0.00    +0.000 C 
ATOM      6  O   UNL     1      -0.210  11.430  22.752  0.00  0.00    +0.000 OA
ATOM      7  C   UNL     1      -0.238  10.594  20.505  0.00  0.00    +0.000 C 
ATOM      8  C   UNL     1       0.858   9.839  20.618  0.00  0.00    +0.000 C 
ENDROOT
BRANCH   4   9
ATOM      9  C   UNL     1      -2.744  12.913  21.788  0.00  0.00    +0.000 A 
ATOM     10  C   UNL     1      -2.271  14.110  22.343  0.00  0.00    +0.000 A 
ATOM     11  C   UNL     1      -3.145  15.004  22.974  0.00  0.00    +0.000 A 
ATOM     12  C   UNL     1      -4.499  14.700  23.068  0.00  0.00    +0.000 A 
ATOM     13 BR   UNL     1      -5.676  15.901  23.930  0.00  0.00    +0.000 Br
ATOM     14  C   UNL     1      -4.991  13.515  22.530  0.00  0.00    +0.000 A 
ATOM     15  C   UNL     1      -4.116  12.633  21.887  0.00  0.00    +0.000 A 
ENDBRANCH   4   9
BRANCH   8  16
ATOM     16  C   UNL     1       1.440   9.158  19.526  0.00  0.00    +0.000 A 
ATOM     17  C   UNL     1       1.799   9.683  18.293  0.00  0.00    +0.000 A 
ATOM     18  C   UNL     1       2.376   8.638  17.536  0.00  0.00    +0.000 A 
ATOM     19  C   UNL     1       2.378   7.522  18.345  0.00  0.00    +0.000 A 
ATOM     20  O   UNL     1       1.790   7.831  19.541  0.00  0.00    +0.000 OA
BRANCH  19  21
ATOM     21  C   UNL     1       2.890   6.161  18.193  0.00  0.00    +0.000 A 
ATOM     22  C   UNL     1       4.264   5.947  17.998  0.00  0.00    +0.000 A 
ATOM     23  C   UNL     1       4.790   4.656  17.923  0.00  0.00    +0.000 A 
ATOM     24  C   UNL     1       3.943   3.555  18.031  0.00  0.00    +0.000 A 
ATOM     25  C   UNL     1       2.568   3.743  18.201  0.00  0.00    +0.000 A 
ATOM     26  C   UNL     1       2.045   5.043  18.291  0.00  0.00    +0.000 A 
BRANCH  25  27
ATOM     27  C   UNL     1       1.723   2.531  18.355  0.00  0.00    +0.000 C 
ATOM     28  O   UNL     1       0.509   2.586  18.457  0.00  0.00    +0.000 OA
BRANCH  27  29
ATOM     29  O   UNL     1       2.413   1.375  18.418  0.00  0.00    +0.000 OA
ATOM     30  H   UNL     1       3.380   1.461  18.480  0.00  0.00    +0.000 HD
ENDBRANCH  27  29
ENDBRANCH  25  27
ENDBRANCH  19  21
ENDBRANCH   8  16
TORSDOF 5
ENDMDL
