MODEL 1
REMARK VINA RESULT:      -7.9      0.000      0.000
REMARK  Name = 
REMARK  3 active torsions:
REMARK  status: ('A' for Active; 'I' for Inactive)
REMARK    1  A    between atoms: C_2  and  C_19
REMARK    2  A    between atoms: N_3  and  C_4
REMARK    3  A    between atoms: N_8  and  C_9
REMARK                            x       y       z     vdW  Elec       q    Type
REMARK                         _______ _______ _______ _____ _____    ______ ____
ROOT
ATOM      1  C   UNL     1       0.922  10.153  19.024  0.00  0.00    +0.000 C 
ATOM      2  C   UNL     1       2.032  10.227  17.983  0.00  0.00    +0.000 C 
ATOM      3  C   UNL     1       2.524   8.811  17.863  0.00  0.00    +0.000 C 
ATOM      4  O   UNL     1       3.285   8.420  16.991  0.00  0.00    +0.000 OA
ATOM      5  N   UNL     1       2.046   8.080  18.938  0.00  0.00    +0.000 N 
ATOM      6  C   UNL     1       1.215   8.875  19.813  0.00  0.00    +0.000 C 
ENDROOT
BRANCH   5   7
ATOM      7  C   UNL     1       2.442   6.698  19.235  0.00  0.00    +0.000 C 
ATOM      8  C   UNL     1       1.806   6.144  20.534  0.00  0.00    +0.000 C 
ATOM      9  C   UNL     1       1.783   4.673  20.272  0.00  0.00    +0.000 A 
ATOM     10  C   UNL     1       1.566   3.663  21.194  0.00  0.00    +0.000 A 
ATOM     11  C   UNL     1       1.535   2.349  20.729  0.00  0.00    +0.000 A 
ATOM     12  C   UNL     1       1.704   2.067  19.366  0.00  0.00    +0.000 A 
ATOM     13  C   UNL     1       1.909   3.096  18.444  0.00  0.00    +0.000 A 
ATOM     14  C   UNL     1       1.954   4.397  18.915  0.00  0.00    +0.000 A 
ATOM     15  C   UNL     1       2.100   5.661  18.128  0.00  0.00    +0.000 C 
ENDBRANCH   5   7
BRANCH   1  18
ATOM     16  O   UNL     1      -0.635  12.408  18.763  0.00  0.00    +0.000 OA
ATOM     17  C   UNL     1      -1.120  11.355  18.360  0.00  0.00    +0.000 C 
ATOM     18  N   UNL     1      -0.412  10.166  18.431  0.00  0.00    +0.000 N 
ATOM     19  H   UNL     1      -0.858   9.294  18.179  0.00  0.00    +0.000 HD
BRANCH  17  20
ATOM     20  C   UNL     1      -2.464  11.310  17.786  0.00  0.00    +0.000 A 
ATOM     21  C   UNL     1      -2.719  10.921  16.421  0.00  0.00    +0.000 A 
ATOM     22  C   UNL     1      -4.051  10.979  16.077  0.00  0.00    +0.000 A 
ATOM     23  S   UNL     1      -5.019  11.476  17.390  0.00  0.00    +0.000 S 
ATOM     24  C   UNL     1      -3.654  11.626  18.416  0.00  0.00    +0.000 A 
ENDBRANCH  17  20
ENDBRANCH   1  18
TORSDOF 3
ENDMDL
MODEL 2
REMARK VINA RESULT:      -7.8      5.007      8.377
REMARK  Name = 
REMARK  3 active torsions:
REMARK  status: ('A' for Active; 'I' for Inactive)
REMARK    1  A    between atoms: C_2  and  C_19
REMARK    2  A    between atoms: N_3  and  C_4
REMARK    3  A    between atoms: N_8  and  C_9
REMARK                            x       y       z     vdW  Elec       q    Type
REMARK                         _______ _______ _______ _____ _____    ______ ____
ROOT
ATOM      1  C   UNL     1       5.726   5.201  17.881  0.00  0.00    +0.000 C 
ATOM      2  C   UNL     1       5.155   4.207  18.883  0.00  0.00    +0.000 C 
ATOM      3  C   UNL     1       3.740   4.668  19.099  0.00  0.00    +0.000 C 
ATOM      4  O   UNL     1       2.890   4.022  19.693  0.00  0.00    +0.000 OA
ATOM      5  N   UNL     1       3.609   5.954  18.601  0.00  0.00    +0.000 N 
ATOM      6  C   UNL     1       4.837   6.439  18.012  0.00  0.00    +0.000 C 
ENDROOT
BRANCH   5   7
ATOM      7  C   UNL     1       2.410   6.783  18.768  0.00  0.00    +0.000 C 
ATOM      8  C   UNL     1       2.158   7.205  20.238  0.00  0.00    +0.000 C 
ATOM      9  C   UNL     1       1.393   8.478  20.074  0.00  0.00    +0.000 A 
ATOM     10  C   UNL     1       0.677   9.154  21.048  0.00  0.00    +0.000 A 
ATOM     11  C   UNL     1       0.073  10.361  20.695  0.00  0.00    +0.000 A 
ATOM     12  C   UNL     1       0.204  10.875  19.398  0.00  0.00    +0.000 A 
ATOM     13  C   UNL     1       0.941  10.190  18.429  0.00  0.00    +0.000 A 
ATOM     14  C   UNL     1       1.524   8.985  18.781  0.00  0.00    +0.000 A 
ATOM     15  C   UNL     1       2.401   8.104  17.949  0.00  0.00    +0.000 C 
ENDBRANCH   5   7
BRANCH   1  18
ATOM     16  O   UNL     1       7.517   6.022  15.957  0.00  0.00    +0.000 OA
ATOM     17  C   UNL     1       6.705   5.164  15.623  0.00  0.00    +0.000 C 
ATOM     18  N   UNL     1       5.772   4.671  16.521  0.00  0.00    +0.000 N 
ATOM     19  H   UNL     1       5.053   4.032  16.207  0.00  0.00    +0.000 HD
BRANCH  17  20
ATOM     20  C   UNL     1       6.690   4.623  14.264  0.00  0.00    +0.000 A 
ATOM     21  C   UNL     1       7.597   5.068  13.235  0.00  0.00    +0.000 A 
ATOM     22  C   UNL     1       7.390   4.451  12.022  0.00  0.00    +0.000 A 
ATOM     23  S   UNL     1       6.123   3.312  12.103  0.00  0.00    +0.000 S 
ATOM     24  C   UNL     1       5.843   3.653  13.760  0.00  0.00    +0.000 A 
ENDBRANCH  17  20
ENDBRANCH   1  18
TORSDOF 3
ENDMDL
MODEL 3
REMARK VINA RESULT:      -7.6      4.922      6.770
REMARK  Name = 
REMARK  3 active torsions:
REMARK  status: ('A' for Active; 'I' for Inactive)
REMARK    1  A    between atoms: C_2  and  C_19
REMARK    2  A    between atoms: N_3  and  C_4
REMARK    3  A    between atoms: N_8  and  C_9
REMARK                            x       y       z     vdW  Elec       q    Type
REMARK                         _______ _______ _______ _____ _____    ______ ____
ROOT
ATOM      1  C   UNL     1       3.581   5.047  18.856  0.00  0.00    +0.000 C 
ATOM      2  C   UNL     1       4.836   4.921  19.710  0.00  0.00    +0.000 C 
ATOM      3  C   UNL     1       5.954   4.797  18.712  0.00  0.00    +0.000 C 
ATOM      4  O   UNL     1       7.140   4.865  18.998  0.00  0.00    +0.000 OA
ATOM      5  N   UNL     1       5.413   4.509  17.470  0.00  0.00    +0.000 N 
ATOM      6  C   UNL     1       3.970   4.446  17.504  0.00  0.00    +0.000 C 
ENDROOT
BRANCH   5   7
ATOM      7  C   UNL     1       6.209   4.173  16.284  0.00  0.00    +0.000 C 
ATOM      8  C   UNL     1       5.375   3.526  15.149  0.00  0.00    +0.000 C 
ATOM      9  C   UNL     1       6.160   3.892  13.931  0.00  0.00    +0.000 A 
ATOM     10  C   UNL     1       6.029   3.358  12.661  0.00  0.00    +0.000 A 
ATOM     11  C   UNL     1       6.831   3.882  11.646  0.00  0.00    +0.000 A 
ATOM     12  C   UNL     1       7.728   4.925  11.910  0.00  0.00    +0.000 A 
ATOM     13  C   UNL     1       7.841   5.464  13.193  0.00  0.00    +0.000 A 
ATOM     14  C   UNL     1       7.053   4.930  14.198  0.00  0.00    +0.000 A 
ATOM     15  C   UNL     1       6.950   5.370  15.625  0.00  0.00    +0.000 C 
ENDBRANCH   5   7
BRANCH   1  18
ATOM     16  O   UNL     1       1.783   6.195  20.597  0.00  0.00    +0.000 OA
ATOM     17  C   UNL     1       2.184   6.900  19.676  0.00  0.00    +0.000 C 
ATOM     18  N   UNL     1       3.103   6.423  18.754  0.00  0.00    +0.000 N 
ATOM     19  H   UNL     1       3.354   6.983  17.950  0.00  0.00    +0.000 HD
BRANCH  17  20
ATOM     20  C   UNL     1       1.711   8.274  19.512  0.00  0.00    +0.000 A 
ATOM     21  C   UNL     1       1.874   9.016  18.285  0.00  0.00    +0.000 A 
ATOM     22  C   UNL     1       1.386  10.302  18.358  0.00  0.00    +0.000 A 
ATOM     23  S   UNL     1       0.704  10.632  19.886  0.00  0.00    +0.000 S 
ATOM     24  C   UNL     1       1.073   9.058  20.456  0.00  0.00    +0.000 A 
ENDBRANCH  17  20
ENDBRANCH   1  18
TORSDOF 3
ENDMDL
MODEL 4
REMARK VINA RESULT:      -7.6      4.995      8.382
REMARK  Name = 
REMARK  3 active torsions:
REMARK  status: ('A' for Active; 'I' for Inactive)
REMARK    1  A    between atoms: C_2  and  C_19
REMARK    2  A    between atoms: N_3  and  C_4
REMARK    3  A    between atoms: N_8  and  C_9
REMARK                            x       y       z     vdW  Elec       q    Type
REMARK                         _______ _______ _______ _____ _____    ______ ____
ROOT
ATOM      1  C   UNL     1       5.393   4.303  18.099  0.00  0.00    +0.000 C 
ATOM      2  C   UNL     1       4.542   3.238  18.778  0.00  0.00    +0.000 C 
ATOM      3  C   UNL     1       3.201   3.894  18.963  0.00  0.00    +0.000 C 
ATOM      4  O   UNL     1       2.189   3.302  19.303  0.00  0.00    +0.000 OA
ATOM      5  N   UNL     1       3.343   5.259  18.773  0.00  0.00    +0.000 N 
ATOM      6  C   UNL     1       4.700   5.625  18.435  0.00  0.00    +0.000 C 
ENDROOT
BRANCH   5   7
ATOM      7  C   UNL     1       2.278   6.239  19.018  0.00  0.00    +0.000 C 
ATOM      8  C   UNL     1       2.142   6.634  20.510  0.00  0.00    +0.000 C 
ATOM      9  C   UNL     1       1.555   8.006  20.421  0.00  0.00    +0.000 A 
ATOM     10  C   UNL     1       0.976   8.736  21.445  0.00  0.00    +0.000 A 
ATOM     11  C   UNL     1       0.534  10.027  21.158  0.00  0.00    +0.000 A 
ATOM     12  C   UNL     1       0.687  10.567  19.875  0.00  0.00    +0.000 A 
ATOM     13  C   UNL     1       1.285   9.826  18.853  0.00  0.00    +0.000 A 
ATOM     14  C   UNL     1       1.708   8.539  19.141  0.00  0.00    +0.000 A 
ATOM     15  C   UNL     1       2.423   7.578  18.244  0.00  0.00    +0.000 C 
ENDBRANCH   5   7
BRANCH   1  18
ATOM     16  O   UNL     1       7.418   5.363  16.564  0.00  0.00    +0.000 OA
ATOM     17  C   UNL     1       6.587   4.674  15.979  0.00  0.00    +0.000 C 
ATOM     18  N   UNL     1       5.537   4.082  16.663  0.00  0.00    +0.000 N 
ATOM     19  H   UNL     1       4.811   3.594  16.155  0.00  0.00    +0.000 HD
BRANCH  17  20
ATOM     20  C   UNL     1       6.669   4.447  14.537  0.00  0.00    +0.000 A 
ATOM     21  C   UNL     1       5.768   3.571  13.830  0.00  0.00    +0.000 A 
ATOM     22  C   UNL     1       6.042   3.477  12.484  0.00  0.00    +0.000 A 
ATOM     23  S   UNL     1       7.368   4.455  12.042  0.00  0.00    +0.000 S 
ATOM     24  C   UNL     1       7.583   4.995  13.655  0.00  0.00    +0.000 A 
ENDBRANCH  17  20
ENDBRANCH   1  18
TORSDOF 3
ENDMDL
MODEL 5
REMARK VINA RESULT:      -7.5      0.582      1.042
REMARK  Name = 
REMARK  3 active torsions:
REMARK  status: ('A' for Active; 'I' for Inactive)
REMARK    1  A    between atoms: C_2  and  C_19
REMARK    2  A    between atoms: N_3  and  C_4
REMARK    3  A    between atoms: N_8  and  C_9
REMARK                            x       y       z     vdW  Elec       q    Type
REMARK                         _______ _______ _______ _____ _____    ______ ____
ROOT
ATOM      1  C   UNL     1       0.882  10.249  19.456  0.00  0.00    +0.000 C 
ATOM      2  C   UNL     1       1.841  10.353  18.278  0.00  0.00    +0.000 C 
ATOM      3  C   UNL     1       2.277   8.936  18.027  0.00  0.00    +0.000 C 
ATOM      4  O   UNL     1       2.903   8.574  17.042  0.00  0.00    +0.000 OA
ATOM      5  N   UNL     1       1.931   8.163  19.123  0.00  0.00    +0.000 N 
ATOM      6  C   UNL     1       1.247   8.930  20.139  0.00  0.00    +0.000 C 
ENDROOT
BRANCH   5   7
ATOM      7  C   UNL     1       2.329   6.761  19.299  0.00  0.00    +0.000 C 
ATOM      8  C   UNL     1       1.748   6.116  20.583  0.00  0.00    +0.000 C 
ATOM      9  C   UNL     1       1.702   4.668  20.216  0.00  0.00    +0.000 A 
ATOM     10  C   UNL     1       1.519   3.595  21.071  0.00  0.00    +0.000 A 
ATOM     11  C   UNL     1       1.455   2.318  20.513  0.00  0.00    +0.000 A 
ATOM     12  C   UNL     1       1.560   2.137  19.128  0.00  0.00    +0.000 A 
ATOM     13  C   UNL     1       1.730   3.229  18.274  0.00  0.00    +0.000 A 
ATOM     14  C   UNL     1       1.808   4.492  18.836  0.00  0.00    +0.000 A 
ATOM     15  C   UNL     1       1.928   5.810  18.137  0.00  0.00    +0.000 C 
ENDBRANCH   5   7
BRANCH   1  18
ATOM     16  O   UNL     1      -0.526  12.593  19.129  0.00  0.00    +0.000 OA
ATOM     17  C   UNL     1      -1.141  11.549  18.930  0.00  0.00    +0.000 C 
ATOM     18  N   UNL     1      -0.520  10.316  19.052  0.00  0.00    +0.000 N 
ATOM     19  H   UNL     1      -1.060   9.465  18.974  0.00  0.00    +0.000 HD
BRANCH  17  20
ATOM     20  C   UNL     1      -2.554  11.562  18.553  0.00  0.00    +0.000 A 
ATOM     21  C   UNL     1      -3.581  12.127  19.392  0.00  0.00    +0.000 A 
ATOM     22  C   UNL     1      -4.846  12.005  18.861  0.00  0.00    +0.000 A 
ATOM     23  S   UNL     1      -4.820  11.233  17.340  0.00  0.00    +0.000 S 
ATOM     24  C   UNL     1      -3.116  11.051  17.397  0.00  0.00    +0.000 A 
ENDBRANCH  17  20
ENDBRANCH   1  18
TORSDOF 3
ENDMDL
MODEL 6
REMARK VINA RESULT:      -7.3      1.319      1.749
REMARK  Name = 
REMARK  3 active torsions:
REMARK  status: ('A' for Active; 'I' for Inactive)
REMARK    1  A    between atoms: C_2  and  C_19
REMARK    2  A    between atoms: N_3  and  C_4
REMARK    3  A    between atoms: N_8  and  C_9
REMARK                            x       y       z     vdW  Elec       q    Type
REMARK                         _______ _______ _______ _____ _____    ______ ____
ROOT
ATOM      1  C   UNL     1       1.395   9.675  18.699  0.00  0.00    +0.000 C 
ATOM      2  C   UNL     1       2.634   9.510  17.830  0.00  0.00    +0.000 C 
ATOM      3  C   UNL     1       2.885   8.027  17.817  0.00  0.00    +0.000 C 
ATOM      4  O   UNL     1       3.680   7.471  17.075  0.00  0.00    +0.000 OA
ATOM      5  N   UNL     1       2.141   7.440  18.828  0.00  0.00    +0.000 N 
ATOM      6  C   UNL     1       1.347   8.406  19.553  0.00  0.00    +0.000 C 
ENDROOT
BRANCH   5   7
ATOM      7  C   UNL     1       2.245   6.028  19.212  0.00  0.00    +0.000 C 
ATOM      8  C   UNL     1       1.811   5.054  18.089  0.00  0.00    +0.000 C 
ATOM      9  C   UNL     1       2.592   3.823  18.417  0.00  0.00    +0.000 A 
ATOM     10  C   UNL     1       2.400   2.550  17.908  0.00  0.00    +0.000 A 
ATOM     11  C   UNL     1       3.280   1.546  18.311  0.00  0.00    +0.000 A 
ATOM     12  C   UNL     1       4.332   1.827  19.192  0.00  0.00    +0.000 A 
ATOM     13  C   UNL     1       4.523   3.118  19.688  0.00  0.00    +0.000 A 
ATOM     14  C   UNL     1       3.637   4.107  19.296  0.00  0.00    +0.000 A 
ATOM     15  C   UNL     1       3.666   5.563  19.639  0.00  0.00    +0.000 C 
ENDBRANCH   5   7
BRANCH   1  18
ATOM     16  O   UNL     1      -0.884  10.877  19.670  0.00  0.00    +0.000 OA
ATOM     17  C   UNL     1      -0.920  10.488  18.506  0.00  0.00    +0.000 C 
ATOM     18  N   UNL     1       0.179   9.884  17.917  0.00  0.00    +0.000 N 
ATOM     19  H   UNL     1       0.105   9.488  16.990  0.00  0.00    +0.000 HD
BRANCH  17  20
ATOM     20  C   UNL     1      -2.124  10.646  17.691  0.00  0.00    +0.000 A 
ATOM     21  C   UNL     1      -2.302   9.983  16.422  0.00  0.00    +0.000 A 
ATOM     22  C   UNL     1      -3.493  10.296  15.807  0.00  0.00    +0.000 A 
ATOM     23  S   UNL     1      -4.427  11.368  16.749  0.00  0.00    +0.000 S 
ATOM     24  C   UNL     1      -3.231  11.424  17.976  0.00  0.00    +0.000 A 
ENDBRANCH  17  20
ENDBRANCH   1  18
TORSDOF 3
ENDMDL
MODEL 7
REMARK VINA RESULT:      -7.2      6.578      8.546
REMARK  Name = 
REMARK  3 active torsions:
REMARK  status: ('A' for Active; 'I' for Inactive)
REMARK    1  A    between atoms: C_2  and  C_19
REMARK    2  A    between atoms: N_3  and  C_4
REMARK    3  A    between atoms: N_8  and  C_9
REMARK                            x       y       z     vdW  Elec       q    Type
REMARK                         _______ _______ _______ _____ _____    ______ ____
ROOT
ATOM      1  C   UNL     1       6.198   5.705  15.527  0.00  0.00    +0.000 C 
ATOM      2  C   UNL     1       7.445   5.508  16.379  0.00  0.00    +0.000 C 
ATOM      3  C   UNL     1       6.922   4.994  17.692  0.00  0.00    +0.000 C 
ATOM      4  O   UNL     1       7.625   4.535  18.579  0.00  0.00    +0.000 OA
ATOM      5  N   UNL     1       5.555   5.215  17.744  0.00  0.00    +0.000 N 
ATOM      6  C   UNL     1       5.055   5.832  16.537  0.00  0.00    +0.000 C 
ENDROOT
BRANCH   5   7
ATOM      7  C   UNL     1       4.729   4.979  18.934  0.00  0.00    +0.000 C 
ATOM      8  C   UNL     1       3.226   5.281  18.705  0.00  0.00    +0.000 C 
ATOM      9  C   UNL     1       2.568   4.389  19.707  0.00  0.00    +0.000 A 
ATOM     10  C   UNL     1       1.252   4.437  20.132  0.00  0.00    +0.000 A 
ATOM     11  C   UNL     1       0.823   3.471  21.043  0.00  0.00    +0.000 A 
ATOM     12  C   UNL     1       1.700   2.478  21.498  0.00  0.00    +0.000 A 
ATOM     13  C   UNL     1       3.022   2.432  21.051  0.00  0.00    +0.000 A 
ATOM     14  C   UNL     1       3.445   3.402  20.159  0.00  0.00    +0.000 A 
ATOM     15  C   UNL     1       4.781   3.531  19.496  0.00  0.00    +0.000 C 
ENDBRANCH   5   7
BRANCH   1  18
ATOM     16  O   UNL     1       7.581   5.462  13.159  0.00  0.00    +0.000 OA
ATOM     17  C   UNL     1       6.734   4.605  13.392  0.00  0.00    +0.000 C 
ATOM     18  N   UNL     1       5.994   4.627  14.564  0.00  0.00    +0.000 N 
ATOM     19  H   UNL     1       5.239   3.969  14.701  0.00  0.00    +0.000 HD
BRANCH  17  20
ATOM     20  C   UNL     1       6.470   3.522  12.445  0.00  0.00    +0.000 A 
ATOM     21  C   UNL     1       5.139   3.146  12.039  0.00  0.00    +0.000 A 
ATOM     22  C   UNL     1       5.116   2.081  11.166  0.00  0.00    +0.000 A 
ATOM     23  S   UNL     1       6.689   1.532  10.800  0.00  0.00    +0.000 S 
ATOM     24  C   UNL     1       7.401   2.712  11.821  0.00  0.00    +0.000 A 
ENDBRANCH  17  20
ENDBRANCH   1  18
TORSDOF 3
ENDMDL
MODEL 8
REMARK VINA RESULT:      -7.2      5.945      7.606
REMARK  Name = 
REMARK  3 active torsions:
REMARK  status: ('A' for Active; 'I' for Inactive)
REMARK    1  A    between atoms: C_2  and  C_19
REMARK    2  A    between atoms: N_3  and  C_4
REMARK    3  A    between atoms: N_8  and  C_9
REMARK                            x       y       z     vdW  Elec       q    Type
REMARK                         _______ _______ _______ _____ _____    ______ ____
ROOT
ATOM      1  C   UNL     1       7.522   6.496  17.225  0.00  0.00    +0.000 C 
ATOM      2  C   UNL     1       7.240   5.925  15.842  0.00  0.00    +0.000 C 
ATOM      3  C   UNL     1       5.751   5.711  15.825  0.00  0.00    +0.000 C 
ATOM      4  O   UNL     1       5.108   5.442  14.822  0.00  0.00    +0.000 OA
ATOM      5  N   UNL     1       5.275   5.783  17.124  0.00  0.00    +0.000 N 
ATOM      6  C   UNL     1       6.326   6.063  18.076  0.00  0.00    +0.000 C 
ENDROOT
BRANCH   5   7
ATOM      7  C   UNL     1       3.893   5.477  17.512  0.00  0.00    +0.000 C 
ATOM      8  C   UNL     1       3.502   3.998  17.268  0.00  0.00    +0.000 C 
ATOM      9  C   UNL     1       2.426   3.784  18.282  0.00  0.00    +0.000 A 
ATOM     10  C   UNL     1       1.531   2.729  18.342  0.00  0.00    +0.000 A 
ATOM     11  C   UNL     1       0.633   2.694  19.408  0.00  0.00    +0.000 A 
ATOM     12  C   UNL     1       0.652   3.690  20.393  0.00  0.00    +0.000 A 
ATOM     13  C   UNL     1       1.569   4.742  20.329  0.00  0.00    +0.000 A 
ATOM     14  C   UNL     1       2.447   4.779  19.260  0.00  0.00    +0.000 A 
ATOM     15  C   UNL     1       3.549   5.758  19.001  0.00  0.00    +0.000 C 
ENDBRANCH   5   7
BRANCH   1  18
ATOM     16  O   UNL     1       8.906   7.889  19.156  0.00  0.00    +0.000 OA
ATOM     17  C   UNL     1       8.422   8.549  18.241  0.00  0.00    +0.000 C 
ATOM     18  N   UNL     1       7.721   7.942  17.211  0.00  0.00    +0.000 N 
ATOM     19  H   UNL     1       7.252   8.506  16.514  0.00  0.00    +0.000 HD
BRANCH  17  20
ATOM     20  C   UNL     1       8.567  10.004  18.196  0.00  0.00    +0.000 A 
ATOM     21  C   UNL     1       9.513  10.721  19.016  0.00  0.00    +0.000 A 
ATOM     22  C   UNL     1       9.461  12.085  18.840  0.00  0.00    +0.000 A 
ATOM     23  S   UNL     1       8.298  12.527  17.673  0.00  0.00    +0.000 S 
ATOM     24  C   UNL     1       7.853  10.892  17.412  0.00  0.00    +0.000 A 
ENDBRANCH  17  20
ENDBRANCH   1  18
TORSDOF 3
ENDMDL
MODEL 9
REMARK VINA RESULT:      -7.1      4.937      8.490
REMARK  Name = 
REMARK  3 active torsions:
REMARK  status: ('A' for Active; 'I' for Inactive)
REMARK    1  A    between atoms: C_2  and  C_19
REMARK    2  A    between atoms: N_3  and  C_4
REMARK    3  A    between atoms: N_8  and  C_9
REMARK                            x       y       z     vdW  Elec       q    Type
REMARK                         _______ _______ _______ _____ _____    ______ ____
ROOT
ATOM      1  C   UNL     1       4.888   3.990  17.803  0.00  0.00    +0.000 C 
ATOM      2  C   UNL     1       3.512   3.438  18.153  0.00  0.00    +0.000 C 
ATOM      3  C   UNL     1       2.684   4.660  18.441  0.00  0.00    +0.000 C 
ATOM      4  O   UNL     1       1.470   4.650  18.577  0.00  0.00    +0.000 OA
ATOM      5  N   UNL     1       3.531   5.743  18.611  0.00  0.00    +0.000 N 
ATOM      6  C   UNL     1       4.920   5.383  18.434  0.00  0.00    +0.000 C 
ENDROOT
BRANCH   5   7
ATOM      7  C   UNL     1       3.090   7.071  19.052  0.00  0.00    +0.000 C 
ATOM      8  C   UNL     1       2.379   7.881  17.939  0.00  0.00    +0.000 C 
ATOM      9  C   UNL     1       1.492   8.790  18.726  0.00  0.00    +0.000 A 
ATOM     10  C   UNL     1       0.825   9.913  18.266  0.00  0.00    +0.000 A 
ATOM     11  C   UNL     1       0.001  10.596  19.160  0.00  0.00    +0.000 A 
ATOM     12  C   UNL     1      -0.152  10.146  20.479  0.00  0.00    +0.000 A 
ATOM     13  C   UNL     1       0.516   9.004  20.927  0.00  0.00    +0.000 A 
ATOM     14  C   UNL     1       1.343   8.340  20.038  0.00  0.00    +0.000 A 
ATOM     15  C   UNL     1       2.111   7.075  20.259  0.00  0.00    +0.000 C 
ENDBRANCH   5   7
BRANCH   1  18
ATOM     16  O   UNL     1       7.362   4.417  16.672  0.00  0.00    +0.000 OA
ATOM     17  C   UNL     1       6.424   4.246  15.897  0.00  0.00    +0.000 C 
ATOM     18  N   UNL     1       5.142   4.007  16.365  0.00  0.00    +0.000 N 
ATOM     19  H   UNL     1       4.366   3.958  15.718  0.00  0.00    +0.000 HD
BRANCH  17  20
ATOM     20  C   UNL     1       6.621   4.284  14.449  0.00  0.00    +0.000 A 
ATOM     21  C   UNL     1       5.920   3.410  13.541  0.00  0.00    +0.000 A 
ATOM     22  C   UNL     1       6.277   3.592  12.224  0.00  0.00    +0.000 A 
ATOM     23  S   UNL     1       7.439   4.829  12.051  0.00  0.00    +0.000 S 
ATOM     24  C   UNL     1       7.473   5.113  13.742  0.00  0.00    +0.000 A 
ENDBRANCH  17  20
ENDBRANCH   1  18
TORSDOF 3
ENDMDL
