MODEL 1
REMARK VINA RESULT:      -6.6      0.000      0.000
REMARK  Name = 
REMARK  6 active torsions:
REMARK  status: ('A' for Active; 'I' for Inactive)
REMARK    1  A    between atoms: C_1  and  O_2
REMARK    2  A    between atoms: O_2  and  C_3
REMARK    3  A    between atoms: C_3  and  C_5
REMARK    4  A    between atoms: C_6  and  C_7
REMARK    5  A    between atoms: N_9  and  C_10
REMARK    6  A    between atoms: C_13  and  C_14
REMARK                            x       y       z     vdW  Elec       q    Type
REMARK                         _______ _______ _______ _____ _____    ______ ____
ROOT
ATOM      1  C   UNL     1       4.590   4.169  16.494  0.00  0.00    +0.000 C 
ATOM      2  O   UNL     1       4.034   5.198  16.872  0.00  0.00    +0.000 OA
ATOM      3  N   UNL     1       4.557   2.940  17.123  0.00  0.00    +0.000 N 
ATOM      4  H   UNL     1       5.316   2.294  16.952  0.00  0.00    +0.000 HD
ENDROOT
BRANCH   3   5
ATOM      5  C   UNL     1       3.753   2.717  18.254  0.00  0.00    +0.000 A 
ATOM      6  C   UNL     1       2.388   2.448  18.127  0.00  0.00    +0.000 A 
ATOM      7  C   UNL     1       1.582   2.357  19.260  0.00  0.00    +0.000 A 
ATOM      8  C   UNL     1       2.131   2.558  20.533  0.00  0.00    +0.000 A 
ATOM      9  C   UNL     1       1.246   2.607  21.742  0.00  0.00    +0.000 C 
ATOM     10  C   UNL     1       3.510   2.772  20.653  0.00  0.00    +0.000 A 
ATOM     11  C   UNL     1       4.327   2.816  19.519  0.00  0.00    +0.000 A 
ENDBRANCH   3   5
BRANCH   1  13
ATOM     12  C   UNL     1       6.829   4.498  15.532  0.00  0.00    +0.000 C 
ATOM     13  C   UNL     1       5.532   4.208  15.354  0.00  0.00    +0.000 C 
BRANCH  12  14
ATOM     14  C   UNL     1       7.398   5.003  16.800  0.00  0.00    +0.000 C 
ATOM     15  O   UNL     1       7.509   4.364  17.832  0.00  0.00    +0.000 OA
BRANCH  14  17
ATOM     16  C   UNL     1       6.836   7.191  17.386  0.00  0.00    +0.000 C 
ATOM     17  O   UNL     1       7.677   6.319  16.630  0.00  0.00    +0.000 OA
ENDBRANCH  14  17
ENDBRANCH  12  14
ENDBRANCH   1  13
TORSDOF 4
ENDMDL
MODEL 2
REMARK VINA RESULT:      -6.6      2.252      5.837
REMARK  Name = 
REMARK  6 active torsions:
REMARK  status: ('A' for Active; 'I' for Inactive)
REMARK    1  A    between atoms: C_1  and  O_2
REMARK    2  A    between atoms: O_2  and  C_3
REMARK    3  A    between atoms: C_3  and  C_5
REMARK    4  A    between atoms: C_6  and  C_7
REMARK    5  A    between atoms: N_9  and  C_10
REMARK    6  A    between atoms: C_13  and  C_14
REMARK                            x       y       z     vdW  Elec       q    Type
REMARK                         _______ _______ _______ _____ _____    ______ ____
ROOT
ATOM      1  C   UNL     1       4.243   2.914  18.604  0.00  0.00    +0.000 C 
ATOM      2  O   UNL     1       4.489   3.366  19.719  0.00  0.00    +0.000 OA
ATOM      3  N   UNL     1       4.621   3.462  17.393  0.00  0.00    +0.000 N 
ATOM      4  H   UNL     1       4.073   3.238  16.573  0.00  0.00    +0.000 HD
ENDROOT
BRANCH   3   5
ATOM      5  C   UNL     1       5.459   4.589  17.330  0.00  0.00    +0.000 A 
ATOM      6  C   UNL     1       6.786   4.526  17.760  0.00  0.00    +0.000 A 
ATOM      7  C   UNL     1       7.564   5.682  17.811  0.00  0.00    +0.000 A 
ATOM      8  C   UNL     1       7.012   6.918  17.451  0.00  0.00    +0.000 A 
ATOM      9  C   UNL     1       7.794   8.183  17.641  0.00  0.00    +0.000 C 
ATOM     10  C   UNL     1       5.697   6.962  16.968  0.00  0.00    +0.000 A 
ATOM     11  C   UNL     1       4.933   5.795  16.873  0.00  0.00    +0.000 A 
ENDBRANCH   3   5
BRANCH   1  13
ATOM     12  C   UNL     1       2.011   1.943  18.257  0.00  0.00    +0.000 C 
ATOM     13  C   UNL     1       3.325   1.764  18.453  0.00  0.00    +0.000 C 
BRANCH  12  14
ATOM     14  C   UNL     1       1.326   3.249  18.380  0.00  0.00    +0.000 C 
ATOM     15  O   UNL     1       1.320   4.129  17.537  0.00  0.00    +0.000 OA
BRANCH  14  17
ATOM     16  C   UNL     1       1.230   4.456  20.374  0.00  0.00    +0.000 C 
ATOM     17  O   UNL     1       0.797   3.320  19.626  0.00  0.00    +0.000 OA
ENDBRANCH  14  17
ENDBRANCH  12  14
ENDBRANCH   1  13
TORSDOF 4
ENDMDL
MODEL 3
REMARK VINA RESULT:      -6.5      0.690      1.357
REMARK  Name = 
REMARK  6 active torsions:
REMARK  status: ('A' for Active; 'I' for Inactive)
REMARK    1  A    between atoms: C_1  and  O_2
REMARK    2  A    between atoms: O_2  and  C_3
REMARK    3  A    between atoms: C_3  and  C_5
REMARK    4  A    between atoms: C_6  and  C_7
REMARK    5  A    between atoms: N_9  and  C_10
REMARK    6  A    between atoms: C_13  and  C_14
REMARK                            x       y       z     vdW  Elec       q    Type
REMARK                         _______ _______ _______ _____ _____    ______ ____
ROOT
ATOM      1  C   UNL     1       4.577   4.832  16.344  0.00  0.00    +0.000 C 
ATOM      2  O   UNL     1       4.361   5.931  16.848  0.00  0.00    +0.000 OA
ATOM      3  N   UNL     1       4.283   3.602  16.898  0.00  0.00    +0.000 N 
ATOM      4  H   UNL     1       4.819   2.799  16.595  0.00  0.00    +0.000 HD
ENDROOT
BRANCH   3   5
ATOM      5  C   UNL     1       3.574   3.494  18.107  0.00  0.00    +0.000 A 
ATOM      6  C   UNL     1       4.228   3.187  19.302  0.00  0.00    +0.000 A 
ATOM      7  C   UNL     1       3.495   2.958  20.465  0.00  0.00    +0.000 A 
ATOM      8  C   UNL     1       2.095   3.012  20.438  0.00  0.00    +0.000 A 
ATOM      9  C   UNL     1       1.297   2.624  21.646  0.00  0.00    +0.000 C 
ATOM     10  C   UNL     1       1.452   3.375  19.247  0.00  0.00    +0.000 A 
ATOM     11  C   UNL     1       2.190   3.651  18.093  0.00  0.00    +0.000 A 
ENDBRANCH   3   5
BRANCH   1  13
ATOM     12  C   UNL     1       6.708   4.772  15.118  0.00  0.00    +0.000 C 
ATOM     13  C   UNL     1       5.368   4.728  15.098  0.00  0.00    +0.000 C 
BRANCH  12  14
ATOM     14  C   UNL     1       7.507   5.132  16.309  0.00  0.00    +0.000 C 
ATOM     15  O   UNL     1       7.936   4.348  17.139  0.00  0.00    +0.000 OA
BRANCH  14  17
ATOM     16  C   UNL     1       7.524   7.020  17.680  0.00  0.00    +0.000 C 
ATOM     17  O   UNL     1       7.587   6.484  16.358  0.00  0.00    +0.000 OA
ENDBRANCH  14  17
ENDBRANCH  12  14
ENDBRANCH   1  13
TORSDOF 4
ENDMDL
MODEL 4
REMARK VINA RESULT:      -6.4      0.698      1.082
REMARK  Name = 
REMARK  6 active torsions:
REMARK  status: ('A' for Active; 'I' for Inactive)
REMARK    1  A    between atoms: C_1  and  O_2
REMARK    2  A    between atoms: O_2  and  C_3
REMARK    3  A    between atoms: C_3  and  C_5
REMARK    4  A    between atoms: C_6  and  C_7
REMARK    5  A    between atoms: N_9  and  C_10
REMARK    6  A    between atoms: C_13  and  C_14
REMARK                            x       y       z     vdW  Elec       q    Type
REMARK                         _______ _______ _______ _____ _____    ______ ____
ROOT
ATOM      1  C   UNL     1       4.668   4.389  16.472  0.00  0.00    +0.000 C 
ATOM      2  O   UNL     1       4.106   5.401  16.881  0.00  0.00    +0.000 OA
ATOM      3  N   UNL     1       4.636   3.138  17.057  0.00  0.00    +0.000 N 
ATOM      4  H   UNL     1       5.399   2.501  16.870  0.00  0.00    +0.000 HD
ENDROOT
BRANCH   3   5
ATOM      5  C   UNL     1       3.825   2.873  18.175  0.00  0.00    +0.000 A 
ATOM      6  C   UNL     1       2.466   2.589  18.028  0.00  0.00    +0.000 A 
ATOM      7  C   UNL     1       1.651   2.455  19.150  0.00  0.00    +0.000 A 
ATOM      8  C   UNL     1       2.186   2.628  20.433  0.00  0.00    +0.000 A 
ATOM      9  C   UNL     1       1.290   2.632  21.635  0.00  0.00    +0.000 C 
ATOM     10  C   UNL     1       3.561   2.859  20.572  0.00  0.00    +0.000 A 
ATOM     11  C   UNL     1       4.387   2.945  19.447  0.00  0.00    +0.000 A 
ENDBRANCH   3   5
BRANCH   1  13
ATOM     12  C   UNL     1       6.808   5.072  15.472  0.00  0.00    +0.000 C 
ATOM     13  C   UNL     1       5.618   4.470  15.340  0.00  0.00    +0.000 C 
BRANCH  12  14
ATOM     14  C   UNL     1       7.203   5.877  16.649  0.00  0.00    +0.000 C 
ATOM     15  O   UNL     1       7.108   7.089  16.744  0.00  0.00    +0.000 OA
BRANCH  14  17
ATOM     16  C   UNL     1       7.659   5.479  18.902  0.00  0.00    +0.000 C 
ATOM     17  O   UNL     1       7.772   5.039  17.549  0.00  0.00    +0.000 OA
ENDBRANCH  14  17
ENDBRANCH  12  14
ENDBRANCH   1  13
TORSDOF 4
ENDMDL
MODEL 5
REMARK VINA RESULT:      -6.4      3.008      5.823
REMARK  Name = 
REMARK  6 active torsions:
REMARK  status: ('A' for Active; 'I' for Inactive)
REMARK    1  A    between atoms: C_1  and  O_2
REMARK    2  A    between atoms: O_2  and  C_3
REMARK    3  A    between atoms: C_3  and  C_5
REMARK    4  A    between atoms: C_6  and  C_7
REMARK    5  A    between atoms: N_9  and  C_10
REMARK    6  A    between atoms: C_13  and  C_14
REMARK                            x       y       z     vdW  Elec       q    Type
REMARK                         _______ _______ _______ _____ _____    ______ ____
ROOT
ATOM      1  C   UNL     1       6.734   6.660  16.385  0.00  0.00    +0.000 C 
ATOM      2  O   UNL     1       5.513   6.778  16.331  0.00  0.00    +0.000 OA
ATOM      3  N   UNL     1       7.513   5.823  15.610  0.00  0.00    +0.000 N 
ATOM      4  H   UNL     1       8.411   5.531  15.973  0.00  0.00    +0.000 HD
ENDROOT
BRANCH   3   5
ATOM      5  C   UNL     1       6.958   5.070  14.560  0.00  0.00    +0.000 A 
ATOM      6  C   UNL     1       5.847   4.251  14.769  0.00  0.00    +0.000 A 
ATOM      7  C   UNL     1       5.389   3.415  13.751  0.00  0.00    +0.000 A 
ATOM      8  C   UNL     1       6.055   3.376  12.520  0.00  0.00    +0.000 A 
ATOM      9  C   UNL     1       5.660   2.376  11.475  0.00  0.00    +0.000 C 
ATOM     10  C   UNL     1       7.135   4.241  12.302  0.00  0.00    +0.000 A 
ATOM     11  C   UNL     1       7.564   5.114  13.307  0.00  0.00    +0.000 A 
ENDBRANCH   3   5
BRANCH   1  13
ATOM     12  C   UNL     1       7.952   6.636  18.521  0.00  0.00    +0.000 C 
ATOM     13  C   UNL     1       7.499   7.323  17.463  0.00  0.00    +0.000 C 
BRANCH  12  14
ATOM     14  C   UNL     1       7.570   5.240  18.826  0.00  0.00    +0.000 C 
ATOM     15  O   UNL     1       7.981   4.249  18.247  0.00  0.00    +0.000 OA
BRANCH  14  17
ATOM     16  C   UNL     1       5.314   4.918  19.328  0.00  0.00    +0.000 C 
ATOM     17  O   UNL     1       6.617   5.276  19.789  0.00  0.00    +0.000 OA
ENDBRANCH  14  17
ENDBRANCH  12  14
ENDBRANCH   1  13
TORSDOF 4
ENDMDL
MODEL 6
REMARK VINA RESULT:      -6.4      2.986      5.759
REMARK  Name = 
REMARK  6 active torsions:
REMARK  status: ('A' for Active; 'I' for Inactive)
REMARK    1  A    between atoms: C_1  and  O_2
REMARK    2  A    between atoms: O_2  and  C_3
REMARK    3  A    between atoms: C_3  and  C_5
REMARK    4  A    between atoms: C_6  and  C_7
REMARK    5  A    between atoms: N_9  and  C_10
REMARK    6  A    between atoms: C_13  and  C_14
REMARK                            x       y       z     vdW  Elec       q    Type
REMARK                         _______ _______ _______ _____ _____    ______ ____
ROOT
ATOM      1  C   UNL     1       6.811   6.745  16.398  0.00  0.00    +0.000 C 
ATOM      2  O   UNL     1       5.611   6.945  16.234  0.00  0.00    +0.000 OA
ATOM      3  N   UNL     1       7.579   5.787  15.767  0.00  0.00    +0.000 N 
ATOM      4  H   UNL     1       8.421   5.467  16.226  0.00  0.00    +0.000 HD
ENDROOT
BRANCH   3   5
ATOM      5  C   UNL     1       7.048   4.982  14.743  0.00  0.00    +0.000 A 
ATOM      6  C   UNL     1       7.566   5.029  13.447  0.00  0.00    +0.000 A 
ATOM      7  C   UNL     1       6.948   4.322  12.417  0.00  0.00    +0.000 A 
ATOM      8  C   UNL     1       5.789   3.578  12.671  0.00  0.00    +0.000 A 
ATOM      9  C   UNL     1       5.037   2.936  11.545  0.00  0.00    +0.000 C 
ATOM     10  C   UNL     1       5.309   3.493  13.985  0.00  0.00    +0.000 A 
ATOM     11  C   UNL     1       5.958   4.163  15.026  0.00  0.00    +0.000 A 
ENDBRANCH   3   5
BRANCH   1  13
ATOM     12  C   UNL     1       7.953   6.805  18.576  0.00  0.00    +0.000 C 
ATOM     13  C   UNL     1       7.542   7.450  17.475  0.00  0.00    +0.000 C 
BRANCH  12  14
ATOM     14  C   UNL     1       7.553   5.424  18.924  0.00  0.00    +0.000 C 
ATOM     15  O   UNL     1       8.070   4.406  18.498  0.00  0.00    +0.000 OA
BRANCH  14  17
ATOM     16  C   UNL     1       5.315   4.819  19.194  0.00  0.00    +0.000 C 
ATOM     17  O   UNL     1       6.456   5.502  19.716  0.00  0.00    +0.000 OA
ENDBRANCH  14  17
ENDBRANCH  12  14
ENDBRANCH   1  13
TORSDOF 4
ENDMDL
MODEL 7
REMARK VINA RESULT:      -6.3      0.699      1.641
REMARK  Name = 
REMARK  6 active torsions:
REMARK  status: ('A' for Active; 'I' for Inactive)
REMARK    1  A    between atoms: C_1  and  O_2
REMARK    2  A    between atoms: O_2  and  C_3
REMARK    3  A    between atoms: C_3  and  C_5
REMARK    4  A    between atoms: C_6  and  C_7
REMARK    5  A    between atoms: N_9  and  C_10
REMARK    6  A    between atoms: C_13  and  C_14
REMARK                            x       y       z     vdW  Elec       q    Type
REMARK                         _______ _______ _______ _____ _____    ______ ____
ROOT
ATOM      1  C   UNL     1       4.677   4.289  16.300  0.00  0.00    +0.000 C 
ATOM      2  O   UNL     1       4.293   5.415  16.607  0.00  0.00    +0.000 OA
ATOM      3  N   UNL     1       4.492   3.130  17.028  0.00  0.00    +0.000 N 
ATOM      4  H   UNL     1       5.141   2.368  16.889  0.00  0.00    +0.000 HD
ENDROOT
BRANCH   3   5
ATOM      5  C   UNL     1       3.710   3.117  18.196  0.00  0.00    +0.000 A 
ATOM      6  C   UNL     1       4.302   3.158  19.461  0.00  0.00    +0.000 A 
ATOM      7  C   UNL     1       3.522   3.016  20.607  0.00  0.00    +0.000 A 
ATOM      8  C   UNL     1       2.141   2.807  20.497  0.00  0.00    +0.000 A 
ATOM      9  C   UNL     1       1.319   2.507  21.714  0.00  0.00    +0.000 C 
ATOM     10  C   UNL     1       1.549   2.822  19.227  0.00  0.00    +0.000 A 
ATOM     11  C   UNL     1       2.326   3.014  18.080  0.00  0.00    +0.000 A 
ENDBRANCH   3   5
BRANCH   1  13
ATOM     12  C   UNL     1       6.847   4.500  15.162  0.00  0.00    +0.000 C 
ATOM     13  C   UNL     1       5.568   4.100  15.134  0.00  0.00    +0.000 C 
BRANCH  12  14
ATOM     14  C   UNL     1       7.430   5.335  16.235  0.00  0.00    +0.000 C 
ATOM     15  O   UNL     1       7.550   6.547  16.204  0.00  0.00    +0.000 OA
BRANCH  14  17
ATOM     16  C   UNL     1       7.663   4.978  18.529  0.00  0.00    +0.000 C 
ATOM     17  O   UNL     1       7.887   4.502  17.201  0.00  0.00    +0.000 OA
ENDBRANCH  14  17
ENDBRANCH  12  14
ENDBRANCH   1  13
TORSDOF 4
ENDMDL
MODEL 8
REMARK VINA RESULT:      -6.2      1.606      2.277
REMARK  Name = 
REMARK  6 active torsions:
REMARK  status: ('A' for Active; 'I' for Inactive)
REMARK    1  A    between atoms: C_1  and  O_2
REMARK    2  A    between atoms: O_2  and  C_3
REMARK    3  A    between atoms: C_3  and  C_5
REMARK    4  A    between atoms: C_6  and  C_7
REMARK    5  A    between atoms: N_9  and  C_10
REMARK    6  A    between atoms: C_13  and  C_14
REMARK                            x       y       z     vdW  Elec       q    Type
REMARK                         _______ _______ _______ _____ _____    ______ ____
ROOT
ATOM      1  C   UNL     1       4.895   6.059  17.744  0.00  0.00    +0.000 C 
ATOM      2  O   UNL     1       3.972   5.852  16.960  0.00  0.00    +0.000 OA
ATOM      3  N   UNL     1       4.949   5.673  19.069  0.00  0.00    +0.000 N 
ATOM      4  H   UNL     1       5.544   6.196  19.697  0.00  0.00    +0.000 HD
ENDROOT
BRANCH   3   5
ATOM      5  C   UNL     1       3.945   4.870  19.639  0.00  0.00    +0.000 A 
ATOM      6  C   UNL     1       2.812   5.440  20.225  0.00  0.00    +0.000 A 
ATOM      7  C   UNL     1       1.891   4.638  20.897  0.00  0.00    +0.000 A 
ATOM      8  C   UNL     1       2.108   3.259  21.009  0.00  0.00    +0.000 A 
ATOM      9  C   UNL     1       1.201   2.414  21.853  0.00  0.00    +0.000 C 
ATOM     10  C   UNL     1       3.218   2.690  20.371  0.00  0.00    +0.000 A 
ATOM     11  C   UNL     1       4.116   3.489  19.656  0.00  0.00    +0.000 A 
ENDBRANCH   3   5
BRANCH   1  13
ATOM     12  C   UNL     1       7.202   6.430  16.979  0.00  0.00    +0.000 C 
ATOM     13  C   UNL     1       6.020   6.938  17.354  0.00  0.00    +0.000 C 
BRANCH  12  14
ATOM     14  C   UNL     1       7.571   5.004  17.112  0.00  0.00    +0.000 C 
ATOM     15  O   UNL     1       7.743   4.410  18.162  0.00  0.00    +0.000 OA
BRANCH  14  17
ATOM     16  C   UNL     1       6.583   4.066  15.217  0.00  0.00    +0.000 C 
ATOM     17  O   UNL     1       7.774   4.514  15.864  0.00  0.00    +0.000 OA
ENDBRANCH  14  17
ENDBRANCH  12  14
ENDBRANCH   1  13
TORSDOF 4
ENDMDL
MODEL 9
REMARK VINA RESULT:      -6.2      2.372      5.813
REMARK  Name = 
REMARK  6 active torsions:
REMARK  status: ('A' for Active; 'I' for Inactive)
REMARK    1  A    between atoms: C_1  and  O_2
REMARK    2  A    between atoms: O_2  and  C_3
REMARK    3  A    between atoms: C_3  and  C_5
REMARK    4  A    between atoms: C_6  and  C_7
REMARK    5  A    between atoms: N_9  and  C_10
REMARK    6  A    between atoms: C_13  and  C_14
REMARK                            x       y       z     vdW  Elec       q    Type
REMARK                         _______ _______ _______ _____ _____    ______ ____
ROOT
ATOM      1  C   UNL     1       4.260   3.106  18.941  0.00  0.00    +0.000 C 
ATOM      2  O   UNL     1       4.149   3.850  19.912  0.00  0.00    +0.000 OA
ATOM      3  N   UNL     1       4.942   3.379  17.771  0.00  0.00    +0.000 N 
ATOM      4  H   UNL     1       4.667   2.889  16.931  0.00  0.00    +0.000 HD
ENDROOT
BRANCH   3   5
ATOM      5  C   UNL     1       5.702   4.552  17.624  0.00  0.00    +0.000 A 
ATOM      6  C   UNL     1       7.006   4.634  18.116  0.00  0.00    +0.000 A 
ATOM      7  C   UNL     1       7.698   5.843  18.075  0.00  0.00    +0.000 A 
ATOM      8  C   UNL     1       7.081   6.990  17.561  0.00  0.00    +0.000 A 
ATOM      9  C   UNL     1       7.763   8.323  17.649  0.00  0.00    +0.000 C 
ATOM     10  C   UNL     1       5.793   6.886  17.020  0.00  0.00    +0.000 A 
ATOM     11  C   UNL     1       5.117   5.662  17.017  0.00  0.00    +0.000 A 
ENDBRANCH   3   5
BRANCH   1  13
ATOM     12  C   UNL     1       2.147   1.854  18.803  0.00  0.00    +0.000 C 
ATOM     13  C   UNL     1       3.486   1.847  18.876  0.00  0.00    +0.000 C 
BRANCH  12  14
ATOM     14  C   UNL     1       1.315   3.063  18.990  0.00  0.00    +0.000 C 
ATOM     15  O   UNL     1       0.796   3.412  20.036  0.00  0.00    +0.000 OA
BRANCH  14  17
ATOM     16  C   UNL     1       1.556   5.018  17.739  0.00  0.00    +0.000 C 
ATOM     17  O   UNL     1       1.160   3.646  17.777  0.00  0.00    +0.000 OA
ENDBRANCH  14  17
ENDBRANCH  12  14
ENDBRANCH   1  13
TORSDOF 4
ENDMDL
