MODEL 1
REMARK VINA RESULT:      -8.3      0.000      0.000
REMARK  Name = 
REMARK  2 active torsions:
REMARK  status: ('A' for Active; 'I' for Inactive)
REMARK    1  A    between atoms: C_1  and  C_2
REMARK    2  A    between atoms: C_8  and  C_9
REMARK                            x       y       z     vdW  Elec       q    Type
REMARK                         _______ _______ _______ _____ _____    ______ ____
ROOT
ATOM      1  C   UNL     1       1.864   2.754  21.111  0.00  0.00    +0.000 C 
ATOM      2  C   UNL     1       3.138   3.000  20.398  0.00  0.00    +0.000 A 
ATOM      3  N   UNL     1       4.050   2.027  20.252  0.00  0.00    +0.000 NA
ATOM      4  N   UNL     1       5.070   2.639  19.621  0.00  0.00    +0.000 N 
ATOM      5  C   UNL     1       4.820   3.942  19.284  0.00  0.00    +0.000 A 
ATOM      6  C   UNL     1       3.574   4.204  19.801  0.00  0.00    +0.000 A 
ATOM      7  N   UNL     1       2.869   5.408  19.862  0.00  0.00    +0.000 NA
ATOM      8  C   UNL     1       3.016   6.246  18.873  0.00  0.00    +0.000 C 
ATOM      9  C   UNL     1       3.828   5.964  17.608  0.00  0.00    +0.000 C 
ATOM     10  N   UNL     1       5.234   5.860  17.933  0.00  0.00    +0.000 N 
ATOM     11  C   UNL     1       5.747   4.750  18.560  0.00  0.00    +0.000 C 
ATOM     12  O   UNL     1       6.938   4.477  18.440  0.00  0.00    +0.000 OA
ATOM     13  H   UNL     1       5.912   2.109  19.421  0.00  0.00    +0.000 HD
ATOM     14  H   UNL     1       5.913   6.312  17.334  0.00  0.00    +0.000 HD
ENDROOT
BRANCH   8  15
ATOM     15  C   UNL     1       2.298   7.557  18.963  0.00  0.00    +0.000 A 
ATOM     16  C   UNL     1       2.189   8.412  17.859  0.00  0.00    +0.000 A 
ATOM     17  C   UNL     1       1.492   9.619  17.973  0.00  0.00    +0.000 A 
ATOM     18  C   UNL     1       0.918   9.977  19.192  0.00  0.00    +0.000 A 
ATOM     19 BR   UNL     1      -0.030  11.606  19.336  0.00  0.00    +0.000 Br
ATOM     20  C   UNL     1       1.045   9.148  20.303  0.00  0.00    +0.000 A 
ATOM     21  C   UNL     1       1.737   7.940  20.189  0.00  0.00    +0.000 A 
ENDBRANCH   8  15
TORSDOF 1
ENDMDL
MODEL 2
REMARK VINA RESULT:      -8.3      0.073      1.112
REMARK  Name = 
REMARK  2 active torsions:
REMARK  status: ('A' for Active; 'I' for Inactive)
REMARK    1  A    between atoms: C_1  and  C_2
REMARK    2  A    between atoms: C_8  and  C_9
REMARK                            x       y       z     vdW  Elec       q    Type
REMARK                         _______ _______ _______ _____ _____    ______ ____
ROOT
ATOM      1  C   UNL     1       1.913   2.666  21.028  0.00  0.00    +0.000 C 
ATOM      2  C   UNL     1       3.192   2.952  20.338  0.00  0.00    +0.000 A 
ATOM      3  N   UNL     1       4.120   1.998  20.177  0.00  0.00    +0.000 NA
ATOM      4  N   UNL     1       5.138   2.643  19.575  0.00  0.00    +0.000 N 
ATOM      5  C   UNL     1       4.872   3.950  19.271  0.00  0.00    +0.000 A 
ATOM      6  C   UNL     1       3.616   4.178  19.780  0.00  0.00    +0.000 A 
ATOM      7  N   UNL     1       2.891   5.370  19.865  0.00  0.00    +0.000 NA
ATOM      8  C   UNL     1       3.036   6.236  18.901  0.00  0.00    +0.000 C 
ATOM      9  C   UNL     1       3.867   6.002  17.638  0.00  0.00    +0.000 C 
ATOM     10  N   UNL     1       5.271   5.911  17.978  0.00  0.00    +0.000 N 
ATOM     11  C   UNL     1       5.794   4.792  18.580  0.00  0.00    +0.000 C 
ATOM     12  O   UNL     1       6.990   4.541  18.467  0.00  0.00    +0.000 OA
ATOM     13  H   UNL     1       5.990   2.131  19.371  0.00  0.00    +0.000 HD
ATOM     14  H   UNL     1       5.949   6.389  17.399  0.00  0.00    +0.000 HD
ENDROOT
BRANCH   8  15
ATOM     15  C   UNL     1       2.296   7.533  19.018  0.00  0.00    +0.000 A 
ATOM     16  C   UNL     1       1.706   7.936  20.221  0.00  0.00    +0.000 A 
ATOM     17  C   UNL     1       1.042   9.165  20.300  0.00  0.00    +0.000 A 
ATOM     18  C   UNL     1       0.955   9.981  19.173  0.00  0.00    +0.000 A 
ATOM     19 BR   UNL     1       0.063  11.643  19.288  0.00  0.00    +0.000 Br
ATOM     20  C   UNL     1       1.514   9.577  17.963  0.00  0.00    +0.000 A 
ATOM     21  C   UNL     1       2.182   8.352  17.885  0.00  0.00    +0.000 A 
ENDBRANCH   8  15
TORSDOF 1
ENDMDL
MODEL 3
REMARK VINA RESULT:      -8.0      1.052      1.052
REMARK  Name = 
REMARK  2 active torsions:
REMARK  status: ('A' for Active; 'I' for Inactive)
REMARK    1  A    between atoms: C_1  and  C_2
REMARK    2  A    between atoms: C_8  and  C_9
REMARK                            x       y       z     vdW  Elec       q    Type
REMARK                         _______ _______ _______ _____ _____    ______ ____
ROOT
ATOM      1  C   UNL     1       0.972   2.453  18.716  0.00  0.00    +0.000 C 
ATOM      2  C   UNL     1       2.421   2.738  18.607  0.00  0.00    +0.000 A 
ATOM      3  N   UNL     1       3.309   1.751  18.418  0.00  0.00    +0.000 NA
ATOM      4  N   UNL     1       4.497   2.385  18.433  0.00  0.00    +0.000 N 
ATOM      5  C   UNL     1       4.405   3.746  18.544  0.00  0.00    +0.000 A 
ATOM      6  C   UNL     1       3.061   3.995  18.681  0.00  0.00    +0.000 A 
ATOM      7  N   UNL     1       2.400   5.196  18.951  0.00  0.00    +0.000 NA
ATOM      8  C   UNL     1       2.905   6.290  18.453  0.00  0.00    +0.000 C 
ATOM      9  C   UNL     1       4.114   6.343  17.516  0.00  0.00    +0.000 C 
ATOM     10  N   UNL     1       5.307   5.927  18.221  0.00  0.00    +0.000 N 
ATOM     11  C   UNL     1       5.543   4.607  18.520  0.00  0.00    +0.000 C 
ATOM     12  O   UNL     1       6.693   4.220  18.705  0.00  0.00    +0.000 OA
ATOM     13  H   UNL     1       5.346   1.837  18.339  0.00  0.00    +0.000 HD
ATOM     14  H   UNL     1       6.162   6.452  18.092  0.00  0.00    +0.000 HD
ENDROOT
BRANCH   8  15
ATOM     15  C   UNL     1       2.223   7.582  18.783  0.00  0.00    +0.000 A 
ATOM     16  C   UNL     1       2.033   8.579  17.819  0.00  0.00    +0.000 A 
ATOM     17  C   UNL     1       1.372   9.765  18.157  0.00  0.00    +0.000 A 
ATOM     18  C   UNL     1       0.916   9.958  19.460  0.00  0.00    +0.000 A 
ATOM     19 BR   UNL     1       0.016  11.559  19.908  0.00  0.00    +0.000 Br
ATOM     20  C   UNL     1       1.125   8.985  20.434  0.00  0.00    +0.000 A 
ATOM     21  C   UNL     1       1.781   7.798  20.096  0.00  0.00    +0.000 A 
ENDBRANCH   8  15
TORSDOF 1
ENDMDL
MODEL 4
REMARK VINA RESULT:      -8.0      1.027      1.510
REMARK  Name = 
REMARK  2 active torsions:
REMARK  status: ('A' for Active; 'I' for Inactive)
REMARK    1  A    between atoms: C_1  and  C_2
REMARK    2  A    between atoms: C_8  and  C_9
REMARK                            x       y       z     vdW  Elec       q    Type
REMARK                         _______ _______ _______ _____ _____    ______ ____
ROOT
ATOM      1  C   UNL     1       0.948   2.463  18.767  0.00  0.00    +0.000 C 
ATOM      2  C   UNL     1       2.398   2.742  18.659  0.00  0.00    +0.000 A 
ATOM      3  N   UNL     1       3.282   1.751  18.468  0.00  0.00    +0.000 NA
ATOM      4  N   UNL     1       4.472   2.379  18.485  0.00  0.00    +0.000 N 
ATOM      5  C   UNL     1       4.387   3.740  18.598  0.00  0.00    +0.000 A 
ATOM      6  C   UNL     1       3.044   3.996  18.735  0.00  0.00    +0.000 A 
ATOM      7  N   UNL     1       2.388   5.199  19.007  0.00  0.00    +0.000 NA
ATOM      8  C   UNL     1       2.899   6.292  18.511  0.00  0.00    +0.000 C 
ATOM      9  C   UNL     1       4.108   6.340  17.574  0.00  0.00    +0.000 C 
ATOM     10  N   UNL     1       5.299   5.918  18.280  0.00  0.00    +0.000 N 
ATOM     11  C   UNL     1       5.529   4.596  18.576  0.00  0.00    +0.000 C 
ATOM     12  O   UNL     1       6.677   4.203  18.761  0.00  0.00    +0.000 OA
ATOM     13  H   UNL     1       5.319   1.828  18.390  0.00  0.00    +0.000 HD
ATOM     14  H   UNL     1       6.157   6.439  18.152  0.00  0.00    +0.000 HD
ENDROOT
BRANCH   8  15
ATOM     15  C   UNL     1       2.223   7.586  18.843  0.00  0.00    +0.000 A 
ATOM     16  C   UNL     1       1.708   7.839  20.120  0.00  0.00    +0.000 A 
ATOM     17  C   UNL     1       1.102   9.069  20.401  0.00  0.00    +0.000 A 
ATOM     18  C   UNL     1       0.999  10.036  19.403  0.00  0.00    +0.000 A 
ATOM     19 BR   UNL     1       0.188  11.698  19.792  0.00  0.00    +0.000 Br
ATOM     20  C   UNL     1       1.483   9.784  18.122  0.00  0.00    +0.000 A 
ATOM     21  C   UNL     1       2.092   8.559  17.841  0.00  0.00    +0.000 A 
ENDBRANCH   8  15
TORSDOF 1
ENDMDL
MODEL 5
REMARK VINA RESULT:      -7.6      1.780      3.347
REMARK  Name = 
REMARK  2 active torsions:
REMARK  status: ('A' for Active; 'I' for Inactive)
REMARK    1  A    between atoms: C_1  and  C_2
REMARK    2  A    between atoms: C_8  and  C_9
REMARK                            x       y       z     vdW  Elec       q    Type
REMARK                         _______ _______ _______ _____ _____    ______ ____
ROOT
ATOM      1  C   UNL     1       7.498   7.284  17.365  0.00  0.00    +0.000 C 
ATOM      2  C   UNL     1       6.773   5.993  17.414  0.00  0.00    +0.000 A 
ATOM      3  N   UNL     1       7.401   4.835  17.165  0.00  0.00    +0.000 NA
ATOM      4  N   UNL     1       6.419   3.917  17.244  0.00  0.00    +0.000 N 
ATOM      5  C   UNL     1       5.204   4.426  17.611  0.00  0.00    +0.000 A 
ATOM      6  C   UNL     1       5.407   5.781  17.706  0.00  0.00    +0.000 A 
ATOM      7  N   UNL     1       4.485   6.808  17.929  0.00  0.00    +0.000 NA
ATOM      8  C   UNL     1       3.475   6.554  18.714  0.00  0.00    +0.000 C 
ATOM      9  C   UNL     1       3.278   5.246  19.483  0.00  0.00    +0.000 C 
ATOM     10  N   UNL     1       3.034   4.159  18.560  0.00  0.00    +0.000 N 
ATOM     11  C   UNL     1       4.047   3.613  17.808  0.00  0.00    +0.000 C 
ATOM     12  O   UNL     1       3.943   2.466  17.385  0.00  0.00    +0.000 OA
ATOM     13  H   UNL     1       6.642   2.944  17.059  0.00  0.00    +0.000 HD
ATOM     14  H   UNL     1       2.307   3.489  18.770  0.00  0.00    +0.000 HD
ENDROOT
BRANCH   8  15
ATOM     15  C   UNL     1       2.462   7.639  18.913  0.00  0.00    +0.000 A 
ATOM     16  C   UNL     1       1.855   7.858  20.156  0.00  0.00    +0.000 A 
ATOM     17  C   UNL     1       0.930   8.895  20.312  0.00  0.00    +0.000 A 
ATOM     18  C   UNL     1       0.601   9.701  19.223  0.00  0.00    +0.000 A 
ATOM     19 BR   UNL     1      -0.644  11.106  19.443  0.00  0.00    +0.000 Br
ATOM     20  C   UNL     1       1.177   9.475  17.976  0.00  0.00    +0.000 A 
ATOM     21  C   UNL     1       2.106   8.442  17.821  0.00  0.00    +0.000 A 
ENDBRANCH   8  15
TORSDOF 1
ENDMDL
MODEL 6
REMARK VINA RESULT:      -7.6      1.806      3.177
REMARK  Name = 
REMARK  2 active torsions:
REMARK  status: ('A' for Active; 'I' for Inactive)
REMARK    1  A    between atoms: C_1  and  C_2
REMARK    2  A    between atoms: C_8  and  C_9
REMARK                            x       y       z     vdW  Elec       q    Type
REMARK                         _______ _______ _______ _____ _____    ______ ____
ROOT
ATOM      1  C   UNL     1       7.502   7.359  17.374  0.00  0.00    +0.000 C 
ATOM      2  C   UNL     1       6.783   6.065  17.418  0.00  0.00    +0.000 A 
ATOM      3  N   UNL     1       7.420   4.909  17.181  0.00  0.00    +0.000 NA
ATOM      4  N   UNL     1       6.442   3.987  17.250  0.00  0.00    +0.000 N 
ATOM      5  C   UNL     1       5.220   4.491  17.602  0.00  0.00    +0.000 A 
ATOM      6  C   UNL     1       5.415   5.847  17.695  0.00  0.00    +0.000 A 
ATOM      7  N   UNL     1       4.486   6.870  17.904  0.00  0.00    +0.000 NA
ATOM      8  C   UNL     1       3.468   6.614  18.677  0.00  0.00    +0.000 C 
ATOM      9  C   UNL     1       3.268   5.307  19.448  0.00  0.00    +0.000 C 
ATOM     10  N   UNL     1       3.041   4.216  18.525  0.00  0.00    +0.000 N 
ATOM     11  C   UNL     1       4.065   3.673  17.788  0.00  0.00    +0.000 C 
ATOM     12  O   UNL     1       3.971   2.524  17.367  0.00  0.00    +0.000 OA
ATOM     13  H   UNL     1       6.672   3.015  17.071  0.00  0.00    +0.000 HD
ATOM     14  H   UNL     1       2.314   3.543  18.730  0.00  0.00    +0.000 HD
ENDROOT
BRANCH   8  15
ATOM     15  C   UNL     1       2.447   7.694  18.861  0.00  0.00    +0.000 A 
ATOM     16  C   UNL     1       2.065   8.531  17.806  0.00  0.00    +0.000 A 
ATOM     17  C   UNL     1       1.092   9.516  18.009  0.00  0.00    +0.000 A 
ATOM     18  C   UNL     1       0.515   9.673  19.268  0.00  0.00    +0.000 A 
ATOM     19 BR   UNL     1      -0.805  10.999  19.533  0.00  0.00    +0.000 Br
ATOM     20  C   UNL     1       0.908   8.865  20.331  0.00  0.00    +0.000 A 
ATOM     21  C   UNL     1       1.876   7.878  20.129  0.00  0.00    +0.000 A 
ENDBRANCH   8  15
TORSDOF 1
ENDMDL
MODEL 7
REMARK VINA RESULT:      -7.3      1.821      3.241
REMARK  Name = 
REMARK  2 active torsions:
REMARK  status: ('A' for Active; 'I' for Inactive)
REMARK    1  A    between atoms: C_1  and  C_2
REMARK    2  A    between atoms: C_8  and  C_9
REMARK                            x       y       z     vdW  Elec       q    Type
REMARK                         _______ _______ _______ _____ _____    ______ ____
ROOT
ATOM      1  C   UNL     1       5.609   5.946  15.375  0.00  0.00    +0.000 C 
ATOM      2  C   UNL     1       5.114   4.878  16.275  0.00  0.00    +0.000 A 
ATOM      3  N   UNL     1       5.578   3.623  16.182  0.00  0.00    +0.000 NA
ATOM      4  N   UNL     1       4.861   2.951  17.102  0.00  0.00    +0.000 N 
ATOM      5  C   UNL     1       4.015   3.735  17.837  0.00  0.00    +0.000 A 
ATOM      6  C   UNL     1       4.148   4.992  17.299  0.00  0.00    +0.000 A 
ATOM      7  N   UNL     1       3.435   6.161  17.577  0.00  0.00    +0.000 NA
ATOM      8  C   UNL     1       3.038   6.351  18.804  0.00  0.00    +0.000 C 
ATOM      9  C   UNL     1       3.380   5.435  19.981  0.00  0.00    +0.000 C 
ATOM     10  N   UNL     1       2.742   4.147  19.809  0.00  0.00    +0.000 N 
ATOM     11  C   UNL     1       3.211   3.228  18.902  0.00  0.00    +0.000 C 
ATOM     12  O   UNL     1       2.967   2.035  19.060  0.00  0.00    +0.000 OA
ATOM     13  H   UNL     1       5.009   1.952  17.204  0.00  0.00    +0.000 HD
ATOM     14  H   UNL     1       2.294   3.710  20.604  0.00  0.00    +0.000 HD
ENDROOT
BRANCH   8  15
ATOM     15  C   UNL     1       2.232   7.580  19.090  0.00  0.00    +0.000 A 
ATOM     16  C   UNL     1       1.698   7.830  20.360  0.00  0.00    +0.000 A 
ATOM     17  C   UNL     1       0.969   8.999  20.598  0.00  0.00    +0.000 A 
ATOM     18  C   UNL     1       0.761   9.910  19.563  0.00  0.00    +0.000 A 
ATOM     19 BR   UNL     1      -0.218  11.492  19.892  0.00  0.00    +0.000 Br
ATOM     20  C   UNL     1       1.263   9.658  18.289  0.00  0.00    +0.000 A 
ATOM     21  C   UNL     1       1.996   8.493  18.052  0.00  0.00    +0.000 A 
ENDBRANCH   8  15
TORSDOF 1
ENDMDL
MODEL 8
REMARK VINA RESULT:      -7.3      1.847      3.057
REMARK  Name = 
REMARK  2 active torsions:
REMARK  status: ('A' for Active; 'I' for Inactive)
REMARK    1  A    between atoms: C_1  and  C_2
REMARK    2  A    between atoms: C_8  and  C_9
REMARK                            x       y       z     vdW  Elec       q    Type
REMARK                         _______ _______ _______ _____ _____    ______ ____
ROOT
ATOM      1  C   UNL     1       5.686   5.966  15.549  0.00  0.00    +0.000 C 
ATOM      2  C   UNL     1       5.103   4.896  16.391  0.00  0.00    +0.000 A 
ATOM      3  N   UNL     1       5.525   3.627  16.289  0.00  0.00    +0.000 NA
ATOM      4  N   UNL     1       4.734   2.959  17.151  0.00  0.00    +0.000 N 
ATOM      5  C   UNL     1       3.878   3.756  17.860  0.00  0.00    +0.000 A 
ATOM      6  C   UNL     1       4.087   5.021  17.364  0.00  0.00    +0.000 A 
ATOM      7  N   UNL     1       3.403   6.209  17.635  0.00  0.00    +0.000 NA
ATOM      8  C   UNL     1       2.946   6.383  18.843  0.00  0.00    +0.000 C 
ATOM      9  C   UNL     1       3.188   5.424  20.011  0.00  0.00    +0.000 C 
ATOM     10  N   UNL     1       2.514   4.167  19.769  0.00  0.00    +0.000 N 
ATOM     11  C   UNL     1       2.998   3.253  18.864  0.00  0.00    +0.000 C 
ATOM     12  O   UNL     1       2.702   2.067  18.977  0.00  0.00    +0.000 OA
ATOM     13  H   UNL     1       4.839   1.953  17.233  0.00  0.00    +0.000 HD
ATOM     14  H   UNL     1       2.006   3.728  20.526  0.00  0.00    +0.000 HD
ENDROOT
BRANCH   8  15
ATOM     15  C   UNL     1       2.171   7.634  19.119  0.00  0.00    +0.000 A 
ATOM     16  C   UNL     1       1.937   8.588  18.121  0.00  0.00    +0.000 A 
ATOM     17  C   UNL     1       1.190   9.735  18.408  0.00  0.00    +0.000 A 
ATOM     18  C   UNL     1       0.691   9.935  19.694  0.00  0.00    +0.000 A 
ATOM     19 BR   UNL     1      -0.325  11.483  20.073  0.00  0.00    +0.000 Br
ATOM     20  C   UNL     1       0.942   9.007  20.701  0.00  0.00    +0.000 A 
ATOM     21  C   UNL     1       1.684   7.858  20.414  0.00  0.00    +0.000 A 
ENDBRANCH   8  15
TORSDOF 1
ENDMDL
MODEL 9
REMARK VINA RESULT:      -7.2      1.586      2.802
REMARK  Name = 
REMARK  2 active torsions:
REMARK  status: ('A' for Active; 'I' for Inactive)
REMARK    1  A    between atoms: C_1  and  C_2
REMARK    2  A    between atoms: C_8  and  C_9
REMARK                            x       y       z     vdW  Elec       q    Type
REMARK                         _______ _______ _______ _____ _____    ______ ____
ROOT
ATOM      1  C   UNL     1       6.965   6.387  18.106  0.00  0.00    +0.000 C 
ATOM      2  C   UNL     1       6.049   5.272  18.439  0.00  0.00    +0.000 A 
ATOM      3  N   UNL     1       6.494   4.010  18.520  0.00  0.00    +0.000 NA
ATOM      4  N   UNL     1       5.381   3.296  18.775  0.00  0.00    +0.000 N 
ATOM      5  C   UNL     1       4.255   4.054  18.941  0.00  0.00    +0.000 A 
ATOM      6  C   UNL     1       4.663   5.344  18.704  0.00  0.00    +0.000 A 
ATOM      7  N   UNL     1       3.908   6.517  18.616  0.00  0.00    +0.000 NA
ATOM      8  C   UNL     1       2.861   6.622  19.386  0.00  0.00    +0.000 C 
ATOM      9  C   UNL     1       2.455   5.597  20.447  0.00  0.00    +0.000 C 
ATOM     10  N   UNL     1       2.058   4.358  19.813  0.00  0.00    +0.000 N 
ATOM     11  C   UNL     1       2.984   3.497  19.275  0.00  0.00    +0.000 C 
ATOM     12  O   UNL     1       2.708   2.307  19.148  0.00  0.00    +0.000 OA
ATOM     13  H   UNL     1       5.453   2.287  18.852  0.00  0.00    +0.000 HD
ATOM     14  H   UNL     1       1.233   3.878  20.147  0.00  0.00    +0.000 HD
ENDROOT
BRANCH   8  15
ATOM     15  C   UNL     1       2.026   7.858  19.255  0.00  0.00    +0.000 A 
ATOM     16  C   UNL     1       1.896   8.531  18.035  0.00  0.00    +0.000 A 
ATOM     17  C   UNL     1       1.089   9.671  17.944  0.00  0.00    +0.000 A 
ATOM     18  C   UNL     1       0.427  10.144  19.076  0.00  0.00    +0.000 A 
ATOM     19 BR   UNL     1      -0.668  11.678  18.945  0.00  0.00    +0.000 Br
ATOM     20  C   UNL     1       0.572   9.499  20.301  0.00  0.00    +0.000 A 
ATOM     21  C   UNL     1       1.373   8.358  20.391  0.00  0.00    +0.000 A 
ENDBRANCH   8  15
TORSDOF 1
ENDMDL
