MODEL 1
REMARK VINA RESULT:      -6.0      0.000      0.000
REMARK  Name = 
REMARK  5 active torsions:
REMARK  status: ('A' for Active; 'I' for Inactive)
REMARK    1  A    between atoms: C_1  and  N_2
REMARK    2  A    between atoms: N_2  and  C_3
REMARK    3  A    between atoms: N_2  and  C_4
REMARK    4  A    between atoms: C_4  and  C_5
REMARK    5  A    between atoms: N_7  and  C_8
REMARK                            x       y       z     vdW  Elec       q    Type
REMARK                         _______ _______ _______ _____ _____    ______ ____
ROOT
ATOM      1  C   UNL     1       4.054   4.586  17.221  0.00  0.00    +0.000 A 
ATOM      2  C   UNL     1       3.922   5.893  17.656  0.00  0.00    +0.000 A 
ATOM      3  N   UNL     1       2.897   5.949  18.560  0.00  0.00    +0.000 N 
ATOM      4  C   UNL     1       2.452   7.151  19.227  0.00  0.00    +0.000 C 
ATOM      5  C   UNL     1       2.345   4.698  18.737  0.00  0.00    +0.000 A 
ATOM      6  C   UNL     1       1.294   4.263  19.559  0.00  0.00    +0.000 A 
ATOM      7  C   UNL     1       0.946   2.909  19.521  0.00  0.00    +0.000 A 
ATOM      8  C   UNL     1       1.624   2.020  18.696  0.00  0.00    +0.000 A 
ATOM      9  C   UNL     1       2.674   2.464  17.885  0.00  0.00    +0.000 A 
ATOM     10  C   UNL     1       3.046   3.824  17.901  0.00  0.00    +0.000 A 
ENDROOT
BRANCH   1  11
ATOM     11  C   UNL     1       5.055   4.062  16.234  0.00  0.00    +0.000 C 
BRANCH  11  13
ATOM     12  C   UNL     1       7.261   4.535  17.148  0.00  0.00    +0.000 C 
ATOM     13  N   UNL     1       6.247   4.929  16.166  0.00  0.00    +0.000 NA
ATOM     14  C   UNL     1       6.819   4.868  14.819  0.00  0.00    +0.000 C 
ENDBRANCH  11  13
ENDBRANCH   1  11
TORSDOF 2
ENDMDL
MODEL 2
REMARK VINA RESULT:      -5.8      1.293      1.312
REMARK  Name = 
REMARK  5 active torsions:
REMARK  status: ('A' for Active; 'I' for Inactive)
REMARK    1  A    between atoms: C_1  and  N_2
REMARK    2  A    between atoms: N_2  and  C_3
REMARK    3  A    between atoms: N_2  and  C_4
REMARK    4  A    between atoms: C_4  and  C_5
REMARK    5  A    between atoms: N_7  and  C_8
REMARK                            x       y       z     vdW  Elec       q    Type
REMARK                         _______ _______ _______ _____ _____    ______ ____
ROOT
ATOM      1  C   UNL     1       4.269   4.837  17.843  0.00  0.00    +0.000 A 
ATOM      2  C   UNL     1       3.845   6.148  17.710  0.00  0.00    +0.000 A 
ATOM      3  N   UNL     1       2.965   6.424  18.719  0.00  0.00    +0.000 N 
ATOM      4  C   UNL     1       2.300   7.694  18.906  0.00  0.00    +0.000 C 
ATOM      5  C   UNL     1       2.796   5.318  19.525  0.00  0.00    +0.000 A 
ATOM      6  C   UNL     1       2.010   5.126  20.673  0.00  0.00    +0.000 A 
ATOM      7  C   UNL     1       2.038   3.869  21.285  0.00  0.00    +0.000 A 
ATOM      8  C   UNL     1       2.821   2.842  20.774  0.00  0.00    +0.000 A 
ATOM      9  C   UNL     1       3.604   3.046  19.632  0.00  0.00    +0.000 A 
ATOM     10  C   UNL     1       3.595   4.303  18.992  0.00  0.00    +0.000 A 
ENDROOT
BRANCH   1  11
ATOM     11  C   UNL     1       5.243   4.111  16.963  0.00  0.00    +0.000 C 
BRANCH  11  13
ATOM     12  C   UNL     1       7.517   4.647  17.648  0.00  0.00    +0.000 C 
ATOM     13  N   UNL     1       6.439   4.931  16.695  0.00  0.00    +0.000 NA
ATOM     14  C   UNL     1       6.912   4.677  15.332  0.00  0.00    +0.000 C 
ENDBRANCH  11  13
ENDBRANCH   1  11
TORSDOF 2
ENDMDL
MODEL 3
REMARK VINA RESULT:      -5.7      1.774      4.979
REMARK  Name = 
REMARK  5 active torsions:
REMARK  status: ('A' for Active; 'I' for Inactive)
REMARK    1  A    between atoms: C_1  and  N_2
REMARK    2  A    between atoms: N_2  and  C_3
REMARK    3  A    between atoms: N_2  and  C_4
REMARK    4  A    between atoms: C_4  and  C_5
REMARK    5  A    between atoms: N_7  and  C_8
REMARK                            x       y       z     vdW  Elec       q    Type
REMARK                         _______ _______ _______ _____ _____    ______ ____
ROOT
ATOM      1  C   UNL     1       4.511   4.438  18.359  0.00  0.00    +0.000 A 
ATOM      2  C   UNL     1       5.416   4.933  19.282  0.00  0.00    +0.000 A 
ATOM      3  N   UNL     1       6.574   5.252  18.629  0.00  0.00    +0.000 N 
ATOM      4  C   UNL     1       7.756   5.788  19.264  0.00  0.00    +0.000 C 
ATOM      5  C   UNL     1       6.455   4.980  17.283  0.00  0.00    +0.000 A 
ATOM      6  C   UNL     1       7.364   5.149  16.225  0.00  0.00    +0.000 A 
ATOM      7  C   UNL     1       6.956   4.771  14.942  0.00  0.00    +0.000 A 
ATOM      8  C   UNL     1       5.689   4.247  14.720  0.00  0.00    +0.000 A 
ATOM      9  C   UNL     1       4.790   4.089  15.780  0.00  0.00    +0.000 A 
ATOM     10  C   UNL     1       5.173   4.459  17.086  0.00  0.00    +0.000 A 
ENDROOT
BRANCH   1  11
ATOM     11  C   UNL     1       3.111   3.974  18.629  0.00  0.00    +0.000 C 
BRANCH  11  13
ATOM     12  C   UNL     1       1.802   2.472  20.029  0.00  0.00    +0.000 C 
ATOM     13  N   UNL     1       3.101   2.711  19.391  0.00  0.00    +0.000 NA
ATOM     14  C   UNL     1       3.417   1.596  18.495  0.00  0.00    +0.000 C 
ENDBRANCH  11  13
ENDBRANCH   1  11
TORSDOF 2
ENDMDL
MODEL 4
REMARK VINA RESULT:      -5.7      0.788      1.169
REMARK  Name = 
REMARK  5 active torsions:
REMARK  status: ('A' for Active; 'I' for Inactive)
REMARK    1  A    between atoms: C_1  and  N_2
REMARK    2  A    between atoms: N_2  and  C_3
REMARK    3  A    between atoms: N_2  and  C_4
REMARK    4  A    between atoms: C_4  and  C_5
REMARK    5  A    between atoms: N_7  and  C_8
REMARK                            x       y       z     vdW  Elec       q    Type
REMARK                         _______ _______ _______ _____ _____    ______ ____
ROOT
ATOM      1  C   UNL     1       3.969   5.543  17.386  0.00  0.00    +0.000 A 
ATOM      2  C   UNL     1       3.661   6.628  18.188  0.00  0.00    +0.000 A 
ATOM      3  N   UNL     1       2.686   6.254  19.070  0.00  0.00    +0.000 N 
ATOM      4  C   UNL     1       2.097   7.123  20.063  0.00  0.00    +0.000 C 
ATOM      5  C   UNL     1       2.339   4.934  18.871  0.00  0.00    +0.000 A 
ATOM      6  C   UNL     1       1.407   4.117  19.530  0.00  0.00    +0.000 A 
ATOM      7  C   UNL     1       1.268   2.795  19.094  0.00  0.00    +0.000 A 
ATOM      8  C   UNL     1       2.031   2.306  18.042  0.00  0.00    +0.000 A 
ATOM      9  C   UNL     1       2.961   3.127  17.396  0.00  0.00    +0.000 A 
ATOM     10  C   UNL     1       3.123   4.465  17.812  0.00  0.00    +0.000 A 
ENDROOT
BRANCH   1  11
ATOM     11  C   UNL     1       4.989   5.495  16.286  0.00  0.00    +0.000 C 
BRANCH  11  13
ATOM     12  C   UNL     1       6.249   3.759  15.137  0.00  0.00    +0.000 C 
ATOM     13  N   UNL     1       5.886   4.334  16.436  0.00  0.00    +0.000 NA
ATOM     14  C   UNL     1       7.099   4.742  17.147  0.00  0.00    +0.000 C 
ENDBRANCH  11  13
ENDBRANCH   1  11
TORSDOF 2
ENDMDL
MODEL 5
REMARK VINA RESULT:      -5.7      1.182      2.891
REMARK  Name = 
REMARK  5 active torsions:
REMARK  status: ('A' for Active; 'I' for Inactive)
REMARK    1  A    between atoms: C_1  and  N_2
REMARK    2  A    between atoms: N_2  and  C_3
REMARK    3  A    between atoms: N_2  and  C_4
REMARK    4  A    between atoms: C_4  and  C_5
REMARK    5  A    between atoms: N_7  and  C_8
REMARK                            x       y       z     vdW  Elec       q    Type
REMARK                         _______ _______ _______ _____ _____    ______ ____
ROOT
ATOM      1  C   UNL     1       4.007   4.501  17.410  0.00  0.00    +0.000 A 
ATOM      2  C   UNL     1       3.676   3.169  17.588  0.00  0.00    +0.000 A 
ATOM      3  N   UNL     1       2.788   3.076  18.624  0.00  0.00    +0.000 N 
ATOM      4  C   UNL     1       2.220   1.841  19.113  0.00  0.00    +0.000 C 
ATOM      5  C   UNL     1       2.519   4.327  19.138  0.00  0.00    +0.000 A 
ATOM      6  C   UNL     1       1.675   4.731  20.185  0.00  0.00    +0.000 A 
ATOM      7  C   UNL     1       1.611   6.094  20.489  0.00  0.00    +0.000 A 
ATOM      8  C   UNL     1       2.359   7.022  19.775  0.00  0.00    +0.000 A 
ATOM      9  C   UNL     1       3.193   6.609  18.730  0.00  0.00    +0.000 A 
ATOM     10  C   UNL     1       3.279   5.240  18.401  0.00  0.00    +0.000 A 
ENDROOT
BRANCH   1  11
ATOM     11  C   UNL     1       4.941   5.068  16.382  0.00  0.00    +0.000 C 
BRANCH  11  13
ATOM     12  C   UNL     1       6.434   4.125  14.706  0.00  0.00    +0.000 C 
ATOM     13  N   UNL     1       6.075   4.160  16.127  0.00  0.00    +0.000 NA
ATOM     14  C   UNL     1       7.233   4.590  16.914  0.00  0.00    +0.000 C 
ENDBRANCH  11  13
ENDBRANCH   1  11
TORSDOF 2
ENDMDL
MODEL 6
REMARK VINA RESULT:      -5.7      1.665      4.737
REMARK  Name = 
REMARK  5 active torsions:
REMARK  status: ('A' for Active; 'I' for Inactive)
REMARK    1  A    between atoms: C_1  and  N_2
REMARK    2  A    between atoms: N_2  and  C_3
REMARK    3  A    between atoms: N_2  and  C_4
REMARK    4  A    between atoms: C_4  and  C_5
REMARK    5  A    between atoms: N_7  and  C_8
REMARK                            x       y       z     vdW  Elec       q    Type
REMARK                         _______ _______ _______ _____ _____    ______ ____
ROOT
ATOM      1  C   UNL     1       3.246   4.840  19.015  0.00  0.00    +0.000 A 
ATOM      2  C   UNL     1       2.642   6.081  19.122  0.00  0.00    +0.000 A 
ATOM      3  N   UNL     1       3.125   6.887  18.129  0.00  0.00    +0.000 N 
ATOM      4  C   UNL     1       2.736   8.264  17.924  0.00  0.00    +0.000 C 
ATOM      5  C   UNL     1       4.042   6.203  17.359  0.00  0.00    +0.000 A 
ATOM      6  C   UNL     1       4.786   6.604  16.238  0.00  0.00    +0.000 A 
ATOM      7  C   UNL     1       5.657   5.676  15.660  0.00  0.00    +0.000 A 
ATOM      8  C   UNL     1       5.781   4.393  16.179  0.00  0.00    +0.000 A 
ATOM      9  C   UNL     1       5.031   4.002  17.294  0.00  0.00    +0.000 A 
ATOM     10  C   UNL     1       4.145   4.917  17.899  0.00  0.00    +0.000 A 
ENDROOT
BRANCH   1  11
ATOM     11  C   UNL     1       3.010   3.644  19.889  0.00  0.00    +0.000 C 
BRANCH  11  13
ATOM     12  C   UNL     1       0.947   2.668  19.043  0.00  0.00    +0.000 C 
ATOM     13  N   UNL     1       1.570   3.430  20.129  0.00  0.00    +0.000 NA
ATOM     14  C   UNL     1       1.386   2.718  21.395  0.00  0.00    +0.000 C 
ENDBRANCH  11  13
ENDBRANCH   1  11
TORSDOF 2
ENDMDL
MODEL 7
REMARK VINA RESULT:      -5.7      1.455      2.860
REMARK  Name = 
REMARK  5 active torsions:
REMARK  status: ('A' for Active; 'I' for Inactive)
REMARK    1  A    between atoms: C_1  and  N_2
REMARK    2  A    between atoms: N_2  and  C_3
REMARK    3  A    between atoms: N_2  and  C_4
REMARK    4  A    between atoms: C_4  and  C_5
REMARK    5  A    between atoms: N_7  and  C_8
REMARK                            x       y       z     vdW  Elec       q    Type
REMARK                         _______ _______ _______ _____ _____    ______ ____
ROOT
ATOM      1  C   UNL     1       4.412   4.086  17.671  0.00  0.00    +0.000 A 
ATOM      2  C   UNL     1       4.139   3.115  18.619  0.00  0.00    +0.000 A 
ATOM      3  N   UNL     1       3.344   3.664  19.587  0.00  0.00    +0.000 N 
ATOM      4  C   UNL     1       2.858   2.958  20.751  0.00  0.00    +0.000 C 
ATOM      5  C   UNL     1       3.079   4.986  19.297  0.00  0.00    +0.000 A 
ATOM      6  C   UNL     1       2.313   5.943  19.981  0.00  0.00    +0.000 A 
ATOM      7  C   UNL     1       2.231   7.229  19.439  0.00  0.00    +0.000 A 
ATOM      8  C   UNL     1       2.887   7.549  18.257  0.00  0.00    +0.000 A 
ATOM      9  C   UNL     1       3.643   6.586  17.581  0.00  0.00    +0.000 A 
ATOM     10  C   UNL     1       3.746   5.281  18.105  0.00  0.00    +0.000 A 
ENDROOT
BRANCH   1  11
ATOM     11  C   UNL     1       5.239   3.926  16.429  0.00  0.00    +0.000 C 
BRANCH  11  13
ATOM     12  C   UNL     1       7.386   4.537  17.399  0.00  0.00    +0.000 C 
ATOM     13  N   UNL     1       6.364   4.880  16.406  0.00  0.00    +0.000 NA
ATOM     14  C   UNL     1       6.965   4.895  15.070  0.00  0.00    +0.000 C 
ENDBRANCH  11  13
ENDBRANCH   1  11
TORSDOF 2
ENDMDL
MODEL 8
REMARK VINA RESULT:      -5.6      0.955      1.077
REMARK  Name = 
REMARK  5 active torsions:
REMARK  status: ('A' for Active; 'I' for Inactive)
REMARK    1  A    between atoms: C_1  and  N_2
REMARK    2  A    between atoms: N_2  and  C_3
REMARK    3  A    between atoms: N_2  and  C_4
REMARK    4  A    between atoms: C_4  and  C_5
REMARK    5  A    between atoms: N_7  and  C_8
REMARK                            x       y       z     vdW  Elec       q    Type
REMARK                         _______ _______ _______ _____ _____    ______ ____
ROOT
ATOM      1  C   UNL     1       4.501   4.334  16.774  0.00  0.00    +0.000 A 
ATOM      2  C   UNL     1       4.357   5.692  17.002  0.00  0.00    +0.000 A 
ATOM      3  N   UNL     1       3.276   5.885  17.816  0.00  0.00    +0.000 N 
ATOM      4  C   UNL     1       2.803   7.174  18.266  0.00  0.00    +0.000 C 
ATOM      5  C   UNL     1       2.696   4.675  18.137  0.00  0.00    +0.000 A 
ATOM      6  C   UNL     1       1.586   4.370  18.941  0.00  0.00    +0.000 A 
ATOM      7  C   UNL     1       1.223   3.027  19.079  0.00  0.00    +0.000 A 
ATOM      8  C   UNL     1       1.943   2.024  18.442  0.00  0.00    +0.000 A 
ATOM      9  C   UNL     1       3.051   2.338  17.648  0.00  0.00    +0.000 A 
ATOM     10  C   UNL     1       3.439   3.685  17.488  0.00  0.00    +0.000 A 
ENDROOT
BRANCH   1  11
ATOM     11  C   UNL     1       5.559   3.666  15.946  0.00  0.00    +0.000 C 
BRANCH  11  13
ATOM     12  C   UNL     1       7.326   5.019  14.961  0.00  0.00    +0.000 C 
ATOM     13  N   UNL     1       5.960   4.510  14.805  0.00  0.00    +0.000 NA
ATOM     14  C   UNL     1       5.866   3.734  13.566  0.00  0.00    +0.000 C 
ENDBRANCH  11  13
ENDBRANCH   1  11
TORSDOF 2
ENDMDL
MODEL 9
REMARK VINA RESULT:      -5.6      1.711      4.404
REMARK  Name = 
REMARK  5 active torsions:
REMARK  status: ('A' for Active; 'I' for Inactive)
REMARK    1  A    between atoms: C_1  and  N_2
REMARK    2  A    between atoms: N_2  and  C_3
REMARK    3  A    between atoms: N_2  and  C_4
REMARK    4  A    between atoms: C_4  and  C_5
REMARK    5  A    between atoms: N_7  and  C_8
REMARK                            x       y       z     vdW  Elec       q    Type
REMARK                         _______ _______ _______ _____ _____    ______ ____
ROOT
ATOM      1  C   UNL     1       2.949   4.596  18.487  0.00  0.00    +0.000 A 
ATOM      2  C   UNL     1       2.478   5.876  18.721  0.00  0.00    +0.000 A 
ATOM      3  N   UNL     1       3.150   6.743  17.904  0.00  0.00    +0.000 N 
ATOM      4  C   UNL     1       2.941   8.172  17.870  0.00  0.00    +0.000 C 
ATOM      5  C   UNL     1       4.061   6.060  17.126  0.00  0.00    +0.000 A 
ATOM      6  C   UNL     1       4.959   6.513  16.146  0.00  0.00    +0.000 A 
ATOM      7  C   UNL     1       5.777   5.569  15.518  0.00  0.00    +0.000 A 
ATOM      8  C   UNL     1       5.703   4.223  15.852  0.00  0.00    +0.000 A 
ATOM      9  C   UNL     1       4.801   3.782  16.826  0.00  0.00    +0.000 A 
ATOM     10  C   UNL     1       3.963   4.711  17.478  0.00  0.00    +0.000 A 
ENDROOT
BRANCH   1  11
ATOM     11  C   UNL     1       2.490   3.332  19.152  0.00  0.00    +0.000 C 
BRANCH  11  13
ATOM     12  C   UNL     1       2.208   2.640  21.469  0.00  0.00    +0.000 C 
ATOM     13  N   UNL     1       3.146   3.144  20.460  0.00  0.00    +0.000 NA
ATOM     14  C   UNL     1       4.263   2.208  20.318  0.00  0.00    +0.000 C 
ENDBRANCH  11  13
ENDBRANCH   1  11
TORSDOF 2
ENDMDL
