MODEL 1
REMARK VINA RESULT:      -7.6      0.000      0.000
REMARK  Name = 
REMARK  3 active torsions:
REMARK  status: ('A' for Active; 'I' for Inactive)
REMARK    1  A    between atoms: C_1  and  C_2
REMARK    2  A    between atoms: C_2  and  N_3
REMARK    3  A    between atoms: C_9  and  C_10
REMARK                            x       y       z     vdW  Elec       q    Type
REMARK                         _______ _______ _______ _____ _____    ______ ____
ROOT
ATOM      1  C   UNL     1       1.127  10.288  18.644  0.00  0.00    +0.000 C 
ATOM      2  C   UNL     1      -0.123  10.563  18.228  0.00  0.00    +0.000 C 
ATOM      3  C   UNL     1      -1.260   9.634  17.866  0.00  0.00    +0.000 C 
ATOM      4  C   UNL     1      -2.266  10.388  16.946  0.00  0.00    +0.000 C 
ATOM      5  C   UNL     1      -2.850  11.502  17.790  0.00  0.00    +0.000 A 
ATOM      6  C   UNL     1      -4.224  11.676  17.937  0.00  0.00    +0.000 A 
ATOM      7  C   UNL     1      -4.703  12.203  19.135  0.00  0.00    +0.000 A 
ATOM      8  C   UNL     1      -3.804  12.554  20.148  0.00  0.00    +0.000 A 
ATOM      9 BR   UNL     1      -4.452  12.814  21.906  0.00  0.00    +0.000 Br
ATOM     10  C   UNL     1      -2.432  12.591  19.906  0.00  0.00    +0.000 A 
ATOM     11  C   UNL     1      -1.970  12.141  18.676  0.00  0.00    +0.000 A 
ATOM     12  C   UNL     1      -0.525  11.990  18.420  0.00  0.00    +0.000 C 
ATOM     13  O   UNL     1       0.242  12.944  18.447  0.00  0.00    +0.000 OA
ENDROOT
BRANCH   1  20
ATOM     14  N   UNL     1       3.097   5.730  18.771  0.00  0.00    +0.000 N 
ATOM     15  C   UNL     1       3.092   4.752  19.732  0.00  0.00    +0.000 A 
ATOM     16  C   UNL     1       2.347   5.208  20.802  0.00  0.00    +0.000 A 
ATOM     17  C   UNL     1       1.914   6.525  20.495  0.00  0.00    +0.000 A 
ATOM     18  C   UNL     1       1.120   7.478  21.174  0.00  0.00    +0.000 A 
ATOM     19  C   UNL     1       0.891   8.736  20.595  0.00  0.00    +0.000 A 
ATOM     20  C   UNL     1       1.451   9.051  19.363  0.00  0.00    +0.000 A 
ATOM     21  C   UNL     1       2.211   8.098  18.653  0.00  0.00    +0.000 A 
ATOM     22  C   UNL     1       2.431   6.844  19.239  0.00  0.00    +0.000 A 
BRANCH  14  24
ATOM     23  C   UNL     1       4.110   4.139  17.166  0.00  0.00    +0.000 C 
ATOM     24  C   UNL     1       3.676   5.567  17.447  0.00  0.00    +0.000 C 
ENDBRANCH  14  24
ENDBRANCH   1  20
TORSDOF 2
ENDMDL
MODEL 2
REMARK VINA RESULT:      -7.2      1.472      2.012
REMARK  Name = 
REMARK  3 active torsions:
REMARK  status: ('A' for Active; 'I' for Inactive)
REMARK    1  A    between atoms: C_1  and  C_2
REMARK    2  A    between atoms: C_2  and  N_3
REMARK    3  A    between atoms: C_9  and  C_10
REMARK                            x       y       z     vdW  Elec       q    Type
REMARK                         _______ _______ _______ _____ _____    ______ ____
ROOT
ATOM      1  C   UNL     1       2.330   8.987  18.228  0.00  0.00    +0.000 C 
ATOM      2  C   UNL     1       1.163   9.655  18.152  0.00  0.00    +0.000 C 
ATOM      3  C   UNL     1      -0.258   9.139  18.134  0.00  0.00    +0.000 C 
ATOM      4  C   UNL     1      -1.186  10.215  17.494  0.00  0.00    +0.000 C 
ATOM      5  C   UNL     1      -1.153  11.406  18.429  0.00  0.00    +0.000 A 
ATOM      6  C   UNL     1      -2.316  11.983  18.931  0.00  0.00    +0.000 A 
ATOM      7  C   UNL     1      -2.276  12.565  20.197  0.00  0.00    +0.000 A 
ATOM      8  C   UNL     1      -1.080  12.567  20.923  0.00  0.00    +0.000 A 
ATOM      9 BR   UNL     1      -1.130  12.917  22.782  0.00  0.00    +0.000 Br
ATOM     10  C   UNL     1       0.122  12.196  20.323  0.00  0.00    +0.000 A 
ATOM     11  C   UNL     1       0.082  11.694  19.028  0.00  0.00    +0.000 A 
ATOM     12  C   UNL     1       1.289  11.123  18.401  0.00  0.00    +0.000 C 
ATOM     13  O   UNL     1       2.292  11.793  18.194  0.00  0.00    +0.000 OA
ENDROOT
BRANCH   1  20
ATOM     14  N   UNL     1       3.464   4.154  18.071  0.00  0.00    +0.000 N 
ATOM     15  C   UNL     1       3.288   3.138  18.974  0.00  0.00    +0.000 A 
ATOM     16  C   UNL     1       2.638   3.655  20.078  0.00  0.00    +0.000 A 
ATOM     17  C   UNL     1       2.444   5.044  19.852  0.00  0.00    +0.000 A 
ATOM     18  C   UNL     1       1.832   6.080  20.593  0.00  0.00    +0.000 A 
ATOM     19  C   UNL     1       1.827   7.390  20.089  0.00  0.00    +0.000 A 
ATOM     20  C   UNL     1       2.432   7.673  18.871  0.00  0.00    +0.000 A 
ATOM     21  C   UNL     1       3.010   6.644  18.099  0.00  0.00    +0.000 A 
ATOM     22  C   UNL     1       3.006   5.339  18.609  0.00  0.00    +0.000 A 
BRANCH  14  24
ATOM     23  C   UNL     1       5.499   4.231  16.660  0.00  0.00    +0.000 C 
ATOM     24  C   UNL     1       4.004   3.969  16.733  0.00  0.00    +0.000 C 
ENDBRANCH  14  24
ENDBRANCH   1  20
TORSDOF 2
ENDMDL
MODEL 3
REMARK VINA RESULT:      -7.2      3.422      7.851
REMARK  Name = 
REMARK  3 active torsions:
REMARK  status: ('A' for Active; 'I' for Inactive)
REMARK    1  A    between atoms: C_1  and  C_2
REMARK    2  A    between atoms: C_2  and  N_3
REMARK    3  A    between atoms: C_9  and  C_10
REMARK                            x       y       z     vdW  Elec       q    Type
REMARK                         _______ _______ _______ _____ _____    ______ ____
ROOT
ATOM      1  C   UNL     1       0.108  10.712  18.228  0.00  0.00    +0.000 C 
ATOM      2  C   UNL     1       0.646   9.820  19.081  0.00  0.00    +0.000 C 
ATOM      3  C   UNL     1       0.050   9.151  20.299  0.00  0.00    +0.000 C 
ATOM      4  C   UNL     1       1.200   8.661  21.230  0.00  0.00    +0.000 C 
ATOM      5  C   UNL     1       1.942   7.595  20.451  0.00  0.00    +0.000 A 
ATOM      6  C   UNL     1       2.177   6.327  20.975  0.00  0.00    +0.000 A 
ATOM      7  C   UNL     1       2.234   5.245  20.096  0.00  0.00    +0.000 A 
ATOM      8  C   UNL     1       2.066   5.456  18.723  0.00  0.00    +0.000 A 
ATOM      9 BR   UNL     1       1.675   3.981  17.605  0.00  0.00    +0.000 Br
ATOM     10  C   UNL     1       2.062   6.745  18.192  0.00  0.00    +0.000 A 
ATOM     11  C   UNL     1       2.091   7.818  19.074  0.00  0.00    +0.000 A 
ATOM     12  C   UNL     1       1.913   9.200  18.589  0.00  0.00    +0.000 C 
ATOM     13  O   UNL     1       2.699   9.720  17.808  0.00  0.00    +0.000 OA
ENDROOT
BRANCH   1  20
ATOM     14  N   UNL     1      -4.414  12.385  19.420  0.00  0.00    +0.000 N 
ATOM     15  C   UNL     1      -5.663  12.085  18.939  0.00  0.00    +0.000 A 
ATOM     16  C   UNL     1      -5.525  11.105  17.976  0.00  0.00    +0.000 A 
ATOM     17  C   UNL     1      -4.140  10.824  17.842  0.00  0.00    +0.000 A 
ATOM     18  C   UNL     1      -3.396   9.919  17.050  0.00  0.00    +0.000 A 
ATOM     19  C   UNL     1      -1.995   9.904  17.136  0.00  0.00    +0.000 A 
ATOM     20  C   UNL     1      -1.337  10.783  17.988  0.00  0.00    +0.000 A 
ATOM     21  C   UNL     1      -2.065  11.662  18.816  0.00  0.00    +0.000 A 
ATOM     22  C   UNL     1      -3.463  11.667  18.725  0.00  0.00    +0.000 A 
BRANCH  14  24
ATOM     23  C   UNL     1      -4.637  12.722  21.864  0.00  0.00    +0.000 C 
ATOM     24  C   UNL     1      -4.167  13.287  20.534  0.00  0.00    +0.000 C 
ENDBRANCH  14  24
ENDBRANCH   1  20
TORSDOF 2
ENDMDL
MODEL 4
REMARK VINA RESULT:      -7.2      2.052      3.587
REMARK  Name = 
REMARK  3 active torsions:
REMARK  status: ('A' for Active; 'I' for Inactive)
REMARK    1  A    between atoms: C_1  and  C_2
REMARK    2  A    between atoms: C_2  and  N_3
REMARK    3  A    between atoms: C_9  and  C_10
REMARK                            x       y       z     vdW  Elec       q    Type
REMARK                         _______ _______ _______ _____ _____    ______ ____
ROOT
ATOM      1  C   UNL     1       1.894   7.881  20.189  0.00  0.00    +0.000 C 
ATOM      2  C   UNL     1       1.519   9.087  19.723  0.00  0.00    +0.000 C 
ATOM      3  C   UNL     1       1.912   9.809  18.453  0.00  0.00    +0.000 C 
ATOM      4  C   UNL     1       1.669  11.337  18.637  0.00  0.00    +0.000 C 
ATOM      5  C   UNL     1       0.173  11.506  18.804  0.00  0.00    +0.000 A 
ATOM      6  C   UNL     1      -0.563  12.386  18.015  0.00  0.00    +0.000 A 
ATOM      7  C   UNL     1      -1.888  12.065  17.722  0.00  0.00    +0.000 A 
ATOM      8  C   UNL     1      -2.446  10.886  18.229  0.00  0.00    +0.000 A 
ATOM      9 BR   UNL     1      -4.045  10.221  17.468  0.00  0.00    +0.000 Br
ATOM     10  C   UNL     1      -1.778  10.137  19.196  0.00  0.00    +0.000 A 
ATOM     11  C   UNL     1      -0.488  10.515  19.543  0.00  0.00    +0.000 A 
ATOM     12  C   UNL     1       0.336   9.667  20.427  0.00  0.00    +0.000 C 
ATOM     13  O   UNL     1       0.012   9.427  21.582  0.00  0.00    +0.000 OA
ENDROOT
BRANCH   1  20
ATOM     14  N   UNL     1       2.263   3.051  19.091  0.00  0.00    +0.000 N 
ATOM     15  C   UNL     1       2.901   2.384  18.077  0.00  0.00    +0.000 A 
ATOM     16  C   UNL     1       3.556   3.317  17.297  0.00  0.00    +0.000 A 
ATOM     17  C   UNL     1       3.277   4.601  17.837  0.00  0.00    +0.000 A 
ATOM     18  C   UNL     1       3.673   5.914  17.494  0.00  0.00    +0.000 A 
ATOM     19  C   UNL     1       3.189   7.005  18.233  0.00  0.00    +0.000 A 
ATOM     20  C   UNL     1       2.313   6.798  19.292  0.00  0.00    +0.000 A 
ATOM     21  C   UNL     1       1.941   5.493  19.674  0.00  0.00    +0.000 A 
ATOM     22  C   UNL     1       2.433   4.411  18.932  0.00  0.00    +0.000 A 
BRANCH  14  24
ATOM     23  C   UNL     1       2.238   2.621  21.530  0.00  0.00    +0.000 C 
ATOM     24  C   UNL     1       1.567   2.393  20.186  0.00  0.00    +0.000 C 
ENDBRANCH  14  24
ENDBRANCH   1  20
TORSDOF 2
ENDMDL
MODEL 5
REMARK VINA RESULT:      -7.1      4.524      8.518
REMARK  Name = 
REMARK  3 active torsions:
REMARK  status: ('A' for Active; 'I' for Inactive)
REMARK    1  A    between atoms: C_1  and  C_2
REMARK    2  A    between atoms: C_2  and  N_3
REMARK    3  A    between atoms: C_9  and  C_10
REMARK                            x       y       z     vdW  Elec       q    Type
REMARK                         _______ _______ _______ _____ _____    ______ ____
ROOT
ATOM      1  C   UNL     1       1.474   6.698  20.677  0.00  0.00    +0.000 C 
ATOM      2  C   UNL     1       1.830   5.836  19.706  0.00  0.00    +0.000 C 
ATOM      3  C   UNL     1       1.627   5.911  18.210  0.00  0.00    +0.000 C 
ATOM      4  C   UNL     1       1.706   4.476  17.609  0.00  0.00    +0.000 C 
ATOM      5  C   UNL     1       3.125   4.002  17.845  0.00  0.00    +0.000 A 
ATOM      6  C   UNL     1       3.924   3.518  16.811  0.00  0.00    +0.000 A 
ATOM      7  C   UNL     1       5.302   3.717  16.888  0.00  0.00    +0.000 A 
ATOM      8  C   UNL     1       5.848   4.380  17.992  0.00  0.00    +0.000 A 
ATOM      9 BR   UNL     1       7.610   5.059  17.881  0.00  0.00    +0.000 Br
ATOM     10  C   UNL     1       5.072   4.653  19.118  0.00  0.00    +0.000 A 
ATOM     11  C   UNL     1       3.713   4.373  19.062  0.00  0.00    +0.000 A 
ATOM     12  C   UNL     1       2.809   4.797  20.149  0.00  0.00    +0.000 C 
ATOM     13  O   UNL     1       2.928   4.378  21.292  0.00  0.00    +0.000 OA
ENDROOT
BRANCH   1  20
ATOM     14  N   UNL     1      -0.435  11.133  21.842  0.00  0.00    +0.000 N 
ATOM     15  C   UNL     1      -0.408  12.344  21.200  0.00  0.00    +0.000 A 
ATOM     16  C   UNL     1       0.268  12.179  20.007  0.00  0.00    +0.000 A 
ATOM     17  C   UNL     1       0.699  10.828  19.939  0.00  0.00    +0.000 A 
ATOM     18  C   UNL     1       1.402  10.072  18.973  0.00  0.00    +0.000 A 
ATOM     19  C   UNL     1       1.702   8.724  19.224  0.00  0.00    +0.000 A 
ATOM     20  C   UNL     1       1.320   8.134  20.422  0.00  0.00    +0.000 A 
ATOM     21  C   UNL     1       0.581   8.861  21.379  0.00  0.00    +0.000 A 
ATOM     22  C   UNL     1       0.283  10.205  21.117  0.00  0.00    +0.000 A 
BRANCH  14  24
ATOM     23  C   UNL     1      -2.291  11.876  23.305  0.00  0.00    +0.000 C 
ATOM     24  C   UNL     1      -1.167  10.881  23.074  0.00  0.00    +0.000 C 
ENDBRANCH  14  24
ENDBRANCH   1  20
TORSDOF 2
ENDMDL
MODEL 6
REMARK VINA RESULT:      -6.9      3.957      6.523
REMARK  Name = 
REMARK  3 active torsions:
REMARK  status: ('A' for Active; 'I' for Inactive)
REMARK    1  A    between atoms: C_1  and  C_2
REMARK    2  A    between atoms: C_2  and  N_3
REMARK    3  A    between atoms: C_9  and  C_10
REMARK                            x       y       z     vdW  Elec       q    Type
REMARK                         _______ _______ _______ _____ _____    ______ ____
ROOT
ATOM      1  C   UNL     1      -0.498  10.761  20.749  0.00  0.00    +0.000 C 
ATOM      2  C   UNL     1      -0.751  11.859  21.485  0.00  0.00    +0.000 C 
ATOM      3  C   UNL     1      -0.963  13.294  21.059  0.00  0.00    +0.000 C 
ATOM      4  C   UNL     1      -0.670  14.236  22.265  0.00  0.00    +0.000 C 
ATOM      5  C   UNL     1      -1.720  13.919  23.309  0.00  0.00    +0.000 A 
ATOM      6  C   UNL     1      -2.521  14.907  23.875  0.00  0.00    +0.000 A 
ATOM      7  C   UNL     1      -3.815  14.568  24.270  0.00  0.00    +0.000 A 
ATOM      8  C   UNL     1      -4.271  13.256  24.102  0.00  0.00    +0.000 A 
ATOM      9 BR   UNL     1      -6.129  12.908  24.190  0.00  0.00    +0.000 Br
ATOM     10  C   UNL     1      -3.393  12.232  23.751  0.00  0.00    +0.000 A 
ATOM     11  C   UNL     1      -2.082  12.570  23.440  0.00  0.00    +0.000 A 
ATOM     12  C   UNL     1      -1.152  11.563  22.895  0.00  0.00    +0.000 C 
ATOM     13  O   UNL     1      -0.827  10.569  23.529  0.00  0.00    +0.000 OA
ENDROOT
BRANCH   1  20
ATOM     14  N   UNL     1      -3.948  11.321  17.220  0.00  0.00    +0.000 N 
ATOM     15  C   UNL     1      -3.988  10.941  15.903  0.00  0.00    +0.000 A 
ATOM     16  C   UNL     1      -2.822  10.257  15.621  0.00  0.00    +0.000 A 
ATOM     17  C   UNL     1      -2.030  10.251  16.799  0.00  0.00    +0.000 A 
ATOM     18  C   UNL     1      -0.771   9.700  17.130  0.00  0.00    +0.000 A 
ATOM     19  C   UNL     1      -0.236   9.899  18.413  0.00  0.00    +0.000 A 
ATOM     20  C   UNL     1      -0.935  10.645  19.354  0.00  0.00    +0.000 A 
ATOM     21  C   UNL     1      -2.211  11.166  19.054  0.00  0.00    +0.000 A 
ATOM     22  C   UNL     1      -2.737  10.959  17.772  0.00  0.00    +0.000 A 
BRANCH  14  24
ATOM     23  C   UNL     1      -6.239  11.027  18.116  0.00  0.00    +0.000 C 
ATOM     24  C   UNL     1      -5.055  11.958  17.917  0.00  0.00    +0.000 C 
ENDBRANCH  14  24
ENDBRANCH   1  20
TORSDOF 2
ENDMDL
MODEL 7
REMARK VINA RESULT:      -6.9      1.095      1.353
REMARK  Name = 
REMARK  3 active torsions:
REMARK  status: ('A' for Active; 'I' for Inactive)
REMARK    1  A    between atoms: C_1  and  C_2
REMARK    2  A    between atoms: C_2  and  N_3
REMARK    3  A    between atoms: C_9  and  C_10
REMARK                            x       y       z     vdW  Elec       q    Type
REMARK                         _______ _______ _______ _____ _____    ______ ____
ROOT
ATOM      1  C   UNL     1       1.466   9.958  18.503  0.00  0.00    +0.000 C 
ATOM      2  C   UNL     1       0.235  10.496  18.568  0.00  0.00    +0.000 C 
ATOM      3  C   UNL     1      -1.112   9.835  18.757  0.00  0.00    +0.000 C 
ATOM      4  C   UNL     1      -2.228  10.781  18.220  0.00  0.00    +0.000 C 
ATOM      5  C   UNL     1      -2.201  12.007  19.109  0.00  0.00    +0.000 A 
ATOM      6  C   UNL     1      -3.344  12.480  19.748  0.00  0.00    +0.000 A 
ATOM      7  C   UNL     1      -3.201  13.115  20.981  0.00  0.00    +0.000 A 
ATOM      8  C   UNL     1      -1.927  13.271  21.538  0.00  0.00    +0.000 A 
ATOM      9 BR   UNL     1      -1.769  13.690  23.377  0.00  0.00    +0.000 Br
ATOM     10  C   UNL     1      -0.781  13.003  20.791  0.00  0.00    +0.000 A 
ATOM     11  C   UNL     1      -0.937  12.447  19.528  0.00  0.00    +0.000 A 
ATOM     12  C   UNL     1       0.231  11.979  18.758  0.00  0.00    +0.000 C 
ATOM     13  O   UNL     1       1.119  12.741  18.399  0.00  0.00    +0.000 OA
ENDROOT
BRANCH   1  20
ATOM     14  N   UNL     1       3.391   5.380  18.392  0.00  0.00    +0.000 N 
ATOM     15  C   UNL     1       3.399   4.363  19.311  0.00  0.00    +0.000 A 
ATOM     16  C   UNL     1       2.685   4.781  20.417  0.00  0.00    +0.000 A 
ATOM     17  C   UNL     1       2.259   6.114  20.176  0.00  0.00    +0.000 A 
ATOM     18  C   UNL     1       1.491   7.044  20.913  0.00  0.00    +0.000 A 
ATOM     19  C   UNL     1       1.261   8.328  20.392  0.00  0.00    +0.000 A 
ATOM     20  C   UNL     1       1.795   8.689  19.161  0.00  0.00    +0.000 A 
ATOM     21  C   UNL     1       2.528   7.760  18.394  0.00  0.00    +0.000 A 
ATOM     22  C   UNL     1       2.748   6.480  18.922  0.00  0.00    +0.000 A 
BRANCH  14  24
ATOM     23  C   UNL     1       4.666   3.955  16.818  0.00  0.00    +0.000 C 
ATOM     24  C   UNL     1       3.938   5.268  17.049  0.00  0.00    +0.000 C 
ENDBRANCH  14  24
ENDBRANCH   1  20
TORSDOF 2
ENDMDL
MODEL 8
REMARK VINA RESULT:      -6.8      2.177      3.608
REMARK  Name = 
REMARK  3 active torsions:
REMARK  status: ('A' for Active; 'I' for Inactive)
REMARK    1  A    between atoms: C_1  and  C_2
REMARK    2  A    between atoms: C_2  and  N_3
REMARK    3  A    between atoms: C_9  and  C_10
REMARK                            x       y       z     vdW  Elec       q    Type
REMARK                         _______ _______ _______ _____ _____    ______ ____
ROOT
ATOM      1  C   UNL     1       1.882   7.924  19.835  0.00  0.00    +0.000 C 
ATOM      2  C   UNL     1       1.439   9.167  19.566  0.00  0.00    +0.000 C 
ATOM      3  C   UNL     1       1.948  10.194  18.580  0.00  0.00    +0.000 C 
ATOM      4  C   UNL     1       1.477  11.610  19.026  0.00  0.00    +0.000 C 
ATOM      5  C   UNL     1      -0.034  11.601  18.923  0.00  0.00    +0.000 A 
ATOM      6  C   UNL     1      -0.731  12.569  18.205  0.00  0.00    +0.000 A 
ATOM      7  C   UNL     1      -1.930  12.206  17.593  0.00  0.00    +0.000 A 
ATOM      8  C   UNL     1      -2.408  10.897  17.721  0.00  0.00    +0.000 A 
ATOM      9 BR   UNL     1      -3.747  10.284  16.534  0.00  0.00    +0.000 Br
ATOM     10  C   UNL     1      -1.826  10.008  18.623  0.00  0.00    +0.000 A 
ATOM     11  C   UNL     1      -0.677  10.411  19.292  0.00  0.00    +0.000 A 
ATOM     12  C   UNL     1       0.085   9.460  20.125  0.00  0.00    +0.000 C 
ATOM     13  O   UNL     1      -0.401   8.933  21.117  0.00  0.00    +0.000 OA
ENDROOT
BRANCH   1  20
ATOM     14  N   UNL     1       3.656   3.571  18.229  0.00  0.00    +0.000 N 
ATOM     15  C   UNL     1       4.447   3.238  17.160  0.00  0.00    +0.000 A 
ATOM     16  C   UNL     1       4.783   4.403  16.498  0.00  0.00    +0.000 A 
ATOM     17  C   UNL     1       4.142   5.479  17.167  0.00  0.00    +0.000 A 
ATOM     18  C   UNL     1       4.125   6.880  16.975  0.00  0.00    +0.000 A 
ATOM     19  C   UNL     1       3.349   7.691  17.819  0.00  0.00    +0.000 A 
ATOM     20  C   UNL     1       2.591   7.120  18.835  0.00  0.00    +0.000 A 
ATOM     21  C   UNL     1       2.630   5.729  19.066  0.00  0.00    +0.000 A 
ATOM     22  C   UNL     1       3.410   4.929  18.220  0.00  0.00    +0.000 A 
BRANCH  14  24
ATOM     23  C   UNL     1       4.311   2.204  20.187  0.00  0.00    +0.000 C 
ATOM     24  C   UNL     1       3.204   2.623  19.234  0.00  0.00    +0.000 C 
ENDBRANCH  14  24
ENDBRANCH   1  20
TORSDOF 2
ENDMDL
MODEL 9
REMARK VINA RESULT:      -6.7      1.534      2.025
REMARK  Name = 
REMARK  3 active torsions:
REMARK  status: ('A' for Active; 'I' for Inactive)
REMARK    1  A    between atoms: C_1  and  C_2
REMARK    2  A    between atoms: C_2  and  N_3
REMARK    3  A    between atoms: C_9  and  C_10
REMARK                            x       y       z     vdW  Elec       q    Type
REMARK                         _______ _______ _______ _____ _____    ______ ____
ROOT
ATOM      1  C   UNL     1      -0.405  11.358  19.925  0.00  0.00    +0.000 C 
ATOM      2  C   UNL     1      -1.418  11.451  19.044  0.00  0.00    +0.000 C 
ATOM      3  C   UNL     1      -1.826  10.523  17.922  0.00  0.00    +0.000 C 
ATOM      4  C   UNL     1      -2.673  11.316  16.883  0.00  0.00    +0.000 C 
ATOM      5  C   UNL     1      -3.939  11.731  17.603  0.00  0.00    +0.000 A 
ATOM      6  C   UNL     1      -5.205  11.451  17.095  0.00  0.00    +0.000 A 
ATOM      7  C   UNL     1      -6.248  11.234  17.993  0.00  0.00    +0.000 A 
ATOM      8  C   UNL     1      -6.008  11.312  19.370  0.00  0.00    +0.000 A 
ATOM      9 BR   UNL     1      -7.269  10.569  20.569  0.00  0.00    +0.000 Br
ATOM     10  C   UNL     1      -4.803  11.814  19.858  0.00  0.00    +0.000 A 
ATOM     11  C   UNL     1      -3.797  12.107  18.947  0.00  0.00    +0.000 A 
ATOM     12  C   UNL     1      -2.444  12.475  19.408  0.00  0.00    +0.000 C 
ATOM     13  O   UNL     1      -2.237  13.478  20.078  0.00  0.00    +0.000 OA
ENDROOT
BRANCH   1  20
ATOM     14  N   UNL     1       2.453   7.399  19.017  0.00  0.00    +0.000 N 
ATOM     15  C   UNL     1       2.639   6.223  19.697  0.00  0.00    +0.000 A 
ATOM     16  C   UNL     1       1.808   6.231  20.799  0.00  0.00    +0.000 A 
ATOM     17  C   UNL     1       1.117   7.472  20.810  0.00  0.00    +0.000 A 
ATOM     18  C   UNL     1       0.139   8.041  21.657  0.00  0.00    +0.000 A 
ATOM     19  C   UNL     1      -0.337   9.337  21.402  0.00  0.00    +0.000 A 
ATOM     20  C   UNL     1       0.158  10.065  20.326  0.00  0.00    +0.000 A 
ATOM     21  C   UNL     1       1.103   9.496  19.447  0.00  0.00    +0.000 A 
ATOM     22  C   UNL     1       1.569   8.201  19.709  0.00  0.00    +0.000 A 
BRANCH  14  24
ATOM     23  C   UNL     1       4.229   6.782  17.404  0.00  0.00    +0.000 C 
ATOM     24  C   UNL     1       3.066   7.702  17.733  0.00  0.00    +0.000 C 
ENDBRANCH  14  24
ENDBRANCH   1  20
TORSDOF 2
ENDMDL
