MODEL 1
REMARK VINA RESULT:      -8.2      0.000      0.000
REMARK  Name = 
REMARK  5 active torsions:
REMARK  status: ('A' for Active; 'I' for Inactive)
REMARK    1  A    between atoms: C_2  and  C_3
REMARK    2  A    between atoms: C_3  and  N_4
REMARK    3  A    between atoms: C_6  and  S_7
REMARK    4  A    between atoms: S_7  and  C_8
REMARK    5  A    between atoms: C_8  and  C_9
REMARK                            x       y       z     vdW  Elec       q    Type
REMARK                         _______ _______ _______ _____ _____    ______ ____
ROOT
ATOM      1  N   UNL     1       2.814   5.669  19.684  0.00  0.00    +0.000 N 
ATOM      2  C   UNL     1       4.041   5.887  19.097  0.00  0.00    +0.000 A 
ATOM      3  C   UNL     1       4.330   4.796  18.310  0.00  0.00    +0.000 A 
ATOM      4  C   UNL     1       3.253   3.869  18.433  0.00  0.00    +0.000 A 
ATOM      5  C   UNL     1       2.983   2.598  17.881  0.00  0.00    +0.000 A 
ATOM      6  C   UNL     1       1.799   1.931  18.208  0.00  0.00    +0.000 A 
ATOM      7  C   UNL     1       0.877   2.518  19.067  0.00  0.00    +0.000 A 
ATOM      8  C   UNL     1       1.111   3.780  19.621  0.00  0.00    +0.000 A 
ATOM      9  C   UNL     1       2.308   4.439  19.295  0.00  0.00    +0.000 A 
ENDROOT
BRANCH   1  10
ATOM     10  C   UNL     1       2.097   6.669  20.473  0.00  0.00    +0.000 C 
BRANCH  10  12
ATOM     11  O   UNL     1       1.789   7.982  18.472  0.00  0.00    +0.000 OA
ATOM     12  C   UNL     1       1.761   7.940  19.707  0.00  0.00    +0.000 C 
ATOM     13  N   UNL     1       1.433   9.076  20.467  0.00  0.00    +0.000 N 
ATOM     14  C   UNL     1       1.409   9.116  21.932  0.00  0.00    +0.000 C 
ATOM     15  C   UNL     1      -0.015   9.120  22.488  0.00  0.00    +0.000 C 
ATOM     16  C   UNL     1      -0.727  10.468  22.394  0.00  0.00    +0.000 C 
ATOM     17  C   UNL     1      -0.829  11.041  20.983  0.00  0.00    +0.000 C 
ATOM     18  C   UNL     1       0.526  11.460  20.419  0.00  0.00    +0.000 C 
ATOM     19  C   UNL     1       1.288  10.330  19.730  0.00  0.00    +0.000 C 
ENDBRANCH  10  12
ENDBRANCH   1  10
BRANCH   3  20
ATOM     20  S   UNL     1       5.710   4.561  17.256  0.00  0.00    +0.000 S 
BRANCH  20  21
ATOM     21  C   UNL     1       5.261   5.505  15.778  0.00  0.00    +0.000 C 
BRANCH  21  22
ATOM     22  C   UNL     1       5.954   4.971  14.544  0.00  0.00    +0.000 A 
ATOM     23  C   UNL     1       7.231   5.432  14.184  0.00  0.00    +0.000 A 
ATOM     24  C   UNL     1       7.863   4.959  13.031  0.00  0.00    +0.000 A 
ATOM     25  C   UNL     1       7.230   4.014  12.226  0.00  0.00    +0.000 A 
ATOM     26  C   UNL     1       5.973   3.532  12.588  0.00  0.00    +0.000 A 
ATOM     27 CL   UNL     1       5.192   2.364  11.595  0.00  0.00    +0.000 Cl
ATOM     28  C   UNL     1       5.339   3.998  13.741  0.00  0.00    +0.000 A 
ENDBRANCH  21  22
ENDBRANCH  20  21
ENDBRANCH   3  20
TORSDOF 5
ENDMDL
MODEL 2
REMARK VINA RESULT:      -8.2      2.692      3.379
REMARK  Name = 
REMARK  5 active torsions:
REMARK  status: ('A' for Active; 'I' for Inactive)
REMARK    1  A    between atoms: C_2  and  C_3
REMARK    2  A    between atoms: C_3  and  N_4
REMARK    3  A    between atoms: C_6  and  S_7
REMARK    4  A    between atoms: S_7  and  C_8
REMARK    5  A    between atoms: C_8  and  C_9
REMARK                            x       y       z     vdW  Elec       q    Type
REMARK                         _______ _______ _______ _____ _____    ______ ____
ROOT
ATOM      1  N   UNL     1       2.537   5.879  19.585  0.00  0.00    +0.000 N 
ATOM      2  C   UNL     1       3.543   6.047  18.659  0.00  0.00    +0.000 A 
ATOM      3  C   UNL     1       3.586   4.916  17.876  0.00  0.00    +0.000 A 
ATOM      4  C   UNL     1       2.584   4.018  18.348  0.00  0.00    +0.000 A 
ATOM      5  C   UNL     1       2.159   2.729  17.960  0.00  0.00    +0.000 A 
ATOM      6  C   UNL     1       1.116   2.101  18.646  0.00  0.00    +0.000 A 
ATOM      7  C   UNL     1       0.484   2.743  19.705  0.00  0.00    +0.000 A 
ATOM      8  C   UNL     1       0.877   4.024  20.107  0.00  0.00    +0.000 A 
ATOM      9  C   UNL     1       1.933   4.644  19.418  0.00  0.00    +0.000 A 
ENDROOT
BRANCH   1  10
ATOM     10  C   UNL     1       2.085   6.928  20.498  0.00  0.00    +0.000 C 
BRANCH  10  12
ATOM     11  O   UNL     1       1.566   8.284  18.571  0.00  0.00    +0.000 OA
ATOM     12  C   UNL     1       1.626   8.200  19.803  0.00  0.00    +0.000 C 
ATOM     13  N   UNL     1       1.286   9.289  20.625  0.00  0.00    +0.000 N 
ATOM     14  C   UNL     1       1.360   9.279  22.089  0.00  0.00    +0.000 C 
ATOM     15  C   UNL     1      -0.021   9.181  22.738  0.00  0.00    +0.000 C 
ATOM     16  C   UNL     1      -0.813  10.486  22.741  0.00  0.00    +0.000 C 
ATOM     17  C   UNL     1      -1.045  11.098  21.362  0.00  0.00    +0.000 C 
ATOM     18  C   UNL     1       0.243  11.615  20.725  0.00  0.00    +0.000 C 
ATOM     19  C   UNL     1       1.019  10.556  19.946  0.00  0.00    +0.000 C 
ENDBRANCH  10  12
ENDBRANCH   1  10
BRANCH   3  20
ATOM     20  S   UNL     1       4.601   4.608  16.481  0.00  0.00    +0.000 S 
BRANCH  20  21
ATOM     21  C   UNL     1       5.351   6.223  16.156  0.00  0.00    +0.000 C 
BRANCH  21  22
ATOM     22  C   UNL     1       6.459   6.530  17.139  0.00  0.00    +0.000 A 
ATOM     23  C   UNL     1       6.951   5.533  17.998  0.00  0.00    +0.000 A 
ATOM     24  C   UNL     1       7.957   5.820  18.924  0.00  0.00    +0.000 A 
ATOM     25  C   UNL     1       8.490   7.106  19.001  0.00  0.00    +0.000 A 
ATOM     26  C   UNL     1       8.026   8.096  18.137  0.00  0.00    +0.000 A 
ATOM     27 CL   UNL     1       8.684   9.683  18.229  0.00  0.00    +0.000 Cl
ATOM     28  C   UNL     1       7.024   7.814  17.206  0.00  0.00    +0.000 A 
ENDBRANCH  21  22
ENDBRANCH  20  21
ENDBRANCH   3  20
TORSDOF 5
ENDMDL
MODEL 3
REMARK VINA RESULT:      -8.0      3.514      6.598
REMARK  Name = 
REMARK  5 active torsions:
REMARK  status: ('A' for Active; 'I' for Inactive)
REMARK    1  A    between atoms: C_2  and  C_3
REMARK    2  A    between atoms: C_3  and  N_4
REMARK    3  A    between atoms: C_6  and  S_7
REMARK    4  A    between atoms: S_7  and  C_8
REMARK    5  A    between atoms: C_8  and  C_9
REMARK                            x       y       z     vdW  Elec       q    Type
REMARK                         _______ _______ _______ _____ _____    ______ ____
ROOT
ATOM      1  N   UNL     1      -0.033  11.277  20.358  0.00  0.00    +0.000 N 
ATOM      2  C   UNL     1       1.053  10.500  20.023  0.00  0.00    +0.000 A 
ATOM      3  C   UNL     1       0.770   9.874  18.830  0.00  0.00    +0.000 A 
ATOM      4  C   UNL     1      -0.542  10.267  18.430  0.00  0.00    +0.000 A 
ATOM      5  C   UNL     1      -1.364   9.962  17.324  0.00  0.00    +0.000 A 
ATOM      6  C   UNL     1      -2.636  10.531  17.221  0.00  0.00    +0.000 A 
ATOM      7  C   UNL     1      -3.095  11.408  18.197  0.00  0.00    +0.000 A 
ATOM      8  C   UNL     1      -2.300  11.737  19.300  0.00  0.00    +0.000 A 
ATOM      9  C   UNL     1      -1.026  11.152  19.401  0.00  0.00    +0.000 A 
ENDROOT
BRANCH   1  10
ATOM     10  C   UNL     1      -0.053  12.210  21.484  0.00  0.00    +0.000 C 
BRANCH  10  12
ATOM     11  O   UNL     1      -0.887  10.777  23.237  0.00  0.00    +0.000 OA
ATOM     12  C   UNL     1      -1.019  11.824  22.593  0.00  0.00    +0.000 C 
ATOM     13  N   UNL     1      -2.086  12.705  22.845  0.00  0.00    +0.000 N 
ATOM     14  C   UNL     1      -2.330  13.946  22.105  0.00  0.00    +0.000 C 
ATOM     15  C   UNL     1      -1.954  15.187  22.916  0.00  0.00    +0.000 C 
ATOM     16  C   UNL     1      -2.968  15.573  23.990  0.00  0.00    +0.000 C 
ATOM     17  C   UNL     1      -3.265  14.480  25.014  0.00  0.00    +0.000 C 
ATOM     18  C   UNL     1      -4.013  13.295  24.409  0.00  0.00    +0.000 C 
ATOM     19  C   UNL     1      -3.103  12.239  23.786  0.00  0.00    +0.000 C 
ENDBRANCH  10  12
ENDBRANCH   1  10
BRANCH   3  20
ATOM     20  S   UNL     1       1.817   8.841  17.878  0.00  0.00    +0.000 S 
BRANCH  20  21
ATOM     21  C   UNL     1       2.323   7.569  19.062  0.00  0.00    +0.000 C 
BRANCH  21  22
ATOM     22  C   UNL     1       2.788   6.311  18.363  0.00  0.00    +0.000 A 
ATOM     23  C   UNL     1       1.948   5.189  18.275  0.00  0.00    +0.000 A 
ATOM     24  C   UNL     1       2.384   4.016  17.652  0.00  0.00    +0.000 A 
ATOM     25  C   UNL     1       3.663   3.952  17.102  0.00  0.00    +0.000 A 
ATOM     26  C   UNL     1       4.495   5.068  17.163  0.00  0.00    +0.000 A 
ATOM     27 CL   UNL     1       6.074   4.989  16.484  0.00  0.00    +0.000 Cl
ATOM     28  C   UNL     1       4.063   6.243  17.780  0.00  0.00    +0.000 A 
ENDBRANCH  21  22
ENDBRANCH  20  21
ENDBRANCH   3  20
TORSDOF 5
ENDMDL
MODEL 4
REMARK VINA RESULT:      -7.9      2.575      3.308
REMARK  Name = 
REMARK  5 active torsions:
REMARK  status: ('A' for Active; 'I' for Inactive)
REMARK    1  A    between atoms: C_2  and  C_3
REMARK    2  A    between atoms: C_3  and  N_4
REMARK    3  A    between atoms: C_6  and  S_7
REMARK    4  A    between atoms: S_7  and  C_8
REMARK    5  A    between atoms: C_8  and  C_9
REMARK                            x       y       z     vdW  Elec       q    Type
REMARK                         _______ _______ _______ _____ _____    ______ ____
ROOT
ATOM      1  N   UNL     1       2.965   5.981  18.839  0.00  0.00    +0.000 N 
ATOM      2  C   UNL     1       3.743   6.332  17.757  0.00  0.00    +0.000 A 
ATOM      3  C   UNL     1       4.057   5.178  17.076  0.00  0.00    +0.000 A 
ATOM      4  C   UNL     1       3.468   4.082  17.773  0.00  0.00    +0.000 A 
ATOM      5  C   UNL     1       3.443   2.686  17.567  0.00  0.00    +0.000 A 
ATOM      6  C   UNL     1       2.752   1.860  18.458  0.00  0.00    +0.000 A 
ATOM      7  C   UNL     1       2.078   2.407  19.545  0.00  0.00    +0.000 A 
ATOM      8  C   UNL     1       2.077   3.787  19.770  0.00  0.00    +0.000 A 
ATOM      9  C   UNL     1       2.782   4.609  18.875  0.00  0.00    +0.000 A 
ENDROOT
BRANCH   1  10
ATOM     10  C   UNL     1       2.310   6.947  19.719  0.00  0.00    +0.000 C 
BRANCH  10  12
ATOM     11  O   UNL     1       1.760   8.268  17.776  0.00  0.00    +0.000 OA
ATOM     12  C   UNL     1       1.815   8.198  19.009  0.00  0.00    +0.000 C 
ATOM     13  N   UNL     1       1.438   9.285  19.817  0.00  0.00    +0.000 N 
ATOM     14  C   UNL     1       1.505   9.292  21.281  0.00  0.00    +0.000 C 
ATOM     15  C   UNL     1       0.124   9.158  21.925  0.00  0.00    +0.000 C 
ATOM     16  C   UNL     1      -0.708  10.438  21.910  0.00  0.00    +0.000 C 
ATOM     17  C   UNL     1      -0.951  11.029  20.524  0.00  0.00    +0.000 C 
ATOM     18  C   UNL     1       0.324  11.579  19.888  0.00  0.00    +0.000 C 
ATOM     19  C   UNL     1       1.136  10.536  19.123  0.00  0.00    +0.000 C 
ENDBRANCH  10  12
ENDBRANCH   1  10
BRANCH   3  20
ATOM     20  S   UNL     1       4.942   5.021  15.572  0.00  0.00    +0.000 S 
BRANCH  20  21
ATOM     21  C   UNL     1       6.554   4.397  16.108  0.00  0.00    +0.000 C 
BRANCH  21  22
ATOM     22  C   UNL     1       7.169   5.281  17.170  0.00  0.00    +0.000 A 
ATOM     23  C   UNL     1       7.616   4.736  18.385  0.00  0.00    +0.000 A 
ATOM     24  C   UNL     1       8.162   5.554  19.378  0.00  0.00    +0.000 A 
ATOM     25  C   UNL     1       8.272   6.927  19.168  0.00  0.00    +0.000 A 
ATOM     26  C   UNL     1       7.852   7.475  17.958  0.00  0.00    +0.000 A 
ATOM     27 CL   UNL     1       7.989   9.170  17.698  0.00  0.00    +0.000 Cl
ATOM     28  C   UNL     1       7.311   6.662  16.960  0.00  0.00    +0.000 A 
ENDBRANCH  21  22
ENDBRANCH  20  21
ENDBRANCH   3  20
TORSDOF 5
ENDMDL
MODEL 5
REMARK VINA RESULT:      -7.9      1.377      2.056
REMARK  Name = 
REMARK  5 active torsions:
REMARK  status: ('A' for Active; 'I' for Inactive)
REMARK    1  A    between atoms: C_2  and  C_3
REMARK    2  A    between atoms: C_3  and  N_4
REMARK    3  A    between atoms: C_6  and  S_7
REMARK    4  A    between atoms: S_7  and  C_8
REMARK    5  A    between atoms: C_8  and  C_9
REMARK                            x       y       z     vdW  Elec       q    Type
REMARK                         _______ _______ _______ _____ _____    ______ ____
ROOT
ATOM      1  N   UNL     1       3.057   7.029  17.862  0.00  0.00    +0.000 N 
ATOM      2  C   UNL     1       4.371   7.349  17.604  0.00  0.00    +0.000 A 
ATOM      3  C   UNL     1       5.051   6.175  17.369  0.00  0.00    +0.000 A 
ATOM      4  C   UNL     1       4.125   5.098  17.505  0.00  0.00    +0.000 A 
ATOM      5  C   UNL     1       4.227   3.695  17.388  0.00  0.00    +0.000 A 
ATOM      6  C   UNL     1       3.099   2.894  17.586  0.00  0.00    +0.000 A 
ATOM      7  C   UNL     1       1.870   3.472  17.887  0.00  0.00    +0.000 A 
ATOM      8  C   UNL     1       1.736   4.859  18.000  0.00  0.00    +0.000 A 
ATOM      9  C   UNL     1       2.878   5.657  17.810  0.00  0.00    +0.000 A 
ENDROOT
BRANCH   1  10
ATOM     10  C   UNL     1       1.991   8.018  18.012  0.00  0.00    +0.000 C 
BRANCH  10  12
ATOM     11  O   UNL     1       2.030   7.646  20.396  0.00  0.00    +0.000 OA
ATOM     12  C   UNL     1       1.659   8.359  19.457  0.00  0.00    +0.000 C 
ATOM     13  N   UNL     1       0.893   9.516  19.680  0.00  0.00    +0.000 N 
ATOM     14  C   UNL     1       0.389  10.395  18.621  0.00  0.00    +0.000 C 
ATOM     15  C   UNL     1       1.173  11.705  18.533  0.00  0.00    +0.000 C 
ATOM     16  C   UNL     1       0.822  12.727  19.611  0.00  0.00    +0.000 C 
ATOM     17  C   UNL     1       0.999  12.233  21.044  0.00  0.00    +0.000 C 
ATOM     18  C   UNL     1      -0.010  11.149  21.421  0.00  0.00    +0.000 C 
ATOM     19  C   UNL     1       0.431   9.735  21.050  0.00  0.00    +0.000 C 
ENDBRANCH  10  12
ENDBRANCH   1  10
BRANCH   3  20
ATOM     20  S   UNL     1       6.726   5.974  16.897  0.00  0.00    +0.000 S 
BRANCH  20  21
ATOM     21  C   UNL     1       6.754   4.308  16.189  0.00  0.00    +0.000 C 
BRANCH  21  22
ATOM     22  C   UNL     1       6.854   4.345  14.680  0.00  0.00    +0.000 A 
ATOM     23  C   UNL     1       7.764   5.204  14.044  0.00  0.00    +0.000 A 
ATOM     24  C   UNL     1       7.841   5.259  12.650  0.00  0.00    +0.000 A 
ATOM     25  C   UNL     1       7.012   4.451  11.873  0.00  0.00    +0.000 A 
ATOM     26  C   UNL     1       6.122   3.578  12.495  0.00  0.00    +0.000 A 
ATOM     27 CL   UNL     1       5.100   2.580  11.536  0.00  0.00    +0.000 Cl
ATOM     28  C   UNL     1       6.045   3.516  13.888  0.00  0.00    +0.000 A 
ENDBRANCH  21  22
ENDBRANCH  20  21
ENDBRANCH   3  20
TORSDOF 5
ENDMDL
MODEL 6
REMARK VINA RESULT:      -7.8      3.460      6.291
REMARK  Name = 
REMARK  5 active torsions:
REMARK  status: ('A' for Active; 'I' for Inactive)
REMARK    1  A    between atoms: C_2  and  C_3
REMARK    2  A    between atoms: C_3  and  N_4
REMARK    3  A    between atoms: C_6  and  S_7
REMARK    4  A    between atoms: S_7  and  C_8
REMARK    5  A    between atoms: C_8  and  C_9
REMARK                            x       y       z     vdW  Elec       q    Type
REMARK                         _______ _______ _______ _____ _____    ______ ____
ROOT
ATOM      1  N   UNL     1       0.418  11.026  19.523  0.00  0.00    +0.000 N 
ATOM      2  C   UNL     1       1.174  10.006  18.988  0.00  0.00    +0.000 A 
ATOM      3  C   UNL     1       1.297   9.028  19.948  0.00  0.00    +0.000 A 
ATOM      4  C   UNL     1       0.608   9.470  21.116  0.00  0.00    +0.000 A 
ATOM      5  C   UNL     1       0.389   8.917  22.397  0.00  0.00    +0.000 A 
ATOM      6  C   UNL     1      -0.353   9.624  23.346  0.00  0.00    +0.000 A 
ATOM      7  C   UNL     1      -0.889  10.869  23.034  0.00  0.00    +0.000 A 
ATOM      8  C   UNL     1      -0.697  11.439  21.771  0.00  0.00    +0.000 A 
ATOM      9  C   UNL     1       0.059  10.726  20.826  0.00  0.00    +0.000 A 
ENDROOT
BRANCH   1  10
ATOM     10  C   UNL     1      -0.056  12.178  18.757  0.00  0.00    +0.000 C 
BRANCH  10  12
ATOM     11  O   UNL     1      -1.792  13.545  19.725  0.00  0.00    +0.000 OA
ATOM     12  C   UNL     1      -1.501  12.559  19.039  0.00  0.00    +0.000 C 
ATOM     13  N   UNL     1      -2.497  11.727  18.499  0.00  0.00    +0.000 N 
ATOM     14  C   UNL     1      -2.234  10.524  17.704  0.00  0.00    +0.000 C 
ATOM     15  C   UNL     1      -2.508  10.742  16.216  0.00  0.00    +0.000 C 
ATOM     16  C   UNL     1      -3.986  10.726  15.835  0.00  0.00    +0.000 C 
ATOM     17  C   UNL     1      -4.849  11.748  16.571  0.00  0.00    +0.000 C 
ATOM     18  C   UNL     1      -4.993  11.433  18.058  0.00  0.00    +0.000 C 
ATOM     19  C   UNL     1      -3.870  11.999  18.924  0.00  0.00    +0.000 C 
ENDBRANCH  10  12
ENDBRANCH   1  10
BRANCH   3  20
ATOM     20  S   UNL     1       2.069   7.462  19.800  0.00  0.00    +0.000 S 
BRANCH  20  21
ATOM     21  C   UNL     1       2.398   7.335  18.024  0.00  0.00    +0.000 C 
BRANCH  21  22
ATOM     22  C   UNL     1       3.147   6.065  17.686  0.00  0.00    +0.000 A 
ATOM     23  C   UNL     1       4.475   6.116  17.231  0.00  0.00    +0.000 A 
ATOM     24  C   UNL     1       5.161   4.947  16.894  0.00  0.00    +0.000 A 
ATOM     25  C   UNL     1       4.531   3.709  17.012  0.00  0.00    +0.000 A 
ATOM     26  C   UNL     1       3.222   3.646  17.485  0.00  0.00    +0.000 A 
ATOM     27 CL   UNL     1       2.444   2.118  17.633  0.00  0.00    +0.000 Cl
ATOM     28  C   UNL     1       2.533   4.811  17.828  0.00  0.00    +0.000 A 
ENDBRANCH  21  22
ENDBRANCH  20  21
ENDBRANCH   3  20
TORSDOF 5
ENDMDL
MODEL 7
REMARK VINA RESULT:      -7.7      4.235      7.187
REMARK  Name = 
REMARK  5 active torsions:
REMARK  status: ('A' for Active; 'I' for Inactive)
REMARK    1  A    between atoms: C_2  and  C_3
REMARK    2  A    between atoms: C_3  and  N_4
REMARK    3  A    between atoms: C_6  and  S_7
REMARK    4  A    between atoms: S_7  and  C_8
REMARK    5  A    between atoms: C_8  and  C_9
REMARK                            x       y       z     vdW  Elec       q    Type
REMARK                         _______ _______ _______ _____ _____    ______ ____
ROOT
ATOM      1  N   UNL     1      -0.585  11.597  19.740  0.00  0.00    +0.000 N 
ATOM      2  C   UNL     1       0.548  10.819  19.646  0.00  0.00    +0.000 A 
ATOM      3  C   UNL     1       0.376   9.954  18.588  0.00  0.00    +0.000 A 
ATOM      4  C   UNL     1      -0.912  10.200  18.026  0.00  0.00    +0.000 A 
ATOM      5  C   UNL     1      -1.637   9.642  16.951  0.00  0.00    +0.000 A 
ATOM      6  C   UNL     1      -2.913  10.122  16.645  0.00  0.00    +0.000 A 
ATOM      7  C   UNL     1      -3.472  11.155  17.389  0.00  0.00    +0.000 A 
ATOM      8  C   UNL     1      -2.775  11.734  18.454  0.00  0.00    +0.000 A 
ATOM      9  C   UNL     1      -1.496  11.240  18.761  0.00  0.00    +0.000 A 
ENDROOT
BRANCH   1  10
ATOM     10  C   UNL     1      -0.719  12.736  20.648  0.00  0.00    +0.000 C 
BRANCH  10  12
ATOM     11  O   UNL     1      -0.510  11.767  22.848  0.00  0.00    +0.000 OA
ATOM     12  C   UNL     1      -1.222  12.367  22.035  0.00  0.00    +0.000 C 
ATOM     13  N   UNL     1      -2.545  12.724  22.349  0.00  0.00    +0.000 N 
ATOM     14  C   UNL     1      -3.462  13.406  21.431  0.00  0.00    +0.000 C 
ATOM     15  C   UNL     1      -3.655  14.879  21.794  0.00  0.00    +0.000 C 
ATOM     16  C   UNL     1      -4.588  15.121  22.979  0.00  0.00    +0.000 C 
ATOM     17  C   UNL     1      -4.175  14.425  24.273  0.00  0.00    +0.000 C 
ATOM     18  C   UNL     1      -4.304  12.906  24.189  0.00  0.00    +0.000 C 
ATOM     19  C   UNL     1      -3.073  12.209  23.612  0.00  0.00    +0.000 C 
ENDBRANCH  10  12
ENDBRANCH   1  10
BRANCH   3  20
ATOM     20  S   UNL     1       1.524   8.799  17.942  0.00  0.00    +0.000 S 
BRANCH  20  21
ATOM     21  C   UNL     1       2.251   8.069  19.430  0.00  0.00    +0.000 C 
BRANCH  21  22
ATOM     22  C   UNL     1       2.097   6.565  19.445  0.00  0.00    +0.000 A 
ATOM     23  C   UNL     1       1.664   5.901  20.605  0.00  0.00    +0.000 A 
ATOM     24  C   UNL     1       1.544   4.509  20.629  0.00  0.00    +0.000 A 
ATOM     25  C   UNL     1       1.849   3.762  19.493  0.00  0.00    +0.000 A 
ATOM     26  C   UNL     1       2.257   4.413  18.331  0.00  0.00    +0.000 A 
ATOM     27 CL   UNL     1       2.633   3.491  16.927  0.00  0.00    +0.000 Cl
ATOM     28  C   UNL     1       2.374   5.803  18.299  0.00  0.00    +0.000 A 
ENDBRANCH  21  22
ENDBRANCH  20  21
ENDBRANCH   3  20
TORSDOF 5
ENDMDL
MODEL 8
REMARK VINA RESULT:      -7.7      3.707      6.647
REMARK  Name = 
REMARK  5 active torsions:
REMARK  status: ('A' for Active; 'I' for Inactive)
REMARK    1  A    between atoms: C_2  and  C_3
REMARK    2  A    between atoms: C_3  and  N_4
REMARK    3  A    between atoms: C_6  and  S_7
REMARK    4  A    between atoms: S_7  and  C_8
REMARK    5  A    between atoms: C_8  and  C_9
REMARK                            x       y       z     vdW  Elec       q    Type
REMARK                         _______ _______ _______ _____ _____    ______ ____
ROOT
ATOM      1  N   UNL     1      -0.855  11.130  19.359  0.00  0.00    +0.000 N 
ATOM      2  C   UNL     1      -0.067  10.638  18.342  0.00  0.00    +0.000 A 
ATOM      3  C   UNL     1       0.840   9.765  18.898  0.00  0.00    +0.000 A 
ATOM      4  C   UNL     1       0.611   9.734  20.306  0.00  0.00    +0.000 A 
ATOM      5  C   UNL     1       1.210   9.045  21.383  0.00  0.00    +0.000 A 
ATOM      6  C   UNL     1       0.737   9.237  22.684  0.00  0.00    +0.000 A 
ATOM      7  C   UNL     1      -0.329  10.095  22.925  0.00  0.00    +0.000 A 
ATOM      8  C   UNL     1      -0.950  10.784  21.878  0.00  0.00    +0.000 A 
ATOM      9  C   UNL     1      -0.461  10.594  20.573  0.00  0.00    +0.000 A 
ENDROOT
BRANCH   1  10
ATOM     10  C   UNL     1      -2.031  11.972  19.146  0.00  0.00    +0.000 C 
BRANCH  10  12
ATOM     11  O   UNL     1      -3.001  10.329  17.668  0.00  0.00    +0.000 OA
ATOM     12  C   UNL     1      -3.187  11.261  18.458  0.00  0.00    +0.000 C 
ATOM     13  N   UNL     1      -4.483  11.723  18.747  0.00  0.00    +0.000 N 
ATOM     14  C   UNL     1      -4.785  12.842  19.645  0.00  0.00    +0.000 C 
ATOM     15  C   UNL     1      -5.344  12.371  20.988  0.00  0.00    +0.000 C 
ATOM     16  C   UNL     1      -6.810  11.947  20.949  0.00  0.00    +0.000 C 
ATOM     17  C   UNL     1      -7.130  10.835  19.953  0.00  0.00    +0.000 C 
ATOM     18  C   UNL     1      -6.985  11.287  18.502  0.00  0.00    +0.000 C 
ATOM     19  C   UNL     1      -5.568  11.154  17.949  0.00  0.00    +0.000 C 
ENDBRANCH  10  12
ENDBRANCH   1  10
BRANCH   3  20
ATOM     20  S   UNL     1       2.027   8.773  18.075  0.00  0.00    +0.000 S 
BRANCH  20  21
ATOM     21  C   UNL     1       2.276   7.396  19.224  0.00  0.00    +0.000 C 
BRANCH  21  22
ATOM     22  C   UNL     1       2.691   6.135  18.499  0.00  0.00    +0.000 A 
ATOM     23  C   UNL     1       1.742   5.152  18.174  0.00  0.00    +0.000 A 
ATOM     24  C   UNL     1       2.126   3.974  17.527  0.00  0.00    +0.000 A 
ATOM     25  C   UNL     1       3.462   3.766  17.191  0.00  0.00    +0.000 A 
ATOM     26  C   UNL     1       4.407   4.745  17.488  0.00  0.00    +0.000 A 
ATOM     27 CL   UNL     1       6.057   4.489  17.073  0.00  0.00    +0.000 Cl
ATOM     28  C   UNL     1       4.029   5.926  18.130  0.00  0.00    +0.000 A 
ENDBRANCH  21  22
ENDBRANCH  20  21
ENDBRANCH   3  20
TORSDOF 5
ENDMDL
MODEL 9
REMARK VINA RESULT:      -7.7      4.825      7.110
REMARK  Name = 
REMARK  5 active torsions:
REMARK  status: ('A' for Active; 'I' for Inactive)
REMARK    1  A    between atoms: C_2  and  C_3
REMARK    2  A    between atoms: C_3  and  N_4
REMARK    3  A    between atoms: C_6  and  S_7
REMARK    4  A    between atoms: S_7  and  C_8
REMARK    5  A    between atoms: C_8  and  C_9
REMARK                            x       y       z     vdW  Elec       q    Type
REMARK                         _______ _______ _______ _____ _____    ______ ____
ROOT
ATOM      1  N   UNL     1       4.545   6.416  17.441  0.00  0.00    +0.000 N 
ATOM      2  C   UNL     1       5.437   7.167  18.173  0.00  0.00    +0.000 A 
ATOM      3  C   UNL     1       6.694   6.945  17.658  0.00  0.00    +0.000 A 
ATOM      4  C   UNL     1       6.570   6.014  16.586  0.00  0.00    +0.000 A 
ATOM      5  C   UNL     1       7.487   5.413  15.696  0.00  0.00    +0.000 A 
ATOM      6  C   UNL     1       7.033   4.516  14.725  0.00  0.00    +0.000 A 
ATOM      7  C   UNL     1       5.679   4.218  14.622  0.00  0.00    +0.000 A 
ATOM      8  C   UNL     1       4.745   4.805  15.482  0.00  0.00    +0.000 A 
ATOM      9  C   UNL     1       5.211   5.698  16.462  0.00  0.00    +0.000 A 
ENDROOT
BRANCH   1  10
ATOM     10  C   UNL     1       3.093   6.499  17.590  0.00  0.00    +0.000 C 
BRANCH  10  12
ATOM     11  O   UNL     1       2.223   7.235  19.717  0.00  0.00    +0.000 OA
ATOM     12  C   UNL     1       2.602   6.291  19.014  0.00  0.00    +0.000 C 
ATOM     13  N   UNL     1       2.613   4.975  19.507  0.00  0.00    +0.000 N 
ATOM     14  C   UNL     1       3.076   3.808  18.750  0.00  0.00    +0.000 C 
ATOM     15  C   UNL     1       1.918   2.936  18.264  0.00  0.00    +0.000 C 
ATOM     16  C   UNL     1       1.299   2.049  19.341  0.00  0.00    +0.000 C 
ATOM     17  C   UNL     1       0.772   2.796  20.563  0.00  0.00    +0.000 C 
ATOM     18  C   UNL     1       1.889   3.420  21.396  0.00  0.00    +0.000 C 
ATOM     19  C   UNL     1       2.310   4.811  20.928  0.00  0.00    +0.000 C 
ENDBRANCH  10  12
ENDBRANCH   1  10
BRANCH   3  20
ATOM     20  S   UNL     1       8.202   7.704  18.129  0.00  0.00    +0.000 S 
BRANCH  20  21
ATOM     21  C   UNL     1       8.053   9.372  17.442  0.00  0.00    +0.000 C 
BRANCH  21  22
ATOM     22  C   UNL     1       8.740  10.398  18.316  0.00  0.00    +0.000 A 
ATOM     23  C   UNL     1       9.262  10.036  19.569  0.00  0.00    +0.000 A 
ATOM     24  C   UNL     1       9.876  10.986  20.389  0.00  0.00    +0.000 A 
ATOM     25  C   UNL     1       9.982  12.310  19.966  0.00  0.00    +0.000 A 
ATOM     26  C   UNL     1       9.488  12.674  18.714  0.00  0.00    +0.000 A 
ATOM     27 CL   UNL     1       9.620  14.307  18.191  0.00  0.00    +0.000 Cl
ATOM     28  C   UNL     1       8.878  11.727  17.889  0.00  0.00    +0.000 A 
ENDBRANCH  21  22
ENDBRANCH  20  21
ENDBRANCH   3  20
TORSDOF 5
ENDMDL
