MODEL 1
REMARK VINA RESULT:      -7.5      0.000      0.000
REMARK  Name = 
REMARK  4 active torsions:
REMARK  status: ('A' for Active; 'I' for Inactive)
REMARK    1  A    between atoms: O_1  and  C_2
REMARK    2  A    between atoms: C_11  and  C_12
REMARK    3  A    between atoms: C_12  and  N_13
REMARK    4  A    between atoms: C_12  and  C_24
REMARK                            x       y       z     vdW  Elec       q    Type
REMARK                         _______ _______ _______ _____ _____    ______ ____
ROOT
ATOM      1  C   UNL     1       0.550  11.883  19.287  0.00  0.00    +0.000 C 
ENDROOT
BRANCH   1   2
ATOM      2  N   UNL     1       0.822  10.834  18.315  0.00  0.00    +0.000 N 
ATOM      3  C   UNL     1       1.288   9.628  18.704  0.00  0.00    +0.000 A 
ATOM      4  N   UNL     1       1.166   9.111  19.908  0.00  0.00    +0.000 NA
ATOM      5  C   UNL     1       1.637   7.814  19.935  0.00  0.00    +0.000 A 
ATOM      6  C   UNL     1       1.582   6.934  21.037  0.00  0.00    +0.000 A 
ATOM      7  C   UNL     1       2.054   5.621  20.904  0.00  0.00    +0.000 A 
ATOM      8  C   UNL     1       2.597   5.193  19.695  0.00  0.00    +0.000 A 
ATOM      9 CL   UNL     1       3.138   3.565  19.539  0.00  0.00    +0.000 Cl
ATOM     10  C   UNL     1       2.695   6.052  18.598  0.00  0.00    +0.000 A 
ATOM     11  C   UNL     1       2.192   7.357  18.738  0.00  0.00    +0.000 A 
ATOM     12  S   UNL     1       2.107   8.621  17.573  0.00  0.00    +0.000 S 
ATOM     13  H   UNL     1       0.996  11.164  17.375  0.00  0.00    +0.000 HD
ENDBRANCH   1   2
BRANCH   1  23
ATOM     14  C   UNL     1      -1.854  11.932  18.376  0.00  0.00    +0.000 A 
ATOM     15  C   UNL     1      -3.234  12.039  18.526  0.00  0.00    +0.000 A 
ATOM     16  C   UNL     1      -3.775  12.237  19.789  0.00  0.00    +0.000 A 
ATOM     17  C   UNL     1      -2.950  12.378  20.906  0.00  0.00    +0.000 A 
ATOM     18  C   UNL     1      -3.544  12.530  22.169  0.00  0.00    +0.000 A 
ATOM     19  C   UNL     1      -2.773  12.722  23.310  0.00  0.00    +0.000 A 
ATOM     20  C   UNL     1      -1.396  12.800  23.191  0.00  0.00    +0.000 A 
ATOM     21  C   UNL     1      -0.789  12.625  21.942  0.00  0.00    +0.000 A 
ATOM     22  C   UNL     1      -1.533  12.361  20.762  0.00  0.00    +0.000 A 
ATOM     23  C   UNL     1      -0.967  12.078  19.465  0.00  0.00    +0.000 A 
BRANCH  14  24
ATOM     24  O   UNL     1      -1.372  11.649  17.126  0.00  0.00    +0.000 OA
ATOM     25  H   UNL     1      -1.437  12.453  16.581  0.00  0.00    +0.000 HD
ENDBRANCH  14  24
ENDBRANCH   1  23
BRANCH   1  26
ATOM     26  C   UNL     1       1.312  13.169  18.945  0.00  0.00    +0.000 A 
ATOM     27  C   UNL     1       2.652  13.086  18.538  0.00  0.00    +0.000 A 
ATOM     28  C   UNL     1       3.390  14.240  18.257  0.00  0.00    +0.000 A 
ATOM     29  C   UNL     1       2.805  15.502  18.391  0.00  0.00    +0.000 A 
ATOM     30 CL   UNL     1       3.786  16.887  18.075  0.00  0.00    +0.000 Cl
ATOM     31  C   UNL     1       1.468  15.606  18.777  0.00  0.00    +0.000 A 
ATOM     32 CL   UNL     1       0.668  17.125  18.971  0.00  0.00    +0.000 Cl
ATOM     33  C   UNL     1       0.728  14.447  19.035  0.00  0.00    +0.000 A 
ENDBRANCH   1  26
TORSDOF 4
ENDMDL
MODEL 2
REMARK VINA RESULT:      -7.5      0.537      1.283
REMARK  Name = 
REMARK  4 active torsions:
REMARK  status: ('A' for Active; 'I' for Inactive)
REMARK    1  A    between atoms: O_1  and  C_2
REMARK    2  A    between atoms: C_11  and  C_12
REMARK    3  A    between atoms: C_12  and  N_13
REMARK    4  A    between atoms: C_12  and  C_24
REMARK                            x       y       z     vdW  Elec       q    Type
REMARK                         _______ _______ _______ _____ _____    ______ ____
ROOT
ATOM      1  C   UNL     1       0.553  11.969  19.323  0.00  0.00    +0.000 C 
ENDROOT
BRANCH   1   2
ATOM      2  N   UNL     1       0.841  10.936  18.339  0.00  0.00    +0.000 N 
ATOM      3  C   UNL     1       1.302   9.724  18.715  0.00  0.00    +0.000 A 
ATOM      4  N   UNL     1       1.161   9.187  19.909  0.00  0.00    +0.000 NA
ATOM      5  C   UNL     1       1.633   7.890  19.922  0.00  0.00    +0.000 A 
ATOM      6  C   UNL     1       1.561   6.992  21.008  0.00  0.00    +0.000 A 
ATOM      7  C   UNL     1       2.036   5.682  20.861  0.00  0.00    +0.000 A 
ATOM      8  C   UNL     1       2.599   5.274  19.654  0.00  0.00    +0.000 A 
ATOM      9 CL   UNL     1       3.144   3.649  19.481  0.00  0.00    +0.000 Cl
ATOM     10  C   UNL     1       2.713   6.151  18.573  0.00  0.00    +0.000 A 
ATOM     11  C   UNL     1       2.207   7.453  18.727  0.00  0.00    +0.000 A 
ATOM     12  S   UNL     1       2.140   8.736  17.581  0.00  0.00    +0.000 S 
ATOM     13  H   UNL     1       1.030  11.282  17.407  0.00  0.00    +0.000 HD
ENDBRANCH   1   2
BRANCH   1  23
ATOM     14  C   UNL     1      -1.852  11.964  18.417  0.00  0.00    +0.000 A 
ATOM     15  C   UNL     1      -3.234  12.049  18.568  0.00  0.00    +0.000 A 
ATOM     16  C   UNL     1      -3.777  12.253  19.829  0.00  0.00    +0.000 A 
ATOM     17  C   UNL     1      -2.952  12.420  20.944  0.00  0.00    +0.000 A 
ATOM     18  C   UNL     1      -3.546  12.577  22.206  0.00  0.00    +0.000 A 
ATOM     19  C   UNL     1      -2.777  12.795  23.343  0.00  0.00    +0.000 A 
ATOM     20  C   UNL     1      -1.401  12.897  23.220  0.00  0.00    +0.000 A 
ATOM     21  C   UNL     1      -0.793  12.717  21.973  0.00  0.00    +0.000 A 
ATOM     22  C   UNL     1      -1.535  12.427  20.797  0.00  0.00    +0.000 A 
ATOM     23  C   UNL     1      -0.967  12.138  19.502  0.00  0.00    +0.000 A 
BRANCH  14  24
ATOM     24  O   UNL     1      -1.369  11.676  17.169  0.00  0.00    +0.000 OA
ATOM     25  H   UNL     1      -0.613  11.069  17.264  0.00  0.00    +0.000 HD
ENDBRANCH  14  24
ENDBRANCH   1  23
BRANCH   1  26
ATOM     26  C   UNL     1       1.297  13.270  18.998  0.00  0.00    +0.000 A 
ATOM     27  C   UNL     1       0.595  14.485  19.015  0.00  0.00    +0.000 A 
ATOM     28  C   UNL     1       1.231  15.686  18.686  0.00  0.00    +0.000 A 
ATOM     29  C   UNL     1       2.579  15.693  18.319  0.00  0.00    +0.000 A 
ATOM     30 CL   UNL     1       3.290  17.203  17.878  0.00  0.00    +0.000 Cl
ATOM     31  C   UNL     1       3.300  14.498  18.313  0.00  0.00    +0.000 A 
ATOM     32 CL   UNL     1       4.968  14.416  17.869  0.00  0.00    +0.000 Cl
ATOM     33  C   UNL     1       2.664  13.303  18.665  0.00  0.00    +0.000 A 
ENDBRANCH   1  26
TORSDOF 4
ENDMDL
MODEL 3
REMARK VINA RESULT:      -7.5      2.689      6.809
REMARK  Name = 
REMARK  4 active torsions:
REMARK  status: ('A' for Active; 'I' for Inactive)
REMARK    1  A    between atoms: O_1  and  C_2
REMARK    2  A    between atoms: C_11  and  C_12
REMARK    3  A    between atoms: C_12  and  N_13
REMARK    4  A    between atoms: C_12  and  C_24
REMARK                            x       y       z     vdW  Elec       q    Type
REMARK                         _______ _______ _______ _____ _____    ______ ____
ROOT
ATOM      1  C   UNL     1      -0.169  11.886  19.227  0.00  0.00    +0.000 C 
ENDROOT
BRANCH   1   2
ATOM      2  N   UNL     1       0.371  12.881  20.142  0.00  0.00    +0.000 N 
ATOM      3  C   UNL     1       1.592  13.422  19.943  0.00  0.00    +0.000 A 
ATOM      4  N   UNL     1       2.231  13.468  18.793  0.00  0.00    +0.000 NA
ATOM      5  C   UNL     1       3.395  14.201  18.908  0.00  0.00    +0.000 A 
ATOM      6  C   UNL     1       4.278  14.526  17.857  0.00  0.00    +0.000 A 
ATOM      7  C   UNL     1       5.401  15.326  18.112  0.00  0.00    +0.000 A 
ATOM      8  C   UNL     1       5.656  15.780  19.404  0.00  0.00    +0.000 A 
ATOM      9 CL   UNL     1       7.019  16.793  19.692  0.00  0.00    +0.000 Cl
ATOM     10  C   UNL     1       4.817  15.447  20.470  0.00  0.00    +0.000 A 
ATOM     11  C   UNL     1       3.680  14.667  20.193  0.00  0.00    +0.000 A 
ATOM     12  S   UNL     1       2.434  14.145  21.259  0.00  0.00    +0.000 S 
ATOM     13  H   UNL     1      -0.027  12.859  21.072  0.00  0.00    +0.000 HD
ENDBRANCH   1   2
BRANCH   1  23
ATOM     14  C   UNL     1      -2.423  12.476  20.311  0.00  0.00    +0.000 A 
ATOM     15  C   UNL     1      -3.812  12.585  20.304  0.00  0.00    +0.000 A 
ATOM     16  C   UNL     1      -4.526  12.204  19.176  0.00  0.00    +0.000 A 
ATOM     17  C   UNL     1      -3.872  11.668  18.064  0.00  0.00    +0.000 A 
ATOM     18  C   UNL     1      -4.631  11.340  16.929  0.00  0.00    +0.000 A 
ATOM     19  C   UNL     1      -4.042  10.758  15.812  0.00  0.00    +0.000 A 
ATOM     20  C   UNL     1      -2.689  10.464  15.836  0.00  0.00    +0.000 A 
ATOM     21  C   UNL     1      -1.916  10.809  16.951  0.00  0.00    +0.000 A 
ATOM     22  C   UNL     1      -2.463  11.464  18.086  0.00  0.00    +0.000 A 
ATOM     23  C   UNL     1      -1.708  11.930  19.224  0.00  0.00    +0.000 A 
BRANCH  14  24
ATOM     24  O   UNL     1      -1.757  12.946  21.411  0.00  0.00    +0.000 OA
ATOM     25  H   UNL     1      -1.820  13.917  21.418  0.00  0.00    +0.000 HD
ENDBRANCH  14  24
ENDBRANCH   1  23
BRANCH   1  26
ATOM     26  C   UNL     1       0.420  10.497  19.505  0.00  0.00    +0.000 A 
ATOM     27  C   UNL     1       0.123   9.855  20.717  0.00  0.00    +0.000 A 
ATOM     28  C   UNL     1       0.674   8.606  21.021  0.00  0.00    +0.000 A 
ATOM     29  C   UNL     1       1.543   7.981  20.124  0.00  0.00    +0.000 A 
ATOM     30 CL   UNL     1       2.225   6.463  20.583  0.00  0.00    +0.000 Cl
ATOM     31  C   UNL     1       1.836   8.594  18.904  0.00  0.00    +0.000 A 
ATOM     32 CL   UNL     1       2.903   7.893  17.740  0.00  0.00    +0.000 Cl
ATOM     33  C   UNL     1       1.265   9.833  18.596  0.00  0.00    +0.000 A 
ENDBRANCH   1  26
TORSDOF 4
ENDMDL
MODEL 4
REMARK VINA RESULT:      -7.5      3.285      7.108
REMARK  Name = 
REMARK  4 active torsions:
REMARK  status: ('A' for Active; 'I' for Inactive)
REMARK    1  A    between atoms: O_1  and  C_2
REMARK    2  A    between atoms: C_11  and  C_12
REMARK    3  A    between atoms: C_12  and  N_13
REMARK    4  A    between atoms: C_12  and  C_24
REMARK                            x       y       z     vdW  Elec       q    Type
REMARK                         _______ _______ _______ _____ _____    ______ ____
ROOT
ATOM      1  C   UNL     1      -0.023  12.092  19.896  0.00  0.00    +0.000 C 
ENDROOT
BRANCH   1   2
ATOM      2  N   UNL     1       0.985  12.620  18.989  0.00  0.00    +0.000 N 
ATOM      3  C   UNL     1       1.994  13.394  19.442  0.00  0.00    +0.000 A 
ATOM      4  N   UNL     1       2.436  13.428  20.682  0.00  0.00    +0.000 NA
ATOM      5  C   UNL     1       3.557  14.227  20.780  0.00  0.00    +0.000 A 
ATOM      6  C   UNL     1       4.338  14.421  21.939  0.00  0.00    +0.000 A 
ATOM      7  C   UNL     1       5.486  15.223  21.880  0.00  0.00    +0.000 A 
ATOM      8  C   UNL     1       5.843  15.844  20.686  0.00  0.00    +0.000 A 
ATOM      9 CL   UNL     1       7.278  16.796  20.622  0.00  0.00    +0.000 Cl
ATOM     10  C   UNL     1       5.071  15.697  19.531  0.00  0.00    +0.000 A 
ATOM     11  C   UNL     1       3.937  14.868  19.599  0.00  0.00    +0.000 A 
ATOM     12  S   UNL     1       2.829  14.436  18.356  0.00  0.00    +0.000 S 
ATOM     13  H   UNL     1       0.690  12.688  18.023  0.00  0.00    +0.000 HD
ENDBRANCH   1   2
BRANCH   1  23
ATOM     14  C   UNL     1       0.240  10.541  21.929  0.00  0.00    +0.000 A 
ATOM     15  C   UNL     1       0.621   9.346  22.536  0.00  0.00    +0.000 A 
ATOM     16  C   UNL     1       1.193   8.338  21.772  0.00  0.00    +0.000 A 
ATOM     17  C   UNL     1       1.435   8.525  20.409  0.00  0.00    +0.000 A 
ATOM     18  C   UNL     1       1.973   7.460  19.668  0.00  0.00    +0.000 A 
ATOM     19  C   UNL     1       2.279   7.604  18.319  0.00  0.00    +0.000 A 
ATOM     20  C   UNL     1       2.084   8.830  17.707  0.00  0.00    +0.000 A 
ATOM     21  C   UNL     1       1.525   9.893  18.427  0.00  0.00    +0.000 A 
ATOM     22  C   UNL     1       1.136   9.771  19.788  0.00  0.00    +0.000 A 
ATOM     23  C   UNL     1       0.471  10.793  20.559  0.00  0.00    +0.000 A 
BRANCH  14  24
ATOM     24  O   UNL     1      -0.399  11.470  22.705  0.00  0.00    +0.000 OA
ATOM     25  H   UNL     1      -0.902  11.002  23.395  0.00  0.00    +0.000 HD
ENDBRANCH  14  24
ENDBRANCH   1  23
BRANCH   1  26
ATOM     26  C   UNL     1      -1.385  11.965  19.202  0.00  0.00    +0.000 A 
ATOM     27  C   UNL     1      -2.554  12.245  19.926  0.00  0.00    +0.000 A 
ATOM     28  C   UNL     1      -3.814  12.102  19.338  0.00  0.00    +0.000 A 
ATOM     29  C   UNL     1      -3.931  11.661  18.017  0.00  0.00    +0.000 A 
ATOM     30 CL   UNL     1      -5.518  11.460  17.368  0.00  0.00    +0.000 Cl
ATOM     31  C   UNL     1      -2.780  11.395  17.274  0.00  0.00    +0.000 A 
ATOM     32 CL   UNL     1      -2.833  10.842  15.637  0.00  0.00    +0.000 Cl
ATOM     33  C   UNL     1      -1.521  11.561  17.860  0.00  0.00    +0.000 A 
ENDBRANCH   1  26
TORSDOF 4
ENDMDL
MODEL 5
REMARK VINA RESULT:      -7.4      1.064      1.200
REMARK  Name = 
REMARK  4 active torsions:
REMARK  status: ('A' for Active; 'I' for Inactive)
REMARK    1  A    between atoms: O_1  and  C_2
REMARK    2  A    between atoms: C_11  and  C_12
REMARK    3  A    between atoms: C_12  and  N_13
REMARK    4  A    between atoms: C_12  and  C_24
REMARK                            x       y       z     vdW  Elec       q    Type
REMARK                         _______ _______ _______ _____ _____    ______ ____
ROOT
ATOM      1  C   UNL     1      -0.298  12.032  19.331  0.00  0.00    +0.000 C 
ENDROOT
BRANCH   1   2
ATOM      2  N   UNL     1       0.301  11.130  18.358  0.00  0.00    +0.000 N 
ATOM      3  C   UNL     1       0.913   9.991  18.748  0.00  0.00    +0.000 A 
ATOM      4  N   UNL     1       0.706   9.360  19.885  0.00  0.00    +0.000 NA
ATOM      5  C   UNL     1       1.394   8.164  19.914  0.00  0.00    +0.000 A 
ATOM      6  C   UNL     1       1.333   7.197  20.939  0.00  0.00    +0.000 A 
ATOM      7  C   UNL     1       2.048   5.998  20.810  0.00  0.00    +0.000 A 
ATOM      8  C   UNL     1       2.835   5.772  19.684  0.00  0.00    +0.000 A 
ATOM      9 CL   UNL     1       3.678   4.278  19.525  0.00  0.00    +0.000 Cl
ATOM     10  C   UNL     1       2.941   6.726  18.668  0.00  0.00    +0.000 A 
ATOM     11  C   UNL     1       2.196   7.911  18.799  0.00  0.00    +0.000 A 
ATOM     12  S   UNL     1       2.061   9.237  17.710  0.00  0.00    +0.000 S 
ATOM     13  H   UNL     1       0.552  11.563  17.479  0.00  0.00    +0.000 HD
ENDBRANCH   1   2
BRANCH   1  23
ATOM     14  C   UNL     1      -2.431  11.731  17.928  0.00  0.00    +0.000 A 
ATOM     15  C   UNL     1      -3.814  11.706  17.764  0.00  0.00    +0.000 A 
ATOM     16  C   UNL     1      -4.640  11.972  18.847  0.00  0.00    +0.000 A 
ATOM     17  C   UNL     1      -4.101  12.312  20.090  0.00  0.00    +0.000 A 
ATOM     18  C   UNL     1      -4.975  12.528  21.168  0.00  0.00    +0.000 A 
ATOM     19  C   UNL     1      -4.498  12.915  22.415  0.00  0.00    +0.000 A 
ATOM     20  C   UNL     1      -3.140  13.128  22.585  0.00  0.00    +0.000 A 
ATOM     21  C   UNL     1      -2.256  12.892  21.527  0.00  0.00    +0.000 A 
ATOM     22  C   UNL     1      -2.691  12.432  20.256  0.00  0.00    +0.000 A 
ATOM     23  C   UNL     1      -1.827  12.080  19.155  0.00  0.00    +0.000 A 
BRANCH  14  24
ATOM     24  O   UNL     1      -1.659  11.376  16.854  0.00  0.00    +0.000 OA
ATOM     25  H   UNL     1      -1.167  12.160  16.555  0.00  0.00    +0.000 HD
ENDBRANCH  14  24
ENDBRANCH   1  23
BRANCH   1  26
ATOM     26  C   UNL     1       0.381  13.406  19.309  0.00  0.00    +0.000 A 
ATOM     27  C   UNL     1       1.642  13.559  19.905  0.00  0.00    +0.000 A 
ATOM     28  C   UNL     1       2.273  14.807  19.938  0.00  0.00    +0.000 A 
ATOM     29  C   UNL     1       1.649  15.928  19.387  0.00  0.00    +0.000 A 
ATOM     30 CL   UNL     1       2.463  17.446  19.505  0.00  0.00    +0.000 Cl
ATOM     31  C   UNL     1       0.403  15.794  18.773  0.00  0.00    +0.000 A 
ATOM     32 CL   UNL     1      -0.440  17.129  18.071  0.00  0.00    +0.000 Cl
ATOM     33  C   UNL     1      -0.214  14.540  18.723  0.00  0.00    +0.000 A 
ENDBRANCH   1  26
TORSDOF 4
ENDMDL
MODEL 6
REMARK VINA RESULT:      -7.3      2.587      4.470
REMARK  Name = 
REMARK  4 active torsions:
REMARK  status: ('A' for Active; 'I' for Inactive)
REMARK    1  A    between atoms: O_1  and  C_2
REMARK    2  A    between atoms: C_11  and  C_12
REMARK    3  A    between atoms: C_12  and  N_13
REMARK    4  A    between atoms: C_12  and  C_24
REMARK                            x       y       z     vdW  Elec       q    Type
REMARK                         _______ _______ _______ _____ _____    ______ ____
ROOT
ATOM      1  C   UNL     1       0.650  10.794  18.854  0.00  0.00    +0.000 C 
ENDROOT
BRANCH   1   2
ATOM      2  N   UNL     1       0.933   9.869  19.942  0.00  0.00    +0.000 N 
ATOM      3  C   UNL     1       1.470   8.654  19.701  0.00  0.00    +0.000 A 
ATOM      4  N   UNL     1       2.157   8.319  18.629  0.00  0.00    +0.000 NA
ATOM      5  C   UNL     1       2.673   7.045  18.756  0.00  0.00    +0.000 A 
ATOM      6  C   UNL     1       3.527   6.400  17.837  0.00  0.00    +0.000 A 
ATOM      7  C   UNL     1       4.019   5.119  18.122  0.00  0.00    +0.000 A 
ATOM      8  C   UNL     1       3.647   4.474  19.300  0.00  0.00    +0.000 A 
ATOM      9 CL   UNL     1       4.290   2.915  19.651  0.00  0.00    +0.000 Cl
ATOM     10  C   UNL     1       2.776   5.074  20.212  0.00  0.00    +0.000 A 
ATOM     11  C   UNL     1       2.314   6.371  19.925  0.00  0.00    +0.000 A 
ATOM     12  S   UNL     1       1.295   7.394  20.862  0.00  0.00    +0.000 S 
ATOM     13  H   UNL     1       0.387  10.024  20.780  0.00  0.00    +0.000 HD
ENDBRANCH   1   2
BRANCH   1  23
ATOM     14  C   UNL     1       2.242  12.716  18.236  0.00  0.00    +0.000 A 
ATOM     15  C   UNL     1       2.791  13.981  18.429  0.00  0.00    +0.000 A 
ATOM     16  C   UNL     1       2.361  14.763  19.492  0.00  0.00    +0.000 A 
ATOM     17  C   UNL     1       1.418  14.277  20.401  0.00  0.00    +0.000 A 
ATOM     18  C   UNL     1       0.980  15.122  21.434  0.00  0.00    +0.000 A 
ATOM     19  C   UNL     1       0.079  14.676  22.395  0.00  0.00    +0.000 A 
ATOM     20  C   UNL     1      -0.364  13.365  22.352  0.00  0.00    +0.000 A 
ATOM     21  C   UNL     1       0.045  12.520  21.313  0.00  0.00    +0.000 A 
ATOM     22  C   UNL     1       0.911  12.952  20.274  0.00  0.00    +0.000 A 
ATOM     23  C   UNL     1       1.295  12.165  19.127  0.00  0.00    +0.000 A 
BRANCH  14  24
ATOM     24  O   UNL     1       2.632  12.018  17.125  0.00  0.00    +0.000 OA
ATOM     25  H   UNL     1       3.082  12.632  16.518  0.00  0.00    +0.000 HD
ENDBRANCH  14  24
ENDBRANCH   1  23
BRANCH   1  26
ATOM     26  C   UNL     1      -0.852  10.856  18.552  0.00  0.00    +0.000 A 
ATOM     27  C   UNL     1      -1.371  10.099  17.490  0.00  0.00    +0.000 A 
ATOM     28  C   UNL     1      -2.728  10.161  17.160  0.00  0.00    +0.000 A 
ATOM     29  C   UNL     1      -3.592  10.992  17.878  0.00  0.00    +0.000 A 
ATOM     30 CL   UNL     1      -5.246  11.057  17.388  0.00  0.00    +0.000 Cl
ATOM     31  C   UNL     1      -3.099  11.739  18.950  0.00  0.00    +0.000 A 
ATOM     32 CL   UNL     1      -4.096  12.795  19.887  0.00  0.00    +0.000 Cl
ATOM     33  C   UNL     1      -1.746  11.656  19.289  0.00  0.00    +0.000 A 
ENDBRANCH   1  26
TORSDOF 4
ENDMDL
MODEL 7
REMARK VINA RESULT:      -7.3      1.072      1.299
REMARK  Name = 
REMARK  4 active torsions:
REMARK  status: ('A' for Active; 'I' for Inactive)
REMARK    1  A    between atoms: O_1  and  C_2
REMARK    2  A    between atoms: C_11  and  C_12
REMARK    3  A    between atoms: C_12  and  N_13
REMARK    4  A    between atoms: C_12  and  C_24
REMARK                            x       y       z     vdW  Elec       q    Type
REMARK                         _______ _______ _______ _____ _____    ______ ____
ROOT
ATOM      1  C   UNL     1       0.597  11.735  19.711  0.00  0.00    +0.000 C 
ENDROOT
BRANCH   1   2
ATOM      2  N   UNL     1       0.928  10.819  18.629  0.00  0.00    +0.000 N 
ATOM      3  C   UNL     1       1.398   9.579  18.883  0.00  0.00    +0.000 A 
ATOM      4  N   UNL     1       1.233   8.913  20.007  0.00  0.00    +0.000 NA
ATOM      5  C   UNL     1       1.725   7.629  19.892  0.00  0.00    +0.000 A 
ATOM      6  C   UNL     1       1.639   6.617  20.871  0.00  0.00    +0.000 A 
ATOM      7  C   UNL     1       2.139   5.336  20.595  0.00  0.00    +0.000 A 
ATOM      8  C   UNL     1       2.740   5.070  19.368  0.00  0.00    +0.000 A 
ATOM      9 CL   UNL     1       3.316   3.482  19.033  0.00  0.00    +0.000 Cl
ATOM     10  C   UNL     1       2.870   6.062  18.392  0.00  0.00    +0.000 A 
ATOM     11  C   UNL     1       2.339   7.333  18.673  0.00  0.00    +0.000 A 
ATOM     12  S   UNL     1       2.282   8.733  17.672  0.00  0.00    +0.000 S 
ATOM     13  H   UNL     1       1.136  11.268  17.746  0.00  0.00    +0.000 HD
ENDBRANCH   1   2
BRANCH   1  23
ATOM     14  C   UNL     1      -1.704  11.882  18.573  0.00  0.00    +0.000 A 
ATOM     15  C   UNL     1      -3.083  12.071  18.586  0.00  0.00    +0.000 A 
ATOM     16  C   UNL     1      -3.729  12.344  19.785  0.00  0.00    +0.000 A 
ATOM     17  C   UNL     1      -3.005  12.480  20.971  0.00  0.00    +0.000 A 
ATOM     18  C   UNL     1      -3.705  12.710  22.167  0.00  0.00    +0.000 A 
ATOM     19  C   UNL     1      -3.035  12.901  23.369  0.00  0.00    +0.000 A 
ATOM     20  C   UNL     1      -1.650  12.899  23.381  0.00  0.00    +0.000 A 
ATOM     21  C   UNL     1      -0.940  12.645  22.202  0.00  0.00    +0.000 A 
ATOM     22  C   UNL     1      -1.584  12.380  20.964  0.00  0.00    +0.000 A 
ATOM     23  C   UNL     1      -0.917  12.018  19.737  0.00  0.00    +0.000 A 
BRANCH  14  24
ATOM     24  O   UNL     1      -1.125  11.528  17.384  0.00  0.00    +0.000 OA
ATOM     25  H   UNL     1      -1.014  12.329  16.844  0.00  0.00    +0.000 HD
ENDBRANCH  14  24
ENDBRANCH   1  23
BRANCH   1  26
ATOM     26  C   UNL     1       1.471  12.993  19.663  0.00  0.00    +0.000 A 
ATOM     27  C   UNL     1       1.357  13.868  18.573  0.00  0.00    +0.000 A 
ATOM     28  C   UNL     1       2.167  15.005  18.477  0.00  0.00    +0.000 A 
ATOM     29  C   UNL     1       3.116  15.280  19.463  0.00  0.00    +0.000 A 
ATOM     30 CL   UNL     1       4.116  16.673  19.258  0.00  0.00    +0.000 Cl
ATOM     31  C   UNL     1       3.233  14.432  20.566  0.00  0.00    +0.000 A 
ATOM     32 CL   UNL     1       4.384  14.696  21.828  0.00  0.00    +0.000 Cl
ATOM     33  C   UNL     1       2.406  13.309  20.668  0.00  0.00    +0.000 A 
ENDBRANCH   1  26
TORSDOF 4
ENDMDL
MODEL 8
REMARK VINA RESULT:      -7.2      2.945      5.148
REMARK  Name = 
REMARK  4 active torsions:
REMARK  status: ('A' for Active; 'I' for Inactive)
REMARK    1  A    between atoms: O_1  and  C_2
REMARK    2  A    between atoms: C_11  and  C_12
REMARK    3  A    between atoms: C_12  and  N_13
REMARK    4  A    between atoms: C_12  and  C_24
REMARK                            x       y       z     vdW  Elec       q    Type
REMARK                         _______ _______ _______ _____ _____    ______ ____
ROOT
ATOM      1  C   UNL     1       0.441  11.629  19.645  0.00  0.00    +0.000 C 
ENDROOT
BRANCH   1   2
ATOM      2  N   UNL     1       0.672  10.567  20.614  0.00  0.00    +0.000 N 
ATOM      3  C   UNL     1       1.120   9.354  20.225  0.00  0.00    +0.000 A 
ATOM      4  N   UNL     1       1.769   9.099  19.108  0.00  0.00    +0.000 NA
ATOM      5  C   UNL     1       2.196   7.787  19.078  0.00  0.00    +0.000 A 
ATOM      6  C   UNL     1       2.992   7.196  18.074  0.00  0.00    +0.000 A 
ATOM      7  C   UNL     1       3.395   5.860  18.201  0.00  0.00    +0.000 A 
ATOM      8  C   UNL     1       2.993   5.111  19.304  0.00  0.00    +0.000 A 
ATOM      9 CL   UNL     1       3.530   3.481  19.462  0.00  0.00    +0.000 Cl
ATOM     10  C   UNL     1       2.178   5.659  20.297  0.00  0.00    +0.000 A 
ATOM     11  C   UNL     1       1.804   7.008  20.169  0.00  0.00    +0.000 A 
ATOM     12  S   UNL     1       0.871   7.984  21.237  0.00  0.00    +0.000 S 
ATOM     13  H   UNL     1       0.149  10.661  21.475  0.00  0.00    +0.000 HD
ENDBRANCH   1   2
BRANCH   1  23
ATOM     14  C   UNL     1       0.251  13.361  21.536  0.00  0.00    +0.000 A 
ATOM     15  C   UNL     1       0.571  14.572  22.144  0.00  0.00    +0.000 A 
ATOM     16  C   UNL     1       1.454  15.443  21.521  0.00  0.00    +0.000 A 
ATOM     17  C   UNL     1       1.991  15.140  20.268  0.00  0.00    +0.000 A 
ATOM     18  C   UNL     1       2.917  16.029  19.698  0.00  0.00    +0.000 A 
ATOM     19  C   UNL     1       3.448  15.803  18.433  0.00  0.00    +0.000 A 
ATOM     20  C   UNL     1       3.027  14.701  17.708  0.00  0.00    +0.000 A 
ATOM     21  C   UNL     1       2.125  13.793  18.274  0.00  0.00    +0.000 A 
ATOM     22  C   UNL     1       1.608  13.948  19.588  0.00  0.00    +0.000 A 
ATOM     23  C   UNL     1       0.752  13.004  20.265  0.00  0.00    +0.000 A 
BRANCH  14  24
ATOM     24  O   UNL     1      -0.555  12.498  22.228  0.00  0.00    +0.000 OA
ATOM     25  H   UNL     1      -1.341  12.985  22.531  0.00  0.00    +0.000 HD
ENDBRANCH  14  24
ENDBRANCH   1  23
BRANCH   1  26
ATOM     26  C   UNL     1      -0.956  11.522  19.022  0.00  0.00    +0.000 A 
ATOM     27  C   UNL     1      -2.035  12.171  19.640  0.00  0.00    +0.000 A 
ATOM     28  C   UNL     1      -3.330  12.062  19.122  0.00  0.00    +0.000 A 
ATOM     29  C   UNL     1      -3.572  11.290  17.983  0.00  0.00    +0.000 A 
ATOM     30 CL   UNL     1      -5.200  11.159  17.425  0.00  0.00    +0.000 Cl
ATOM     31  C   UNL     1      -2.508  10.650  17.344  0.00  0.00    +0.000 A 
ATOM     32 CL   UNL     1      -2.719   9.673  15.934  0.00  0.00    +0.000 Cl
ATOM     33  C   UNL     1      -1.213  10.781  17.853  0.00  0.00    +0.000 A 
ENDBRANCH   1  26
TORSDOF 4
ENDMDL
MODEL 9
REMARK VINA RESULT:      -7.2      2.774      6.456
REMARK  Name = 
REMARK  4 active torsions:
REMARK  status: ('A' for Active; 'I' for Inactive)
REMARK    1  A    between atoms: O_1  and  C_2
REMARK    2  A    between atoms: C_11  and  C_12
REMARK    3  A    between atoms: C_12  and  N_13
REMARK    4  A    between atoms: C_12  and  C_24
REMARK                            x       y       z     vdW  Elec       q    Type
REMARK                         _______ _______ _______ _____ _____    ______ ____
ROOT
ATOM      1  C   UNL     1      -1.205  12.236  18.421  0.00  0.00    +0.000 C 
ENDROOT
BRANCH   1   2
ATOM      2  N   UNL     1      -1.028  13.506  19.110  0.00  0.00    +0.000 N 
ATOM      3  C   UNL     1       0.191  14.076  19.220  0.00  0.00    +0.000 A 
ATOM      4  N   UNL     1       1.223  13.835  18.438  0.00  0.00    +0.000 NA
ATOM      5  C   UNL     1       2.275  14.676  18.741  0.00  0.00    +0.000 A 
ATOM      6  C   UNL     1       3.502  14.753  18.049  0.00  0.00    +0.000 A 
ATOM      7  C   UNL     1       4.464  15.695  18.439  0.00  0.00    +0.000 A 
ATOM      8  C   UNL     1       4.218  16.537  19.520  0.00  0.00    +0.000 A 
ATOM      9 CL   UNL     1       5.397  17.714  19.961  0.00  0.00    +0.000 Cl
ATOM     10  C   UNL     1       3.027  16.461  20.245  0.00  0.00    +0.000 A 
ATOM     11  C   UNL     1       2.060  15.530  19.825  0.00  0.00    +0.000 A 
ATOM     12  S   UNL     1       0.487  15.236  20.457  0.00  0.00    +0.000 S 
ATOM     13  H   UNL     1      -1.751  13.726  19.782  0.00  0.00    +0.000 HD
ENDBRANCH   1   2
BRANCH   1  23
ATOM     14  C   UNL     1      -3.137  11.436  16.926  0.00  0.00    +0.000 A 
ATOM     15  C   UNL     1      -4.473  11.122  16.689  0.00  0.00    +0.000 A 
ATOM     16  C   UNL     1      -5.406  11.274  17.705  0.00  0.00    +0.000 A 
ATOM     17  C   UNL     1      -5.030  11.782  18.951  0.00  0.00    +0.000 A 
ATOM     18  C   UNL     1      -5.999  11.873  19.963  0.00  0.00    +0.000 A 
ATOM     19  C   UNL     1      -5.693  12.416  21.206  0.00  0.00    +0.000 A 
ATOM     20  C   UNL     1      -4.419  12.907  21.436  0.00  0.00    +0.000 A 
ATOM     21  C   UNL     1      -3.436  12.799  20.445  0.00  0.00    +0.000 A 
ATOM     22  C   UNL     1      -3.686  12.193  19.185  0.00  0.00    +0.000 A 
ATOM     23  C   UNL     1      -2.698  11.965  18.159  0.00  0.00    +0.000 A 
BRANCH  14  24
ATOM     24  O   UNL     1      -2.240  11.187  15.922  0.00  0.00    +0.000 OA
ATOM     25  H   UNL     1      -1.745  10.379  16.143  0.00  0.00    +0.000 HD
ENDBRANCH  14  24
ENDBRANCH   1  23
BRANCH   1  26
ATOM     26  C   UNL     1      -0.479  11.100  19.152  0.00  0.00    +0.000 A 
ATOM     27  C   UNL     1       0.432  10.301  18.446  0.00  0.00    +0.000 A 
ATOM     28  C   UNL     1       1.083   9.232  19.070  0.00  0.00    +0.000 A 
ATOM     29  C   UNL     1       0.824   8.933  20.410  0.00  0.00    +0.000 A 
ATOM     30 CL   UNL     1       1.625   7.571  21.105  0.00  0.00    +0.000 Cl
ATOM     31  C   UNL     1      -0.065   9.728  21.135  0.00  0.00    +0.000 A 
ATOM     32 CL   UNL     1      -0.445   9.427  22.794  0.00  0.00    +0.000 Cl
ATOM     33  C   UNL     1      -0.696  10.809  20.512  0.00  0.00    +0.000 A 
ENDBRANCH   1  26
TORSDOF 4
ENDMDL
