MODEL 1
REMARK VINA RESULT:      -7.3      0.000      0.000
REMARK  Name = 
REMARK  4 active torsions:
REMARK  status: ('A' for Active; 'I' for Inactive)
REMARK    1  A    between atoms: C_1  and  C_2
REMARK    2  A    between atoms: C_7  and  C_8
REMARK    3  A    between atoms: C_8  and  N_9
REMARK    4  A    between atoms: N_9  and  C_10
REMARK                            x       y       z     vdW  Elec       q    Type
REMARK                         _______ _______ _______ _____ _____    ______ ____
ROOT
ATOM      1  N   UNL     1       4.317   3.001  17.076  0.00  0.00    +0.000 N 
ATOM      2  H   UNL     1       4.498   2.019  16.928  0.00  0.00    +0.000 HD
ENDROOT
BRANCH   1   3
ATOM      3  C   UNL     1       5.311   3.871  16.660  0.00  0.00    +0.000 A 
ATOM      4  N   UNL     1       5.590   4.017  15.345  0.00  0.00    +0.000 NA
ATOM      5  C   UNL     1       6.506   4.927  14.970  0.00  0.00    +0.000 A 
ATOM      6  N   UNL     1       7.233   5.729  15.750  0.00  0.00    +0.000 NA
ATOM      7  C   UNL     1       6.946   5.558  17.051  0.00  0.00    +0.000 A 
ATOM      8  S   UNL     1       7.746   6.476  18.247  0.00  0.00    +0.000 S 
ATOM      9  C   UNL     1       6.871   5.718  19.504  0.00  0.00    +0.000 A 
ATOM     10  C   UNL     1       5.982   4.785  19.018  0.00  0.00    +0.000 A 
ATOM     11  C   UNL     1       6.019   4.674  17.583  0.00  0.00    +0.000 A 
ENDBRANCH   1   3
BRANCH   1  12
ATOM     12  C   UNL     1       2.918   3.382  16.993  0.00  0.00    +0.000 C 
BRANCH  12  19
ATOM     13  C   UNL     1       2.540   6.159  18.272  0.00  0.00    +0.000 C 
ATOM     14  C   UNL     1       2.210   4.879  18.987  0.00  0.00    +0.000 A 
ATOM     15  C   UNL     1       1.739   4.963  20.311  0.00  0.00    +0.000 A 
ATOM     16  C   UNL     1       1.430   3.815  21.042  0.00  0.00    +0.000 A 
ATOM     17  C   UNL     1       1.590   2.563  20.464  0.00  0.00    +0.000 A 
ATOM     18  C   UNL     1       2.062   2.462  19.156  0.00  0.00    +0.000 A 
ATOM     19  C   UNL     1       2.382   3.608  18.398  0.00  0.00    +0.000 A 
ENDBRANCH  12  19
ENDBRANCH   1  12
TORSDOF 3
ENDMDL
MODEL 2
REMARK VINA RESULT:      -7.0      0.562      1.718
REMARK  Name = 
REMARK  4 active torsions:
REMARK  status: ('A' for Active; 'I' for Inactive)
REMARK    1  A    between atoms: C_1  and  C_2
REMARK    2  A    between atoms: C_7  and  C_8
REMARK    3  A    between atoms: C_8  and  N_9
REMARK    4  A    between atoms: N_9  and  C_10
REMARK                            x       y       z     vdW  Elec       q    Type
REMARK                         _______ _______ _______ _____ _____    ______ ____
ROOT
ATOM      1  N   UNL     1       4.264   3.132  17.218  0.00  0.00    +0.000 N 
ATOM      2  H   UNL     1       4.434   2.141  17.126  0.00  0.00    +0.000 HD
ENDROOT
BRANCH   1   3
ATOM      3  C   UNL     1       5.272   3.965  16.763  0.00  0.00    +0.000 A 
ATOM      4  N   UNL     1       5.501   4.105  15.437  0.00  0.00    +0.000 NA
ATOM      5  C   UNL     1       6.435   4.981  15.025  0.00  0.00    +0.000 A 
ATOM      6  N   UNL     1       7.223   5.754  15.777  0.00  0.00    +0.000 NA
ATOM      7  C   UNL     1       6.983   5.589  17.088  0.00  0.00    +0.000 A 
ATOM      8  S   UNL     1       7.866   6.473  18.251  0.00  0.00    +0.000 S 
ATOM      9  C   UNL     1       7.016   5.744  19.542  0.00  0.00    +0.000 A 
ATOM     10  C   UNL     1       6.073   4.846  19.092  0.00  0.00    +0.000 A 
ATOM     11  C   UNL     1       6.047   4.738  17.656  0.00  0.00    +0.000 A 
ENDBRANCH   1   3
BRANCH   1  12
ATOM     12  C   UNL     1       2.870   3.523  17.102  0.00  0.00    +0.000 C 
BRANCH  12  19
ATOM     13  C   UNL     1       1.631   2.147  19.564  0.00  0.00    +0.000 C 
ATOM     14  C   UNL     1       1.885   3.628  19.498  0.00  0.00    +0.000 A 
ATOM     15  C   UNL     1       1.507   4.415  20.602  0.00  0.00    +0.000 A 
ATOM     16  C   UNL     1       1.696   5.797  20.601  0.00  0.00    +0.000 A 
ATOM     17  C   UNL     1       2.264   6.417  19.497  0.00  0.00    +0.000 A 
ATOM     18  C   UNL     1       2.638   5.653  18.393  0.00  0.00    +0.000 A 
ATOM     19  C   UNL     1       2.455   4.255  18.369  0.00  0.00    +0.000 A 
ENDBRANCH  12  19
ENDBRANCH   1  12
TORSDOF 3
ENDMDL
MODEL 3
REMARK VINA RESULT:      -6.9      1.814      2.589
REMARK  Name = 
REMARK  4 active torsions:
REMARK  status: ('A' for Active; 'I' for Inactive)
REMARK    1  A    between atoms: C_1  and  C_2
REMARK    2  A    between atoms: C_7  and  C_8
REMARK    3  A    between atoms: C_8  and  N_9
REMARK    4  A    between atoms: N_9  and  C_10
REMARK                            x       y       z     vdW  Elec       q    Type
REMARK                         _______ _______ _______ _____ _____    ______ ____
ROOT
ATOM      1  N   UNL     1       5.524   3.758  18.980  0.00  0.00    +0.000 N 
ATOM      2  H   UNL     1       6.109   3.285  19.652  0.00  0.00    +0.000 HD
ENDROOT
BRANCH   1   3
ATOM      3  C   UNL     1       6.154   4.701  18.184  0.00  0.00    +0.000 A 
ATOM      4  N   UNL     1       6.754   5.778  18.739  0.00  0.00    +0.000 NA
ATOM      5  C   UNL     1       7.424   6.633  17.946  0.00  0.00    +0.000 A 
ATOM      6  N   UNL     1       7.568   6.580  16.621  0.00  0.00    +0.000 NA
ATOM      7  C   UNL     1       6.955   5.508  16.092  0.00  0.00    +0.000 A 
ATOM      8  S   UNL     1       7.002   5.221  14.410  0.00  0.00    +0.000 S 
ATOM      9  C   UNL     1       6.077   3.793  14.565  0.00  0.00    +0.000 A 
ATOM     10  C   UNL     1       5.743   3.539  15.877  0.00  0.00    +0.000 A 
ATOM     11  C   UNL     1       6.244   4.539  16.783  0.00  0.00    +0.000 A 
ENDBRANCH   1   3
BRANCH   1  12
ATOM     12  C   UNL     1       4.430   2.960  18.455  0.00  0.00    +0.000 C 
BRANCH  12  19
ATOM     13  C   UNL     1       1.708   4.199  17.714  0.00  0.00    +0.000 C 
ATOM     14  C   UNL     1       2.001   3.623  19.071  0.00  0.00    +0.000 A 
ATOM     15  C   UNL     1       0.991   3.688  20.050  0.00  0.00    +0.000 A 
ATOM     16  C   UNL     1       1.199   3.190  21.337  0.00  0.00    +0.000 A 
ATOM     17  C   UNL     1       2.421   2.622  21.669  0.00  0.00    +0.000 A 
ATOM     18  C   UNL     1       3.434   2.556  20.714  0.00  0.00    +0.000 A 
ATOM     19  C   UNL     1       3.248   3.055  19.408  0.00  0.00    +0.000 A 
ENDBRANCH  12  19
ENDBRANCH   1  12
TORSDOF 3
ENDMDL
MODEL 4
REMARK VINA RESULT:      -6.9      1.143      1.701
REMARK  Name = 
REMARK  4 active torsions:
REMARK  status: ('A' for Active; 'I' for Inactive)
REMARK    1  A    between atoms: C_1  and  C_2
REMARK    2  A    between atoms: C_7  and  C_8
REMARK    3  A    between atoms: C_8  and  N_9
REMARK    4  A    between atoms: N_9  and  C_10
REMARK                            x       y       z     vdW  Elec       q    Type
REMARK                         _______ _______ _______ _____ _____    ______ ____
ROOT
ATOM      1  N   UNL     1       3.517   3.774  16.871  0.00  0.00    +0.000 N 
ATOM      2  H   UNL     1       2.914   4.546  17.114  0.00  0.00    +0.000 HD
ENDROOT
BRANCH   1   3
ATOM      3  C   UNL     1       4.835   4.098  16.593  0.00  0.00    +0.000 A 
ATOM      4  N   UNL     1       5.344   3.906  15.355  0.00  0.00    +0.000 NA
ATOM      5  C   UNL     1       6.603   4.304  15.098  0.00  0.00    +0.000 A 
ATOM      6  N   UNL     1       7.473   4.866  15.939  0.00  0.00    +0.000 NA
ATOM      7  C   UNL     1       6.948   5.036  17.164  0.00  0.00    +0.000 A 
ATOM      8  S   UNL     1       7.871   5.740  18.415  0.00  0.00    +0.000 S 
ATOM      9  C   UNL     1       6.580   5.606  19.527  0.00  0.00    +0.000 A 
ATOM     10  C   UNL     1       5.465   5.038  18.952  0.00  0.00    +0.000 A 
ATOM     11  C   UNL     1       5.668   4.691  17.569  0.00  0.00    +0.000 A 
ENDBRANCH   1   3
BRANCH   1  12
ATOM     12  C   UNL     1       3.184   2.515  17.513  0.00  0.00    +0.000 C 
BRANCH  12  19
ATOM     13  C   UNL     1       4.604   1.786  20.148  0.00  0.00    +0.000 C 
ATOM     14  C   UNL     1       3.263   2.466  20.104  0.00  0.00    +0.000 A 
ATOM     15  C   UNL     1       2.623   2.747  21.325  0.00  0.00    +0.000 A 
ATOM     16  C   UNL     1       1.369   3.359  21.359  0.00  0.00    +0.000 A 
ATOM     17  C   UNL     1       0.733   3.698  20.172  0.00  0.00    +0.000 A 
ATOM     18  C   UNL     1       1.351   3.420  18.954  0.00  0.00    +0.000 A 
ATOM     19  C   UNL     1       2.616   2.800  18.895  0.00  0.00    +0.000 A 
ENDBRANCH  12  19
ENDBRANCH   1  12
TORSDOF 3
ENDMDL
MODEL 5
REMARK VINA RESULT:      -6.9      1.269      1.356
REMARK  Name = 
REMARK  4 active torsions:
REMARK  status: ('A' for Active; 'I' for Inactive)
REMARK    1  A    between atoms: C_1  and  C_2
REMARK    2  A    between atoms: C_7  and  C_8
REMARK    3  A    between atoms: C_8  and  N_9
REMARK    4  A    between atoms: N_9  and  C_10
REMARK                            x       y       z     vdW  Elec       q    Type
REMARK                         _______ _______ _______ _____ _____    ______ ____
ROOT
ATOM      1  N   UNL     1       5.103   3.257  18.078  0.00  0.00    +0.000 N 
ATOM      2  H   UNL     1       5.876   2.651  18.307  0.00  0.00    +0.000 HD
ENDROOT
BRANCH   1   3
ATOM      3  C   UNL     1       5.416   4.388  17.341  0.00  0.00    +0.000 A 
ATOM      4  N   UNL     1       4.776   4.651  16.180  0.00  0.00    +0.000 NA
ATOM      5  C   UNL     1       5.048   5.796  15.529  0.00  0.00    +0.000 A 
ATOM      6  N   UNL     1       5.921   6.746  15.871  0.00  0.00    +0.000 NA
ATOM      7  C   UNL     1       6.552   6.456  17.021  0.00  0.00    +0.000 A 
ATOM      8  S   UNL     1       7.717   7.524  17.667  0.00  0.00    +0.000 S 
ATOM      9  C   UNL     1       7.995   6.507  19.011  0.00  0.00    +0.000 A 
ATOM     10  C   UNL     1       7.210   5.375  18.969  0.00  0.00    +0.000 A 
ATOM     11  C   UNL     1       6.364   5.328  17.805  0.00  0.00    +0.000 A 
ENDBRANCH   1   3
BRANCH   1  12
ATOM     12  C   UNL     1       3.833   2.579  17.888  0.00  0.00    +0.000 C 
BRANCH  12  19
ATOM     13  C   UNL     1       1.354   4.394  17.654  0.00  0.00    +0.000 C 
ATOM     14  C   UNL     1       1.777   3.752  18.946  0.00  0.00    +0.000 A 
ATOM     15  C   UNL     1       1.019   4.025  20.100  0.00  0.00    +0.000 A 
ATOM     16  C   UNL     1       1.365   3.479  21.337  0.00  0.00    +0.000 A 
ATOM     17  C   UNL     1       2.475   2.652  21.442  0.00  0.00    +0.000 A 
ATOM     18  C   UNL     1       3.240   2.377  20.310  0.00  0.00    +0.000 A 
ATOM     19  C   UNL     1       2.912   2.919  19.050  0.00  0.00    +0.000 A 
ENDBRANCH  12  19
ENDBRANCH   1  12
TORSDOF 3
ENDMDL
MODEL 6
REMARK VINA RESULT:      -6.9      1.858      2.701
REMARK  Name = 
REMARK  4 active torsions:
REMARK  status: ('A' for Active; 'I' for Inactive)
REMARK    1  A    between atoms: C_1  and  C_2
REMARK    2  A    between atoms: C_7  and  C_8
REMARK    3  A    between atoms: C_8  and  N_9
REMARK    4  A    between atoms: N_9  and  C_10
REMARK                            x       y       z     vdW  Elec       q    Type
REMARK                         _______ _______ _______ _____ _____    ______ ____
ROOT
ATOM      1  N   UNL     1       5.692   3.861  18.977  0.00  0.00    +0.000 N 
ATOM      2  H   UNL     1       5.597   2.918  18.628  0.00  0.00    +0.000 HD
ENDROOT
BRANCH   1   3
ATOM      3  C   UNL     1       6.289   4.768  18.118  0.00  0.00    +0.000 A 
ATOM      4  N   UNL     1       6.917   5.863  18.603  0.00  0.00    +0.000 NA
ATOM      5  C   UNL     1       7.554   6.683  17.748  0.00  0.00    +0.000 A 
ATOM      6  N   UNL     1       7.637   6.578  16.420  0.00  0.00    +0.000 NA
ATOM      7  C   UNL     1       6.996   5.490  15.962  0.00  0.00    +0.000 A 
ATOM      8  S   UNL     1       6.965   5.139  14.291  0.00  0.00    +0.000 S 
ATOM      9  C   UNL     1       6.042   3.723  14.543  0.00  0.00    +0.000 A 
ATOM     10  C   UNL     1       5.768   3.521  15.878  0.00  0.00    +0.000 A 
ATOM     11  C   UNL     1       6.314   4.552  16.721  0.00  0.00    +0.000 A 
ENDBRANCH   1   3
BRANCH   1  12
ATOM     12  C   UNL     1       4.639   4.282  19.884  0.00  0.00    +0.000 C 
BRANCH  12  19
ATOM     13  C   UNL     1       2.791   5.823  17.959  0.00  0.00    +0.000 C 
ATOM     14  C   UNL     1       2.457   4.458  18.494  0.00  0.00    +0.000 A 
ATOM     15  C   UNL     1       1.229   3.882  18.120  0.00  0.00    +0.000 A 
ATOM     16  C   UNL     1       0.845   2.627  18.594  0.00  0.00    +0.000 A 
ATOM     17  C   UNL     1       1.681   1.927  19.453  0.00  0.00    +0.000 A 
ATOM     18  C   UNL     1       2.898   2.486  19.839  0.00  0.00    +0.000 A 
ATOM     19  C   UNL     1       3.307   3.754  19.375  0.00  0.00    +0.000 A 
ENDBRANCH  12  19
ENDBRANCH   1  12
TORSDOF 3
ENDMDL
MODEL 7
REMARK VINA RESULT:      -6.8      2.759      5.796
REMARK  Name = 
REMARK  4 active torsions:
REMARK  status: ('A' for Active; 'I' for Inactive)
REMARK    1  A    between atoms: C_1  and  C_2
REMARK    2  A    between atoms: C_7  and  C_8
REMARK    3  A    between atoms: C_8  and  N_9
REMARK    4  A    between atoms: N_9  and  C_10
REMARK                            x       y       z     vdW  Elec       q    Type
REMARK                         _______ _______ _______ _____ _____    ______ ____
ROOT
ATOM      1  N   UNL     1       3.098   6.693  17.620  0.00  0.00    +0.000 N 
ATOM      2  H   UNL     1       2.733   6.493  16.700  0.00  0.00    +0.000 HD
ENDROOT
BRANCH   1   3
ATOM      3  C   UNL     1       2.623   5.895  18.648  0.00  0.00    +0.000 A 
ATOM      4  N   UNL     1       2.242   6.443  19.824  0.00  0.00    +0.000 NA
ATOM      5  C   UNL     1       1.712   5.650  20.772  0.00  0.00    +0.000 A 
ATOM      6  N   UNL     1       1.521   4.330  20.725  0.00  0.00    +0.000 NA
ATOM      7  C   UNL     1       1.917   3.808  19.552  0.00  0.00    +0.000 A 
ATOM      8  S   UNL     1       1.769   2.134  19.251  0.00  0.00    +0.000 S 
ATOM      9  C   UNL     1       2.429   2.295  17.683  0.00  0.00    +0.000 A 
ATOM     10  C   UNL     1       2.751   3.603  17.394  0.00  0.00    +0.000 A 
ATOM     11  C   UNL     1       2.464   4.500  18.482  0.00  0.00    +0.000 A 
ENDBRANCH   1   3
BRANCH   1  12
ATOM     12  C   UNL     1       4.463   7.189  17.640  0.00  0.00    +0.000 C 
BRANCH  12  19
ATOM     13  C   UNL     1       6.575   5.507  19.123  0.00  0.00    +0.000 C 
ATOM     14  C   UNL     1       6.339   5.400  17.642  0.00  0.00    +0.000 A 
ATOM     15  C   UNL     1       7.146   4.514  16.904  0.00  0.00    +0.000 A 
ATOM     16  C   UNL     1       6.995   4.377  15.524  0.00  0.00    +0.000 A 
ATOM     17  C   UNL     1       6.036   5.127  14.856  0.00  0.00    +0.000 A 
ATOM     18  C   UNL     1       5.233   6.014  15.570  0.00  0.00    +0.000 A 
ATOM     19  C   UNL     1       5.369   6.171  16.965  0.00  0.00    +0.000 A 
ENDBRANCH  12  19
ENDBRANCH   1  12
TORSDOF 3
ENDMDL
MODEL 8
REMARK VINA RESULT:      -6.7      1.818      2.761
REMARK  Name = 
REMARK  4 active torsions:
REMARK  status: ('A' for Active; 'I' for Inactive)
REMARK    1  A    between atoms: C_1  and  C_2
REMARK    2  A    between atoms: C_7  and  C_8
REMARK    3  A    between atoms: C_8  and  N_9
REMARK    4  A    between atoms: N_9  and  C_10
REMARK                            x       y       z     vdW  Elec       q    Type
REMARK                         _______ _______ _______ _____ _____    ______ ____
ROOT
ATOM      1  N   UNL     1       4.992   5.107  19.223  0.00  0.00    +0.000 N 
ATOM      2  H   UNL     1       5.048   4.118  19.415  0.00  0.00    +0.000 HD
ENDROOT
BRANCH   1   3
ATOM      3  C   UNL     1       5.835   5.581  18.232  0.00  0.00    +0.000 A 
ATOM      4  N   UNL     1       6.698   6.590  18.488  0.00  0.00    +0.000 NA
ATOM      5  C   UNL     1       7.557   6.974  17.527  0.00  0.00    +0.000 A 
ATOM      6  N   UNL     1       7.667   6.494  16.286  0.00  0.00    +0.000 NA
ATOM      7  C   UNL     1       6.793   5.502  16.053  0.00  0.00    +0.000 A 
ATOM      8  S   UNL     1       6.744   4.725  14.534  0.00  0.00    +0.000 S 
ATOM      9  C   UNL     1       5.484   3.686  15.036  0.00  0.00    +0.000 A 
ATOM     10  C   UNL     1       5.111   3.926  16.340  0.00  0.00    +0.000 A 
ATOM     11  C   UNL     1       5.864   4.992  16.947  0.00  0.00    +0.000 A 
ENDBRANCH   1   3
BRANCH   1  12
ATOM     12  C   UNL     1       3.677   5.692  19.419  0.00  0.00    +0.000 C 
BRANCH  12  19
ATOM     13  C   UNL     1       1.607   4.353  17.571  0.00  0.00    +0.000 C 
ATOM     14  C   UNL     1       1.763   3.989  19.022  0.00  0.00    +0.000 A 
ATOM     15  C   UNL     1       0.897   3.017  19.558  0.00  0.00    +0.000 A 
ATOM     16  C   UNL     1       0.973   2.644  20.900  0.00  0.00    +0.000 A 
ATOM     17  C   UNL     1       1.912   3.239  21.731  0.00  0.00    +0.000 A 
ATOM     18  C   UNL     1       2.772   4.208  21.219  0.00  0.00    +0.000 A 
ATOM     19  C   UNL     1       2.714   4.603  19.866  0.00  0.00    +0.000 A 
ENDBRANCH  12  19
ENDBRANCH   1  12
TORSDOF 3
ENDMDL
MODEL 9
REMARK VINA RESULT:      -6.7      2.009      2.757
REMARK  Name = 
REMARK  4 active torsions:
REMARK  status: ('A' for Active; 'I' for Inactive)
REMARK    1  A    between atoms: C_1  and  C_2
REMARK    2  A    between atoms: C_7  and  C_8
REMARK    3  A    between atoms: C_8  and  N_9
REMARK    4  A    between atoms: N_9  and  C_10
REMARK                            x       y       z     vdW  Elec       q    Type
REMARK                         _______ _______ _______ _____ _____    ______ ____
ROOT
ATOM      1  N   UNL     1       5.423   3.654  19.416  0.00  0.00    +0.000 N 
ATOM      2  H   UNL     1       6.327   3.612  19.863  0.00  0.00    +0.000 HD
ENDROOT
BRANCH   1   3
ATOM      3  C   UNL     1       5.277   4.619  18.433  0.00  0.00    +0.000 A 
ATOM      4  N   UNL     1       6.028   4.575  17.310  0.00  0.00    +0.000 NA
ATOM      5  C   UNL     1       5.807   5.481  16.341  0.00  0.00    +0.000 A 
ATOM      6  N   UNL     1       4.925   6.482  16.340  0.00  0.00    +0.000 NA
ATOM      7  C   UNL     1       4.198   6.511  17.470  0.00  0.00    +0.000 A 
ATOM      8  S   UNL     1       2.998   7.703  17.702  0.00  0.00    +0.000 S 
ATOM      9  C   UNL     1       2.587   7.078  19.239  0.00  0.00    +0.000 A 
ATOM     10  C   UNL     1       3.350   5.978  19.566  0.00  0.00    +0.000 A 
ATOM     11  C   UNL     1       4.304   5.638  18.542  0.00  0.00    +0.000 A 
ENDBRANCH   1   3
BRANCH   1  12
ATOM     12  C   UNL     1       4.737   2.378  19.309  0.00  0.00    +0.000 C 
BRANCH  12  19
ATOM     13  C   UNL     1       2.364   2.562  17.352  0.00  0.00    +0.000 C 
ATOM     14  C   UNL     1       2.200   2.644  18.845  0.00  0.00    +0.000 A 
ATOM     15  C   UNL     1       0.906   2.847  19.359  0.00  0.00    +0.000 A 
ATOM     16  C   UNL     1       0.682   2.952  20.732  0.00  0.00    +0.000 A 
ATOM     17  C   UNL     1       1.749   2.859  21.615  0.00  0.00    +0.000 A 
ATOM     18  C   UNL     1       3.038   2.665  21.123  0.00  0.00    +0.000 A 
ATOM     19  C   UNL     1       3.289   2.558  19.739  0.00  0.00    +0.000 A 
ENDBRANCH  12  19
ENDBRANCH   1  12
TORSDOF 3
ENDMDL
