MODEL 1
REMARK VINA RESULT:      -7.3      0.000      0.000
REMARK  Name = 
REMARK  8 active torsions:
REMARK  status: ('A' for Active; 'I' for Inactive)
REMARK    1  A    between atoms: C_1  and  C_2
REMARK    2  A    between atoms: C_2  and  C_3
REMARK    3  A    between atoms: C_2  and  O_4
REMARK    4  A    between atoms: O_4  and  C_5
REMARK    5  A    between atoms: C_7  and  C_8
REMARK    6  A    between atoms: N_10  and  C_11
REMARK    7  A    between atoms: C_11  and  C_12
REMARK    8  A    between atoms: C_12  and  N_13
REMARK                            x       y       z     vdW  Elec       q    Type
REMARK                         _______ _______ _______ _____ _____    ______ ____
ROOT
ATOM      1  C   UNL     1       4.143   5.438  17.264  0.00  0.00    +0.000 A 
ATOM      2  C   UNL     1       3.653   6.541  17.922  0.00  0.00    +0.000 A 
ATOM      3  C   UNL     1       2.647   6.352  18.876  0.00  0.00    +0.000 A 
ATOM      4  C   UNL     1       2.209   5.037  19.197  0.00  0.00    +0.000 A 
ATOM      5  C   UNL     1       1.287   4.674  20.218  0.00  0.00    +0.000 A 
ATOM      6  C   UNL     1       0.926   3.343  20.439  0.00  0.00    +0.000 A 
ATOM      7  C   UNL     1       1.494   2.342  19.672  0.00  0.00    +0.000 A 
ATOM      8  C   UNL     1       2.426   2.678  18.689  0.00  0.00    +0.000 A 
ATOM      9  C   UNL     1       2.791   3.995  18.442  0.00  0.00    +0.000 A 
ATOM     10  N   UNL     1       3.714   4.189  17.492  0.00  0.00    +0.000 NA
ENDROOT
BRANCH   3  11
ATOM     11  C   UNL     1       2.140   7.599  19.520  0.00  0.00    +0.000 C 
ATOM     12  O   UNL     1       1.944   8.599  18.833  0.00  0.00    +0.000 OA
ATOM     13  N   UNL     1       1.842   7.553  20.864  0.00  0.00    +0.000 N 
ATOM     14  H   UNL     1       1.836   6.669  21.356  0.00  0.00    +0.000 HD
BRANCH  13  15
ATOM     15  C   UNL     1       1.300   8.703  21.575  0.00  0.00    +0.000 C 
BRANCH  15  16
ATOM     16  C   UNL     1      -0.220   8.609  21.750  0.00  0.00    +0.000 C 
BRANCH  16  17
ATOM     17  N   UNL     1      -0.650   9.181  23.033  0.00  0.00    +0.000 NA
ATOM     18  H   UNL     1      -0.255  10.117  23.116  0.00  0.00    +0.000 HD
ATOM     19  H   UNL     1      -0.229   8.638  23.789  0.00  0.00    +0.000 HD
ENDBRANCH  16  17
ENDBRANCH  15  16
ENDBRANCH  13  15
ENDBRANCH   3  11
BRANCH   1  20
ATOM     20  O   UNL     1       5.195   5.636  16.397  0.00  0.00    +0.000 OA
BRANCH  20  22
ATOM     21  C   UNL     1       6.705   4.547  14.937  0.00  0.00    +0.000 C 
ATOM     22  C   UNL     1       6.151   4.564  16.361  0.00  0.00    +0.000 C 
ATOM     23  C   UNL     1       7.303   4.782  17.341  0.00  0.00    +0.000 C 
ENDBRANCH  20  22
ENDBRANCH   1  20
TORSDOF 6
ENDMDL
MODEL 2
REMARK VINA RESULT:      -7.0      1.776      1.835
REMARK  Name = 
REMARK  8 active torsions:
REMARK  status: ('A' for Active; 'I' for Inactive)
REMARK    1  A    between atoms: C_1  and  C_2
REMARK    2  A    between atoms: C_2  and  C_3
REMARK    3  A    between atoms: C_2  and  O_4
REMARK    4  A    between atoms: O_4  and  C_5
REMARK    5  A    between atoms: C_7  and  C_8
REMARK    6  A    between atoms: N_10  and  C_11
REMARK    7  A    between atoms: C_11  and  C_12
REMARK    8  A    between atoms: C_12  and  N_13
REMARK                            x       y       z     vdW  Elec       q    Type
REMARK                         _______ _______ _______ _____ _____    ______ ____
ROOT
ATOM      1  C   UNL     1       4.192   5.343  17.186  0.00  0.00    +0.000 A 
ATOM      2  C   UNL     1       3.661   6.507  17.691  0.00  0.00    +0.000 A 
ATOM      3  C   UNL     1       2.679   6.414  18.682  0.00  0.00    +0.000 A 
ATOM      4  C   UNL     1       2.305   5.140  19.196  0.00  0.00    +0.000 A 
ATOM      5  C   UNL     1       1.415   4.888  20.277  0.00  0.00    +0.000 A 
ATOM      6  C   UNL     1       1.118   3.589  20.693  0.00  0.00    +0.000 A 
ATOM      7  C   UNL     1       1.720   2.513  20.065  0.00  0.00    +0.000 A 
ATOM      8  C   UNL     1       2.622   2.744  19.026  0.00  0.00    +0.000 A 
ATOM      9  C   UNL     1       2.923   4.027  18.586  0.00  0.00    +0.000 A 
ATOM     10  N   UNL     1       3.823   4.122  17.599  0.00  0.00    +0.000 NA
ENDROOT
BRANCH   3  11
ATOM     11  C   UNL     1       2.124   7.717  19.152  0.00  0.00    +0.000 C 
ATOM     12  O   UNL     1       1.973   7.912  20.356  0.00  0.00    +0.000 OA
ATOM     13  N   UNL     1       1.871   8.685  18.207  0.00  0.00    +0.000 N 
ATOM     14  H   UNL     1       2.181   8.561  17.252  0.00  0.00    +0.000 HD
BRANCH  13  15
ATOM     15  C   UNL     1       1.371  10.005  18.567  0.00  0.00    +0.000 C 
BRANCH  15  16
ATOM     16  C   UNL     1      -0.150  10.111  18.398  0.00  0.00    +0.000 C 
BRANCH  16  17
ATOM     17  N   UNL     1      -0.555  11.470  18.013  0.00  0.00    +0.000 NA
ATOM     18  H   UNL     1       0.236  12.095  18.162  0.00  0.00    +0.000 HD
ATOM     19  H   UNL     1      -1.281  11.788  18.656  0.00  0.00    +0.000 HD
ENDBRANCH  16  17
ENDBRANCH  15  16
ENDBRANCH  13  15
ENDBRANCH   3  11
BRANCH   1  20
ATOM     20  O   UNL     1       5.221   5.460  16.279  0.00  0.00    +0.000 OA
BRANCH  20  22
ATOM     21  C   UNL     1       6.464   4.149  14.752  0.00  0.00    +0.000 C 
ATOM     22  C   UNL     1       6.103   4.327  16.226  0.00  0.00    +0.000 C 
ATOM     23  C   UNL     1       7.385   4.553  17.028  0.00  0.00    +0.000 C 
ENDBRANCH  20  22
ENDBRANCH   1  20
TORSDOF 6
ENDMDL
MODEL 3
REMARK VINA RESULT:      -7.0      1.008      1.124
REMARK  Name = 
REMARK  8 active torsions:
REMARK  status: ('A' for Active; 'I' for Inactive)
REMARK    1  A    between atoms: C_1  and  C_2
REMARK    2  A    between atoms: C_2  and  C_3
REMARK    3  A    between atoms: C_2  and  O_4
REMARK    4  A    between atoms: O_4  and  C_5
REMARK    5  A    between atoms: C_7  and  C_8
REMARK    6  A    between atoms: N_10  and  C_11
REMARK    7  A    between atoms: C_11  and  C_12
REMARK    8  A    between atoms: C_12  and  N_13
REMARK                            x       y       z     vdW  Elec       q    Type
REMARK                         _______ _______ _______ _____ _____    ______ ____
ROOT
ATOM      1  C   UNL     1       4.425   5.300  17.601  0.00  0.00    +0.000 A 
ATOM      2  C   UNL     1       3.862   6.390  18.221  0.00  0.00    +0.000 A 
ATOM      3  C   UNL     1       2.720   6.191  19.004  0.00  0.00    +0.000 A 
ATOM      4  C   UNL     1       2.212   4.877  19.201  0.00  0.00    +0.000 A 
ATOM      5  C   UNL     1       1.138   4.500  20.056  0.00  0.00    +0.000 A 
ATOM      6  C   UNL     1       0.722   3.172  20.166  0.00  0.00    +0.000 A 
ATOM      7  C   UNL     1       1.380   2.185  19.454  0.00  0.00    +0.000 A 
ATOM      8  C   UNL     1       2.458   2.534  18.638  0.00  0.00    +0.000 A 
ATOM      9  C   UNL     1       2.881   3.849  18.502  0.00  0.00    +0.000 A 
ATOM     10  N   UNL     1       3.942   4.054  17.711  0.00  0.00    +0.000 NA
ENDROOT
BRANCH   3  11
ATOM     11  C   UNL     1       2.145   7.427  19.614  0.00  0.00    +0.000 C 
ATOM     12  O   UNL     1       1.780   8.347  18.886  0.00  0.00    +0.000 OA
ATOM     13  N   UNL     1       1.979   7.451  20.981  0.00  0.00    +0.000 N 
ATOM     14  H   UNL     1       2.113   6.610  21.527  0.00  0.00    +0.000 HD
BRANCH  13  15
ATOM     15  C   UNL     1       1.387   8.591  21.667  0.00  0.00    +0.000 C 
BRANCH  15  16
ATOM     16  C   UNL     1      -0.125   8.685  21.429  0.00  0.00    +0.000 C 
BRANCH  16  17
ATOM     17  N   UNL     1      -0.461   9.806  20.541  0.00  0.00    +0.000 NA
ATOM     18  H   UNL     1       0.377  10.071  20.026  0.00  0.00    +0.000 HD
ATOM     19  H   UNL     1      -0.697  10.617  21.115  0.00  0.00    +0.000 HD
ENDBRANCH  16  17
ENDBRANCH  15  16
ENDBRANCH  13  15
ENDBRANCH   3  11
BRANCH   1  20
ATOM     20  O   UNL     1       5.600   5.503  16.912  0.00  0.00    +0.000 OA
BRANCH  20  22
ATOM     21  C   UNL     1       7.674   4.591  17.594  0.00  0.00    +0.000 C 
ATOM     22  C   UNL     1       6.737   5.790  17.741  0.00  0.00    +0.000 C 
ATOM     23  C   UNL     1       7.474   7.054  17.296  0.00  0.00    +0.000 C 
ENDBRANCH  20  22
ENDBRANCH   1  20
TORSDOF 6
ENDMDL
MODEL 4
REMARK VINA RESULT:      -7.0      1.181      1.421
REMARK  Name = 
REMARK  8 active torsions:
REMARK  status: ('A' for Active; 'I' for Inactive)
REMARK    1  A    between atoms: C_1  and  C_2
REMARK    2  A    between atoms: C_2  and  C_3
REMARK    3  A    between atoms: C_2  and  O_4
REMARK    4  A    between atoms: O_4  and  C_5
REMARK    5  A    between atoms: C_7  and  C_8
REMARK    6  A    between atoms: N_10  and  C_11
REMARK    7  A    between atoms: C_11  and  C_12
REMARK    8  A    between atoms: C_12  and  N_13
REMARK                            x       y       z     vdW  Elec       q    Type
REMARK                         _______ _______ _______ _____ _____    ______ ____
ROOT
ATOM      1  C   UNL     1       5.026   5.104  18.616  0.00  0.00    +0.000 A 
ATOM      2  C   UNL     1       4.275   6.204  18.959  0.00  0.00    +0.000 A 
ATOM      3  C   UNL     1       2.953   6.004  19.368  0.00  0.00    +0.000 A 
ATOM      4  C   UNL     1       2.439   4.682  19.491  0.00  0.00    +0.000 A 
ATOM      5  C   UNL     1       1.163   4.311  20.001  0.00  0.00    +0.000 A 
ATOM      6  C   UNL     1       0.764   2.975  20.070  0.00  0.00    +0.000 A 
ATOM      7  C   UNL     1       1.630   1.978  19.661  0.00  0.00    +0.000 A 
ATOM      8  C   UNL     1       2.898   2.323  19.191  0.00  0.00    +0.000 A 
ATOM      9  C   UNL     1       3.313   3.645  19.101  0.00  0.00    +0.000 A 
ATOM     10  N   UNL     1       4.561   3.848  18.659  0.00  0.00    +0.000 NA
ENDROOT
BRANCH   3  11
ATOM     11  C   UNL     1       2.191   7.247  19.687  0.00  0.00    +0.000 C 
ATOM     12  O   UNL     1       2.055   8.111  18.825  0.00  0.00    +0.000 OA
ATOM     13  N   UNL     1       1.605   7.339  20.930  0.00  0.00    +0.000 N 
ATOM     14  H   UNL     1       1.577   6.536  21.544  0.00  0.00    +0.000 HD
BRANCH  13  15
ATOM     15  C   UNL     1       0.805   8.491  21.322  0.00  0.00    +0.000 C 
BRANCH  15  16
ATOM     16  C   UNL     1       1.440   9.266  22.484  0.00  0.00    +0.000 C 
BRANCH  16  17
ATOM     17  N   UNL     1       0.434   9.663  23.478  0.00  0.00    +0.000 NA
ATOM     18  H   UNL     1      -0.063  10.480  23.125  0.00  0.00    +0.000 HD
ATOM     19  H   UNL     1       0.916   9.979  24.321  0.00  0.00    +0.000 HD
ENDBRANCH  16  17
ENDBRANCH  15  16
ENDBRANCH  13  15
ENDBRANCH   3  11
BRANCH   1  20
ATOM     20  O   UNL     1       6.351   5.316  18.306  0.00  0.00    +0.000 OA
BRANCH  20  22
ATOM     21  C   UNL     1       7.592   7.180  17.540  0.00  0.00    +0.000 C 
ATOM     22  C   UNL     1       6.571   6.117  17.134  0.00  0.00    +0.000 C 
ATOM     23  C   UNL     1       7.138   5.300  15.972  0.00  0.00    +0.000 C 
ENDBRANCH  20  22
ENDBRANCH   1  20
TORSDOF 6
ENDMDL
MODEL 5
REMARK VINA RESULT:      -6.9      1.530      1.727
REMARK  Name = 
REMARK  8 active torsions:
REMARK  status: ('A' for Active; 'I' for Inactive)
REMARK    1  A    between atoms: C_1  and  C_2
REMARK    2  A    between atoms: C_2  and  C_3
REMARK    3  A    between atoms: C_2  and  O_4
REMARK    4  A    between atoms: O_4  and  C_5
REMARK    5  A    between atoms: C_7  and  C_8
REMARK    6  A    between atoms: N_10  and  C_11
REMARK    7  A    between atoms: C_11  and  C_12
REMARK    8  A    between atoms: C_12  and  N_13
REMARK                            x       y       z     vdW  Elec       q    Type
REMARK                         _______ _______ _______ _____ _____    ______ ____
ROOT
ATOM      1  C   UNL     1       5.508   4.741  19.169  0.00  0.00    +0.000 A 
ATOM      2  C   UNL     1       4.713   5.857  19.293  0.00  0.00    +0.000 A 
ATOM      3  C   UNL     1       3.326   5.695  19.221  0.00  0.00    +0.000 A 
ATOM      4  C   UNL     1       2.767   4.391  19.097  0.00  0.00    +0.000 A 
ATOM      5  C   UNL     1       1.385   4.054  19.128  0.00  0.00    +0.000 A 
ATOM      6  C   UNL     1       0.952   2.733  18.991  0.00  0.00    +0.000 A 
ATOM      7  C   UNL     1       1.880   1.718  18.850  0.00  0.00    +0.000 A 
ATOM      8  C   UNL     1       3.241   2.028  18.852  0.00  0.00    +0.000 A 
ATOM      9  C   UNL     1       3.695   3.335  18.974  0.00  0.00    +0.000 A 
ATOM     10  N   UNL     1       5.023   3.504  18.990  0.00  0.00    +0.000 NA
ENDROOT
BRANCH   3  11
ATOM     11  C   UNL     1       2.533   6.955  19.326  0.00  0.00    +0.000 C 
ATOM     12  O   UNL     1       2.334   7.631  18.319  0.00  0.00    +0.000 OA
ATOM     13  N   UNL     1       1.990   7.271  20.551  0.00  0.00    +0.000 N 
ATOM     14  H   UNL     1       2.013   6.602  21.310  0.00  0.00    +0.000 HD
BRANCH  13  15
ATOM     15  C   UNL     1       1.164   8.455  20.747  0.00  0.00    +0.000 C 
BRANCH  15  16
ATOM     16  C   UNL     1       1.344   9.058  22.146  0.00  0.00    +0.000 C 
BRANCH  16  17
ATOM     17  N   UNL     1       0.721  10.385  22.243  0.00  0.00    +0.000 NA
ATOM     18  H   UNL     1       0.005  10.458  21.521  0.00  0.00    +0.000 HD
ATOM     19  H   UNL     1       1.420  11.091  22.008  0.00  0.00    +0.000 HD
ENDBRANCH  16  17
ENDBRANCH  15  16
ENDBRANCH  13  15
ENDBRANCH   3  11
BRANCH   1  20
ATOM     20  O   UNL     1       6.865   4.910  19.336  0.00  0.00    +0.000 OA
BRANCH  20  22
ATOM     21  C   UNL     1       6.941   4.520  17.004  0.00  0.00    +0.000 C 
ATOM     22  C   UNL     1       7.567   5.315  18.150  0.00  0.00    +0.000 C 
ATOM     23  C   UNL     1       7.409   6.808  17.864  0.00  0.00    +0.000 C 
ENDBRANCH  20  22
ENDBRANCH   1  20
TORSDOF 6
ENDMDL
MODEL 6
REMARK VINA RESULT:      -6.9      1.693      1.831
REMARK  Name = 
REMARK  8 active torsions:
REMARK  status: ('A' for Active; 'I' for Inactive)
REMARK    1  A    between atoms: C_1  and  C_2
REMARK    2  A    between atoms: C_2  and  C_3
REMARK    3  A    between atoms: C_2  and  O_4
REMARK    4  A    between atoms: O_4  and  C_5
REMARK    5  A    between atoms: C_7  and  C_8
REMARK    6  A    between atoms: N_10  and  C_11
REMARK    7  A    between atoms: C_11  and  C_12
REMARK    8  A    between atoms: C_12  and  N_13
REMARK                            x       y       z     vdW  Elec       q    Type
REMARK                         _______ _______ _______ _____ _____    ______ ____
ROOT
ATOM      1  C   UNL     1       4.509   5.379  17.633  0.00  0.00    +0.000 A 
ATOM      2  C   UNL     1       3.896   6.547  18.021  0.00  0.00    +0.000 A 
ATOM      3  C   UNL     1       2.750   6.462  18.818  0.00  0.00    +0.000 A 
ATOM      4  C   UNL     1       2.288   5.193  19.267  0.00  0.00    +0.000 A 
ATOM      5  C   UNL     1       1.215   4.951  20.170  0.00  0.00    +0.000 A 
ATOM      6  C   UNL     1       0.847   3.655  20.538  0.00  0.00    +0.000 A 
ATOM      7  C   UNL     1       1.552   2.574  20.040  0.00  0.00    +0.000 A 
ATOM      8  C   UNL     1       2.629   2.796  19.181  0.00  0.00    +0.000 A 
ATOM      9  C   UNL     1       3.006   4.075  18.791  0.00  0.00    +0.000 A 
ATOM     10  N   UNL     1       4.071   4.161  17.984  0.00  0.00    +0.000 NA
ENDROOT
BRANCH   3  11
ATOM     11  C   UNL     1       2.120   7.770  19.166  0.00  0.00    +0.000 C 
ATOM     12  O   UNL     1       1.805   7.999  20.331  0.00  0.00    +0.000 OA
ATOM     13  N   UNL     1       1.982   8.703  18.163  0.00  0.00    +0.000 N 
ATOM     14  H   UNL     1       2.420   8.555  17.263  0.00  0.00    +0.000 HD
BRANCH  13  15
ATOM     15  C   UNL     1       1.420  10.024  18.409  0.00  0.00    +0.000 C 
BRANCH  15  16
ATOM     16  C   UNL     1      -0.113  10.013  18.378  0.00  0.00    +0.000 C 
BRANCH  16  17
ATOM     17  N   UNL     1      -0.679  10.028  19.734  0.00  0.00    +0.000 NA
ATOM     18  H   UNL     1      -0.073   9.477  20.341  0.00  0.00    +0.000 HD
ATOM     19  H   UNL     1      -1.573   9.536  19.719  0.00  0.00    +0.000 HD
ENDBRANCH  16  17
ENDBRANCH  15  16
ENDBRANCH  13  15
ENDBRANCH   3  11
BRANCH   1  20
ATOM     20  O   UNL     1       5.687   5.488  16.928  0.00  0.00    +0.000 OA
BRANCH  20  22
ATOM     21  C   UNL     1       7.778   4.553  17.523  0.00  0.00    +0.000 C 
ATOM     22  C   UNL     1       6.847   5.746  17.736  0.00  0.00    +0.000 C 
ATOM     23  C   UNL     1       7.572   7.025  17.315  0.00  0.00    +0.000 C 
ENDBRANCH  20  22
ENDBRANCH   1  20
TORSDOF 6
ENDMDL
MODEL 7
REMARK VINA RESULT:      -6.8      2.318      2.643
REMARK  Name = 
REMARK  8 active torsions:
REMARK  status: ('A' for Active; 'I' for Inactive)
REMARK    1  A    between atoms: C_1  and  C_2
REMARK    2  A    between atoms: C_2  and  C_3
REMARK    3  A    between atoms: C_2  and  O_4
REMARK    4  A    between atoms: O_4  and  C_5
REMARK    5  A    between atoms: C_7  and  C_8
REMARK    6  A    between atoms: N_10  and  C_11
REMARK    7  A    between atoms: C_11  and  C_12
REMARK    8  A    between atoms: C_12  and  N_13
REMARK                            x       y       z     vdW  Elec       q    Type
REMARK                         _______ _______ _______ _____ _____    ______ ____
ROOT
ATOM      1  C   UNL     1       5.228   6.108  16.785  0.00  0.00    +0.000 A 
ATOM      2  C   UNL     1       4.404   7.023  17.398  0.00  0.00    +0.000 A 
ATOM      3  C   UNL     1       3.197   6.569  17.941  0.00  0.00    +0.000 A 
ATOM      4  C   UNL     1       2.882   5.182  17.915  0.00  0.00    +0.000 A 
ATOM      5  C   UNL     1       1.759   4.554  18.523  0.00  0.00    +0.000 A 
ATOM      6  C   UNL     1       1.549   3.177  18.427  0.00  0.00    +0.000 A 
ATOM      7  C   UNL     1       2.464   2.389  17.751  0.00  0.00    +0.000 A 
ATOM      8  C   UNL     1       3.589   2.985  17.179  0.00  0.00    +0.000 A 
ATOM      9  C   UNL     1       3.812   4.353  17.250  0.00  0.00    +0.000 A 
ATOM     10  N   UNL     1       4.940   4.803  16.685  0.00  0.00    +0.000 NA
ENDROOT
BRANCH   3  11
ATOM     11  C   UNL     1       2.340   7.626  18.555  0.00  0.00    +0.000 C 
ATOM     12  O   UNL     1       2.190   7.649  19.775  0.00  0.00    +0.000 OA
ATOM     13  N   UNL     1       1.806   8.584  17.723  0.00  0.00    +0.000 N 
ATOM     14  H   UNL     1       2.101   8.644  16.757  0.00  0.00    +0.000 HD
BRANCH  13  15
ATOM     15  C   UNL     1       0.993   9.681  18.230  0.00  0.00    +0.000 C 
BRANCH  15  16
ATOM     16  C   UNL     1       1.784  10.992  18.317  0.00  0.00    +0.000 C 
BRANCH  16  17
ATOM     17  N   UNL     1       0.890  12.151  18.442  0.00  0.00    +0.000 NA
ATOM     18  H   UNL     1       0.427  12.104  19.349  0.00  0.00    +0.000 HD
ATOM     19  H   UNL     1       0.145  12.065  17.749  0.00  0.00    +0.000 HD
ENDBRANCH  16  17
ENDBRANCH  15  16
ENDBRANCH  13  15
ENDBRANCH   3  11
BRANCH   1  20
ATOM     20  O   UNL     1       6.451   6.559  16.341  0.00  0.00    +0.000 OA
BRANCH  20  22
ATOM     21  C   UNL     1       7.771   8.032  17.639  0.00  0.00    +0.000 C 
ATOM     22  C   UNL     1       7.486   6.561  17.337  0.00  0.00    +0.000 C 
ATOM     23  C   UNL     1       7.050   5.864  18.626  0.00  0.00    +0.000 C 
ENDBRANCH  20  22
ENDBRANCH   1  20
TORSDOF 6
ENDMDL
MODEL 8
REMARK VINA RESULT:      -6.8      1.805      2.076
REMARK  Name = 
REMARK  8 active torsions:
REMARK  status: ('A' for Active; 'I' for Inactive)
REMARK    1  A    between atoms: C_1  and  C_2
REMARK    2  A    between atoms: C_2  and  C_3
REMARK    3  A    between atoms: C_2  and  O_4
REMARK    4  A    between atoms: O_4  and  C_5
REMARK    5  A    between atoms: C_7  and  C_8
REMARK    6  A    between atoms: N_10  and  C_11
REMARK    7  A    between atoms: C_11  and  C_12
REMARK    8  A    between atoms: C_12  and  N_13
REMARK                            x       y       z     vdW  Elec       q    Type
REMARK                         _______ _______ _______ _____ _____    ______ ____
ROOT
ATOM      1  C   UNL     1       4.044   6.019  17.459  0.00  0.00    +0.000 A 
ATOM      2  C   UNL     1       3.451   7.045  18.157  0.00  0.00    +0.000 A 
ATOM      3  C   UNL     1       2.482   6.724  19.113  0.00  0.00    +0.000 A 
ATOM      4  C   UNL     1       2.184   5.361  19.394  0.00  0.00    +0.000 A 
ATOM      5  C   UNL     1       1.316   4.873  20.411  0.00  0.00    +0.000 A 
ATOM      6  C   UNL     1       1.096   3.506  20.592  0.00  0.00    +0.000 A 
ATOM      7  C   UNL     1       1.754   2.593  19.788  0.00  0.00    +0.000 A 
ATOM      8  C   UNL     1       2.636   3.054  18.809  0.00  0.00    +0.000 A 
ATOM      9  C   UNL     1       2.861   4.408  18.602  0.00  0.00    +0.000 A 
ATOM     10  N   UNL     1       3.748   4.726  17.651  0.00  0.00    +0.000 NA
ENDROOT
BRANCH   3  11
ATOM     11  C   UNL     1       1.857   7.891  19.801  0.00  0.00    +0.000 C 
ATOM     12  O   UNL     1       1.784   7.903  21.028  0.00  0.00    +0.000 OA
ATOM     13  N   UNL     1       1.449   8.952  19.024  0.00  0.00    +0.000 N 
ATOM     14  H   UNL     1       1.693   8.991  18.043  0.00  0.00    +0.000 HD
BRANCH  13  15
ATOM     15  C   UNL     1       0.868  10.155  19.603  0.00  0.00    +0.000 C 
BRANCH  15  16
ATOM     16  C   UNL     1       1.257  11.416  18.823  0.00  0.00    +0.000 C 
BRANCH  16  17
ATOM     17  N   UNL     1       2.254  11.120  17.785  0.00  0.00    +0.000 NA
ATOM     18  H   UNL     1       3.134  11.560  18.051  0.00  0.00    +0.000 HD
ATOM     19  H   UNL     1       1.969  11.580  16.919  0.00  0.00    +0.000 HD
ENDBRANCH  16  17
ENDBRANCH  15  16
ENDBRANCH  13  15
ENDBRANCH   3  11
BRANCH   1  20
ATOM     20  O   UNL     1       5.060   6.351  16.591  0.00  0.00    +0.000 OA
BRANCH  20  22
ATOM     21  C   UNL     1       6.913   5.165  15.720  0.00  0.00    +0.000 C 
ATOM     22  C   UNL     1       6.355   5.853  16.965  0.00  0.00    +0.000 C 
ATOM     23  C   UNL     1       7.307   6.974  17.384  0.00  0.00    +0.000 C 
ENDBRANCH  20  22
ENDBRANCH   1  20
TORSDOF 6
ENDMDL
MODEL 9
REMARK VINA RESULT:      -6.8      1.999      2.187
REMARK  Name = 
REMARK  8 active torsions:
REMARK  status: ('A' for Active; 'I' for Inactive)
REMARK    1  A    between atoms: C_1  and  C_2
REMARK    2  A    between atoms: C_2  and  C_3
REMARK    3  A    between atoms: C_2  and  O_4
REMARK    4  A    between atoms: O_4  and  C_5
REMARK    5  A    between atoms: C_7  and  C_8
REMARK    6  A    between atoms: N_10  and  C_11
REMARK    7  A    between atoms: C_11  and  C_12
REMARK    8  A    between atoms: C_12  and  N_13
REMARK                            x       y       z     vdW  Elec       q    Type
REMARK                         _______ _______ _______ _____ _____    ______ ____
ROOT
ATOM      1  C   UNL     1       4.179   4.245  16.988  0.00  0.00    +0.000 A 
ATOM      2  C   UNL     1       3.845   5.530  17.347  0.00  0.00    +0.000 A 
ATOM      3  C   UNL     1       2.915   5.711  18.376  0.00  0.00    +0.000 A 
ATOM      4  C   UNL     1       2.395   4.584  19.072  0.00  0.00    +0.000 A 
ATOM      5  C   UNL     1       1.539   4.608  20.208  0.00  0.00    +0.000 A 
ATOM      6  C   UNL     1       1.086   3.431  20.808  0.00  0.00    +0.000 A 
ATOM      7  C   UNL     1       1.495   2.207  20.311  0.00  0.00    +0.000 A 
ATOM      8  C   UNL     1       2.363   2.166  19.219  0.00  0.00    +0.000 A 
ATOM      9  C   UNL     1       2.816   3.322  18.598  0.00  0.00    +0.000 A 
ATOM     10  N   UNL     1       3.666   3.155  17.577  0.00  0.00    +0.000 NA
ENDROOT
BRANCH   3  11
ATOM     11  C   UNL     1       2.576   7.132  18.683  0.00  0.00    +0.000 C 
ATOM     12  O   UNL     1       2.505   7.498  19.854  0.00  0.00    +0.000 OA
ATOM     13  N   UNL     1       2.426   7.999  17.624  0.00  0.00    +0.000 N 
ATOM     14  H   UNL     1       2.675   7.710  16.687  0.00  0.00    +0.000 HD
BRANCH  13  15
ATOM     15  C   UNL     1       2.138   9.414  17.819  0.00  0.00    +0.000 C 
BRANCH  15  16
ATOM     16  C   UNL     1       0.644   9.671  18.051  0.00  0.00    +0.000 C 
BRANCH  16  17
ATOM     17  N   UNL     1       0.356  11.108  18.153  0.00  0.00    +0.000 NA
ATOM     18  H   UNL     1      -0.461  11.314  17.579  0.00  0.00    +0.000 HD
ATOM     19  H   UNL     1       1.126  11.626  17.729  0.00  0.00    +0.000 HD
ENDBRANCH  16  17
ENDBRANCH  15  16
ENDBRANCH  13  15
ENDBRANCH   3  11
BRANCH   1  20
ATOM     20  O   UNL     1       5.164   4.091  16.038  0.00  0.00    +0.000 OA
BRANCH  20  22
ATOM     21  C   UNL     1       7.200   4.519  17.164  0.00  0.00    +0.000 C 
ATOM     22  C   UNL     1       6.226   5.055  16.115  0.00  0.00    +0.000 C 
ATOM     23  C   UNL     1       6.964   5.212  14.785  0.00  0.00    +0.000 C 
ENDBRANCH  20  22
ENDBRANCH   1  20
TORSDOF 6
ENDMDL
