MODEL 1
REMARK VINA RESULT:      -8.0      0.000      0.000
REMARK  Name = 
REMARK  9 active torsions:
REMARK  status: ('A' for Active; 'I' for Inactive)
REMARK    1  A    between atoms: C_1  and  N_2
REMARK    2  A    between atoms: N_2  and  C_3
REMARK    3  A    between atoms: N_2  and  C_4
REMARK    4  A    between atoms: C_4  and  C_5
REMARK    5  A    between atoms: C_5  and  N_6
REMARK    6  A    between atoms: C_7  and  C_9
REMARK    7  A    between atoms: C_11  and  C_12
REMARK    8  A    between atoms: C_19  and  N_20
REMARK    9  A    between atoms: N_23  and  C_24
REMARK                            x       y       z     vdW  Elec       q    Type
REMARK                         _______ _______ _______ _____ _____    ______ ____
ROOT
ATOM      1  C   UNL     1       4.180   3.691  17.349  0.00  0.00    +0.000 A 
ATOM      2  C   UNL     1       4.843   3.352  16.118  0.00  0.00    +0.000 A 
ATOM      3  C   UNL     1       5.431   4.426  15.474  0.00  0.00    +0.000 A 
ATOM      4  S   UNL     1       5.149   5.870  16.368  0.00  0.00    +0.000 S 
ATOM      5  C   UNL     1       4.365   5.032  17.628  0.00  0.00    +0.000 A 
ENDROOT
BRANCH   3   6
ATOM      6  C   UNL     1       6.186   4.407  14.202  0.00  0.00    +0.000 A 
ATOM      7  C   UNL     1       7.270   5.259  13.953  0.00  0.00    +0.000 A 
ATOM      8  C   UNL     1       7.936   5.236  12.721  0.00  0.00    +0.000 A 
ATOM      9  C   UNL     1       7.529   4.361  11.717  0.00  0.00    +0.000 A 
ATOM     10  C   UNL     1       6.452   3.510  11.941  0.00  0.00    +0.000 A 
ATOM     11  C   UNL     1       5.790   3.533  13.172  0.00  0.00    +0.000 A 
ENDBRANCH   3   6
BRANCH   5  12
ATOM     12  N   UNL     1       4.052   5.808  18.737  0.00  0.00    +0.000 N 
ATOM     13  C   UNL     1       2.997   6.711  18.618  0.00  0.00    +0.000 C 
ATOM     14  O   UNL     1       2.288   6.789  17.616  0.00  0.00    +0.000 OA
ATOM     15  N   UNL     1       2.820   7.458  19.777  0.00  0.00    +0.000 N 
ATOM     16  H   UNL     1       4.117   5.344  19.631  0.00  0.00    +0.000 HD
ATOM     17  H   UNL     1       3.652   7.597  20.333  0.00  0.00    +0.000 HD
BRANCH  15  18
ATOM     18  C   UNL     1       1.715   8.314  20.039  0.00  0.00    +0.000 A 
ATOM     19  C   UNL     1       0.943   8.202  21.203  0.00  0.00    +0.000 A 
ATOM     20  C   UNL     1      -0.147   9.043  21.463  0.00  0.00    +0.000 A 
ATOM     21  C   UNL     1      -0.434  10.020  20.512  0.00  0.00    +0.000 A 
ATOM     22  N   UNL     1      -1.414  10.977  20.463  0.00  0.00    +0.000 N 
ATOM     23  N   UNL     1      -1.365  11.751  19.366  0.00  0.00    +0.000 NA
ATOM     24  C   UNL     1      -0.318  11.267  18.691  0.00  0.00    +0.000 A 
ATOM     25  C   UNL     1       0.313  10.187  19.353  0.00  0.00    +0.000 A 
ATOM     26  C   UNL     1       1.413   9.329  19.112  0.00  0.00    +0.000 A 
ATOM     27  H   UNL     1      -2.142  11.153  21.146  0.00  0.00    +0.000 HD
ENDBRANCH  15  18
ENDBRANCH   5  12
BRANCH   1  29
ATOM     28  N   UNL     1       2.028   3.165  18.240  0.00  0.00    +0.000 N 
ATOM     29  C   UNL     1       3.348   2.779  18.129  0.00  0.00    +0.000 C 
ATOM     30  O   UNL     1       3.805   1.806  18.715  0.00  0.00    +0.000 OA
ATOM     31  H   UNL     1       1.628   3.705  17.481  0.00  0.00    +0.000 HD
BRANCH  28  32
ATOM     32  C   UNL     1       1.112   2.404  19.063  0.00  0.00    +0.000 C 
BRANCH  32  33
ATOM     33  C   UNL     1       0.495   3.245  20.196  0.00  0.00    +0.000 C 
BRANCH  33  35
ATOM     34  C   UNL     1       2.064   2.043  21.618  0.00  0.00    +0.000 C 
ATOM     35  N   UNL     1       1.295   3.281  21.441  0.00  0.00    +0.000 NA
ATOM     36  C   UNL     1       2.221   4.420  21.400  0.00  0.00    +0.000 C 
ENDBRANCH  33  35
ENDBRANCH  32  33
ENDBRANCH  28  32
ENDBRANCH   1  29
TORSDOF 7
ENDMDL
MODEL 2
REMARK VINA RESULT:      -8.0      5.089      7.949
REMARK  Name = 
REMARK  9 active torsions:
REMARK  status: ('A' for Active; 'I' for Inactive)
REMARK    1  A    between atoms: C_1  and  N_2
REMARK    2  A    between atoms: N_2  and  C_3
REMARK    3  A    between atoms: N_2  and  C_4
REMARK    4  A    between atoms: C_4  and  C_5
REMARK    5  A    between atoms: C_5  and  N_6
REMARK    6  A    between atoms: C_7  and  C_9
REMARK    7  A    between atoms: C_11  and  C_12
REMARK    8  A    between atoms: C_19  and  N_20
REMARK    9  A    between atoms: N_23  and  C_24
REMARK                            x       y       z     vdW  Elec       q    Type
REMARK                         _______ _______ _______ _____ _____    ______ ____
ROOT
ATOM      1  C   UNL     1       5.987   5.094  16.395  0.00  0.00    +0.000 A 
ATOM      2  C   UNL     1       4.728   4.448  16.651  0.00  0.00    +0.000 A 
ATOM      3  C   UNL     1       4.403   4.348  17.993  0.00  0.00    +0.000 A 
ATOM      4  S   UNL     1       5.662   5.027  18.951  0.00  0.00    +0.000 S 
ATOM      5  C   UNL     1       6.540   5.534  17.583  0.00  0.00    +0.000 A 
ENDROOT
BRANCH   3   6
ATOM      6  C   UNL     1       3.186   3.748  18.580  0.00  0.00    +0.000 A 
ATOM      7  C   UNL     1       1.967   3.683  17.891  0.00  0.00    +0.000 A 
ATOM      8  C   UNL     1       0.826   3.138  18.496  0.00  0.00    +0.000 A 
ATOM      9  C   UNL     1       0.884   2.653  19.800  0.00  0.00    +0.000 A 
ATOM     10  C   UNL     1       2.082   2.712  20.503  0.00  0.00    +0.000 A 
ATOM     11  C   UNL     1       3.220   3.253  19.897  0.00  0.00    +0.000 A 
ENDBRANCH   3   6
BRANCH   5  12
ATOM     12  N   UNL     1       7.654   6.316  17.862  0.00  0.00    +0.000 N 
ATOM     13  C   UNL     1       7.485   7.699  17.880  0.00  0.00    +0.000 C 
ATOM     14  O   UNL     1       6.391   8.246  17.743  0.00  0.00    +0.000 OA
ATOM     15  N   UNL     1       8.681   8.366  18.121  0.00  0.00    +0.000 N 
ATOM     16  H   UNL     1       8.280   5.955  18.566  0.00  0.00    +0.000 HD
ATOM     17  H   UNL     1       9.514   7.879  17.821  0.00  0.00    +0.000 HD
BRANCH  15  18
ATOM     18  C   UNL     1       8.804   9.756  18.392  0.00  0.00    +0.000 A 
ATOM     19  C   UNL     1       8.351  10.734  17.497  0.00  0.00    +0.000 A 
ATOM     20  C   UNL     1       8.472  12.106  17.762  0.00  0.00    +0.000 A 
ATOM     21  C   UNL     1       9.059  12.467  18.971  0.00  0.00    +0.000 A 
ATOM     22  N   UNL     1       9.326  13.696  19.519  0.00  0.00    +0.000 N 
ATOM     23  N   UNL     1       9.910  13.639  20.727  0.00  0.00    +0.000 NA
ATOM     24  C   UNL     1      10.022  12.327  20.956  0.00  0.00    +0.000 A 
ATOM     25  C   UNL     1       9.506  11.537  19.902  0.00  0.00    +0.000 A 
ATOM     26  C   UNL     1       9.369  10.157  19.617  0.00  0.00    +0.000 A 
ATOM     27  H   UNL     1       9.132  14.607  19.118  0.00  0.00    +0.000 HD
ENDBRANCH  15  18
ENDBRANCH   5  12
BRANCH   1  29
ATOM     28  N   UNL     1       5.921   4.587  14.062  0.00  0.00    +0.000 N 
ATOM     29  C   UNL     1       6.633   5.177  15.087  0.00  0.00    +0.000 C 
ATOM     30  O   UNL     1       7.753   5.645  14.932  0.00  0.00    +0.000 OA
ATOM     31  H   UNL     1       4.910   4.568  14.138  0.00  0.00    +0.000 HD
BRANCH  28  32
ATOM     32  C   UNL     1       6.484   4.513  12.732  0.00  0.00    +0.000 C 
BRANCH  32  33
ATOM     33  C   UNL     1       6.764   3.065  12.286  0.00  0.00    +0.000 C 
BRANCH  33  35
ATOM     34  C   UNL     1       4.554   3.115  11.267  0.00  0.00    +0.000 C 
ATOM     35  N   UNL     1       5.556   2.282  11.943  0.00  0.00    +0.000 NA
ATOM     36  C   UNL     1       5.924   1.165  11.064  0.00  0.00    +0.000 C 
ENDBRANCH  33  35
ENDBRANCH  32  33
ENDBRANCH  28  32
ENDBRANCH   1  29
TORSDOF 7
ENDMDL
MODEL 3
REMARK VINA RESULT:      -7.9      5.083      7.924
REMARK  Name = 
REMARK  9 active torsions:
REMARK  status: ('A' for Active; 'I' for Inactive)
REMARK    1  A    between atoms: C_1  and  N_2
REMARK    2  A    between atoms: N_2  and  C_3
REMARK    3  A    between atoms: N_2  and  C_4
REMARK    4  A    between atoms: C_4  and  C_5
REMARK    5  A    between atoms: C_5  and  N_6
REMARK    6  A    between atoms: C_7  and  C_9
REMARK    7  A    between atoms: C_11  and  C_12
REMARK    8  A    between atoms: C_19  and  N_20
REMARK    9  A    between atoms: N_23  and  C_24
REMARK                            x       y       z     vdW  Elec       q    Type
REMARK                         _______ _______ _______ _____ _____    ______ ____
ROOT
ATOM      1  C   UNL     1       5.826   4.980  16.557  0.00  0.00    +0.000 A 
ATOM      2  C   UNL     1       4.524   4.432  16.831  0.00  0.00    +0.000 A 
ATOM      3  C   UNL     1       4.147   4.501  18.160  0.00  0.00    +0.000 A 
ATOM      4  S   UNL     1       5.406   5.220  19.089  0.00  0.00    +0.000 S 
ATOM      5  C   UNL     1       6.359   5.523  17.710  0.00  0.00    +0.000 A 
ENDROOT
BRANCH   3   6
ATOM      6  C   UNL     1       2.878   4.034  18.759  0.00  0.00    +0.000 A 
ATOM      7  C   UNL     1       2.353   4.577  19.939  0.00  0.00    +0.000 A 
ATOM      8  C   UNL     1       1.166   4.081  20.494  0.00  0.00    +0.000 A 
ATOM      9  C   UNL     1       0.485   3.033  19.880  0.00  0.00    +0.000 A 
ATOM     10  C   UNL     1       0.991   2.476  18.711  0.00  0.00    +0.000 A 
ATOM     11  C   UNL     1       2.174   2.974  18.157  0.00  0.00    +0.000 A 
ENDBRANCH   3   6
BRANCH   5  12
ATOM     12  N   UNL     1       7.503   6.275  17.947  0.00  0.00    +0.000 N 
ATOM     13  C   UNL     1       7.377   7.662  17.948  0.00  0.00    +0.000 C 
ATOM     14  O   UNL     1       6.297   8.240  17.834  0.00  0.00    +0.000 OA
ATOM     15  N   UNL     1       8.599   8.295  18.146  0.00  0.00    +0.000 N 
ATOM     16  H   UNL     1       8.138   5.904  18.639  0.00  0.00    +0.000 HD
ATOM     17  H   UNL     1       9.409   7.779  17.831  0.00  0.00    +0.000 HD
BRANCH  15  18
ATOM     18  C   UNL     1       8.772   9.684  18.393  0.00  0.00    +0.000 A 
ATOM     19  C   UNL     1       8.334  10.663  17.491  0.00  0.00    +0.000 A 
ATOM     20  C   UNL     1       8.504  12.034  17.731  0.00  0.00    +0.000 A 
ATOM     21  C   UNL     1       9.126  12.394  18.924  0.00  0.00    +0.000 A 
ATOM     22  N   UNL     1       9.442  13.622  19.447  0.00  0.00    +0.000 N 
ATOM     23  N   UNL     1      10.047  13.564  20.645  0.00  0.00    +0.000 NA
ATOM     24  C   UNL     1      10.121  12.253  20.893  0.00  0.00    +0.000 A 
ATOM     25  C   UNL     1       9.560  11.464  19.861  0.00  0.00    +0.000 A 
ATOM     26  C   UNL     1       9.373  10.086  19.601  0.00  0.00    +0.000 A 
ATOM     27  H   UNL     1       9.270  14.533  19.035  0.00  0.00    +0.000 HD
ENDBRANCH  15  18
ENDBRANCH   5  12
BRANCH   1  29
ATOM     28  N   UNL     1       5.995   3.941  14.413  0.00  0.00    +0.000 N 
ATOM     29  C   UNL     1       6.521   4.881  15.276  0.00  0.00    +0.000 C 
ATOM     30  O   UNL     1       7.541   5.510  15.028  0.00  0.00    +0.000 OA
ATOM     31  H   UNL     1       5.003   3.743  14.478  0.00  0.00    +0.000 HD
BRANCH  28  32
ATOM     32  C   UNL     1       6.640   3.671  13.147  0.00  0.00    +0.000 C 
BRANCH  32  33
ATOM     33  C   UNL     1       5.803   4.140  11.942  0.00  0.00    +0.000 C 
BRANCH  33  35
ATOM     34  C   UNL     1       5.773   1.738  11.541  0.00  0.00    +0.000 C 
ATOM     35  N   UNL     1       5.274   3.045  11.098  0.00  0.00    +0.000 NA
ATOM     36  C   UNL     1       3.806   3.043  11.153  0.00  0.00    +0.000 C 
ENDBRANCH  33  35
ENDBRANCH  32  33
ENDBRANCH  28  32
ENDBRANCH   1  29
TORSDOF 7
ENDMDL
MODEL 4
REMARK VINA RESULT:      -7.9      4.891      5.835
REMARK  Name = 
REMARK  9 active torsions:
REMARK  status: ('A' for Active; 'I' for Inactive)
REMARK    1  A    between atoms: C_1  and  N_2
REMARK    2  A    between atoms: N_2  and  C_3
REMARK    3  A    between atoms: N_2  and  C_4
REMARK    4  A    between atoms: C_4  and  C_5
REMARK    5  A    between atoms: C_5  and  N_6
REMARK    6  A    between atoms: C_7  and  C_9
REMARK    7  A    between atoms: C_11  and  C_12
REMARK    8  A    between atoms: C_19  and  N_20
REMARK    9  A    between atoms: N_23  and  C_24
REMARK                            x       y       z     vdW  Elec       q    Type
REMARK                         _______ _______ _______ _____ _____    ______ ____
ROOT
ATOM      1  C   UNL     1       5.563   5.192  17.498  0.00  0.00    +0.000 A 
ATOM      2  C   UNL     1       5.181   4.493  16.300  0.00  0.00    +0.000 A 
ATOM      3  C   UNL     1       6.057   4.659  15.242  0.00  0.00    +0.000 A 
ATOM      4  S   UNL     1       7.347   5.700  15.709  0.00  0.00    +0.000 S 
ATOM      5  C   UNL     1       6.784   5.812  17.313  0.00  0.00    +0.000 A 
ENDROOT
BRANCH   3   6
ATOM      6  C   UNL     1       5.952   4.074  13.888  0.00  0.00    +0.000 A 
ATOM      7  C   UNL     1       7.062   3.895  13.052  0.00  0.00    +0.000 A 
ATOM      8  C   UNL     1       6.915   3.370  11.762  0.00  0.00    +0.000 A 
ATOM      9  C   UNL     1       5.655   3.017  11.285  0.00  0.00    +0.000 A 
ATOM     10  C   UNL     1       4.539   3.191  12.095  0.00  0.00    +0.000 A 
ATOM     11  C   UNL     1       4.688   3.712  13.384  0.00  0.00    +0.000 A 
ENDBRANCH   3   6
BRANCH   5  12
ATOM     12  N   UNL     1       7.633   6.483  18.183  0.00  0.00    +0.000 N 
ATOM     13  C   UNL     1       7.849   7.841  17.957  0.00  0.00    +0.000 C 
ATOM     14  O   UNL     1       7.263   8.480  17.084  0.00  0.00    +0.000 OA
ATOM     15  N   UNL     1       8.754   8.381  18.863  0.00  0.00    +0.000 N 
ATOM     16  H   UNL     1       7.567   6.218  19.154  0.00  0.00    +0.000 HD
ATOM     17  H   UNL     1       9.434   7.732  19.234  0.00  0.00    +0.000 HD
BRANCH  15  18
ATOM     18  C   UNL     1       9.031   9.767  19.019  0.00  0.00    +0.000 A 
ATOM     19  C   UNL     1       9.117  10.639  17.925  0.00  0.00    +0.000 A 
ATOM     20  C   UNL     1       9.391  12.005  18.075  0.00  0.00    +0.000 A 
ATOM     21  C   UNL     1       9.565  12.476  19.374  0.00  0.00    +0.000 A 
ATOM     22  N   UNL     1       9.844  13.730  19.854  0.00  0.00    +0.000 N 
ATOM     23  N   UNL     1       9.937  13.793  21.193  0.00  0.00    +0.000 NA
ATOM     24  C   UNL     1       9.713  12.533  21.579  0.00  0.00    +0.000 A 
ATOM     25  C   UNL     1       9.468  11.659  20.493  0.00  0.00    +0.000 A 
ATOM     26  C   UNL     1       9.186  10.283  20.319  0.00  0.00    +0.000 A 
ATOM     27  H   UNL     1       9.980  14.582  19.320  0.00  0.00    +0.000 HD
ENDBRANCH  15  18
ENDBRANCH   5  12
BRANCH   1  29
ATOM     28  N   UNL     1       3.376   5.352  18.446  0.00  0.00    +0.000 N 
ATOM     29  C   UNL     1       4.733   5.313  18.694  0.00  0.00    +0.000 C 
ATOM     30  O   UNL     1       5.206   5.465  19.814  0.00  0.00    +0.000 OA
ATOM     31  H   UNL     1       3.032   4.863  17.627  0.00  0.00    +0.000 HD
BRANCH  28  32
ATOM     32  C   UNL     1       2.441   5.565  19.529  0.00  0.00    +0.000 C 
BRANCH  32  33
ATOM     33  C   UNL     1       1.484   4.374  19.728  0.00  0.00    +0.000 C 
BRANCH  33  35
ATOM     34  C   UNL     1       1.568   2.684  21.479  0.00  0.00    +0.000 C 
ATOM     35  N   UNL     1       2.137   3.133  20.203  0.00  0.00    +0.000 NA
ATOM     36  C   UNL     1       1.968   2.073  19.201  0.00  0.00    +0.000 C 
ENDBRANCH  33  35
ENDBRANCH  32  33
ENDBRANCH  28  32
ENDBRANCH   1  29
TORSDOF 7
ENDMDL
MODEL 5
REMARK VINA RESULT:      -7.8      4.961      5.825
REMARK  Name = 
REMARK  9 active torsions:
REMARK  status: ('A' for Active; 'I' for Inactive)
REMARK    1  A    between atoms: C_1  and  N_2
REMARK    2  A    between atoms: N_2  and  C_3
REMARK    3  A    between atoms: N_2  and  C_4
REMARK    4  A    between atoms: C_4  and  C_5
REMARK    5  A    between atoms: C_5  and  N_6
REMARK    6  A    between atoms: C_7  and  C_9
REMARK    7  A    between atoms: C_11  and  C_12
REMARK    8  A    between atoms: C_19  and  N_20
REMARK    9  A    between atoms: N_23  and  C_24
REMARK                            x       y       z     vdW  Elec       q    Type
REMARK                         _______ _______ _______ _____ _____    ______ ____
ROOT
ATOM      1  C   UNL     1       5.832   5.106  17.674  0.00  0.00    +0.000 A 
ATOM      2  C   UNL     1       5.410   4.445  16.468  0.00  0.00    +0.000 A 
ATOM      3  C   UNL     1       6.187   4.734  15.360  0.00  0.00    +0.000 A 
ATOM      4  S   UNL     1       7.431   5.844  15.791  0.00  0.00    +0.000 S 
ATOM      5  C   UNL     1       6.987   5.827  17.436  0.00  0.00    +0.000 A 
ENDROOT
BRANCH   3   6
ATOM      6  C   UNL     1       6.020   4.215  13.985  0.00  0.00    +0.000 A 
ATOM      7  C   UNL     1       4.797   3.730  13.503  0.00  0.00    +0.000 A 
ATOM      8  C   UNL     1       4.688   3.212  12.206  0.00  0.00    +0.000 A 
ATOM      9  C   UNL     1       5.800   3.168  11.370  0.00  0.00    +0.000 A 
ATOM     10  C   UNL     1       7.025   3.640  11.829  0.00  0.00    +0.000 A 
ATOM     11  C   UNL     1       7.131   4.158  13.123  0.00  0.00    +0.000 A 
ENDBRANCH   3   6
BRANCH   5  12
ATOM     12  N   UNL     1       7.850   6.514  18.279  0.00  0.00    +0.000 N 
ATOM     13  C   UNL     1       7.974   7.890  18.097  0.00  0.00    +0.000 C 
ATOM     14  O   UNL     1       7.299   8.526  17.288  0.00  0.00    +0.000 OA
ATOM     15  N   UNL     1       8.903   8.449  18.968  0.00  0.00    +0.000 N 
ATOM     16  H   UNL     1       7.861   6.209  19.241  0.00  0.00    +0.000 HD
ATOM     17  H   UNL     1       9.641   7.827  19.269  0.00  0.00    +0.000 HD
BRANCH  15  18
ATOM     18  C   UNL     1       9.109   9.841  19.163  0.00  0.00    +0.000 A 
ATOM     19  C   UNL     1       9.111  10.425  20.437  0.00  0.00    +0.000 A 
ATOM     20  C   UNL     1       9.313  11.798  20.632  0.00  0.00    +0.000 A 
ATOM     21  C   UNL     1       9.527  12.574  19.496  0.00  0.00    +0.000 A 
ATOM     22  N   UNL     1       9.747  13.919  19.344  0.00  0.00    +0.000 N 
ATOM     23  N   UNL     1       9.915  14.303  18.068  0.00  0.00    +0.000 NA
ATOM     24  C   UNL     1       9.795  13.162  17.382  0.00  0.00    +0.000 A 
ATOM     25  C   UNL     1       9.557  12.042  18.213  0.00  0.00    +0.000 A 
ATOM     26  C   UNL     1       9.355  10.652  18.038  0.00  0.00    +0.000 A 
ATOM     27  H   UNL     1       9.794  14.624  20.072  0.00  0.00    +0.000 HD
ENDBRANCH  15  18
ENDBRANCH   5  12
BRANCH   1  29
ATOM     28  N   UNL     1       3.761   4.752  18.809  0.00  0.00    +0.000 N 
ATOM     29  C   UNL     1       5.091   5.101  18.932  0.00  0.00    +0.000 C 
ATOM     30  O   UNL     1       5.584   5.468  19.991  0.00  0.00    +0.000 OA
ATOM     31  H   UNL     1       3.505   4.121  18.058  0.00  0.00    +0.000 HD
BRANCH  28  32
ATOM     32  C   UNL     1       2.886   4.795  19.960  0.00  0.00    +0.000 C 
BRANCH  32  33
ATOM     33  C   UNL     1       1.417   4.503  19.600  0.00  0.00    +0.000 C 
BRANCH  33  35
ATOM     34  C   UNL     1       1.287   2.136  19.043  0.00  0.00    +0.000 C 
ATOM     35  N   UNL     1       0.933   3.169  20.024  0.00  0.00    +0.000 NA
ATOM     36  C   UNL     1       1.522   2.821  21.323  0.00  0.00    +0.000 C 
ENDBRANCH  33  35
ENDBRANCH  32  33
ENDBRANCH  28  32
ENDBRANCH   1  29
TORSDOF 7
ENDMDL
MODEL 6
REMARK VINA RESULT:      -7.8      5.156      7.988
REMARK  Name = 
REMARK  9 active torsions:
REMARK  status: ('A' for Active; 'I' for Inactive)
REMARK    1  A    between atoms: C_1  and  N_2
REMARK    2  A    between atoms: N_2  and  C_3
REMARK    3  A    between atoms: N_2  and  C_4
REMARK    4  A    between atoms: C_4  and  C_5
REMARK    5  A    between atoms: C_5  and  N_6
REMARK    6  A    between atoms: C_7  and  C_9
REMARK    7  A    between atoms: C_11  and  C_12
REMARK    8  A    between atoms: C_19  and  N_20
REMARK    9  A    between atoms: N_23  and  C_24
REMARK                            x       y       z     vdW  Elec       q    Type
REMARK                         _______ _______ _______ _____ _____    ______ ____
ROOT
ATOM      1  C   UNL     1       6.061   5.065  16.484  0.00  0.00    +0.000 A 
ATOM      2  C   UNL     1       4.795   4.397  16.627  0.00  0.00    +0.000 A 
ATOM      3  C   UNL     1       4.293   4.400  17.917  0.00  0.00    +0.000 A 
ATOM      4  S   UNL     1       5.392   5.206  18.970  0.00  0.00    +0.000 S 
ATOM      5  C   UNL     1       6.436   5.626  17.690  0.00  0.00    +0.000 A 
ENDROOT
BRANCH   3   6
ATOM      6  C   UNL     1       3.023   3.807  18.388  0.00  0.00    +0.000 A 
ATOM      7  C   UNL     1       2.162   4.468  19.275  0.00  0.00    +0.000 A 
ATOM      8  C   UNL     1       0.985   3.857  19.726  0.00  0.00    +0.000 A 
ATOM      9  C   UNL     1       0.650   2.574  19.300  0.00  0.00    +0.000 A 
ATOM     10  C   UNL     1       1.492   1.898  18.424  0.00  0.00    +0.000 A 
ATOM     11  C   UNL     1       2.665   2.511  17.973  0.00  0.00    +0.000 A 
ENDBRANCH   3   6
BRANCH   5  12
ATOM     12  N   UNL     1       7.480   6.470  18.044  0.00  0.00    +0.000 N 
ATOM     13  C   UNL     1       7.408   7.799  17.628  0.00  0.00    +0.000 C 
ATOM     14  O   UNL     1       6.434   8.269  17.042  0.00  0.00    +0.000 OA
ATOM     15  N   UNL     1       8.534   8.522  18.003  0.00  0.00    +0.000 N 
ATOM     16  H   UNL     1       7.863   6.333  18.968  0.00  0.00    +0.000 HD
ATOM     17  H   UNL     1       9.383   7.982  18.098  0.00  0.00    +0.000 HD
BRANCH  15  18
ATOM     18  C   UNL     1       8.673   9.933  17.901  0.00  0.00    +0.000 A 
ATOM     19  C   UNL     1       7.638  10.754  17.434  0.00  0.00    +0.000 A 
ATOM     20  C   UNL     1       7.772  12.145  17.331  0.00  0.00    +0.000 A 
ATOM     21  C   UNL     1       8.990  12.694  17.727  0.00  0.00    +0.000 A 
ATOM     22  N   UNL     1       9.437  13.990  17.746  0.00  0.00    +0.000 N 
ATOM     23  N   UNL     1      10.691  14.127  18.206  0.00  0.00    +0.000 NA
ATOM     24  C   UNL     1      11.057  12.873  18.488  0.00  0.00    +0.000 A 
ATOM     25  C   UNL     1      10.040  11.927  18.217  0.00  0.00    +0.000 A 
ATOM     26  C   UNL     1       9.881  10.525  18.317  0.00  0.00    +0.000 A 
ATOM     27  H   UNL     1       8.933  14.823  17.459  0.00  0.00    +0.000 HD
ENDBRANCH  15  18
ENDBRANCH   5  12
BRANCH   1  29
ATOM     28  N   UNL     1       6.423   4.209  14.284  0.00  0.00    +0.000 N 
ATOM     29  C   UNL     1       6.875   5.060  15.272  0.00  0.00    +0.000 C 
ATOM     30  O   UNL     1       7.924   5.685  15.177  0.00  0.00    +0.000 OA
ATOM     31  H   UNL     1       5.426   4.028  14.236  0.00  0.00    +0.000 HD
BRANCH  28  32
ATOM     32  C   UNL     1       7.184   4.033  13.067  0.00  0.00    +0.000 C 
BRANCH  32  33
ATOM     33  C   UNL     1       6.287   3.855  11.827  0.00  0.00    +0.000 C 
BRANCH  33  35
ATOM     34  C   UNL     1       4.016   3.167  11.283  0.00  0.00    +0.000 C 
ATOM     35  N   UNL     1       5.266   2.791  11.954  0.00  0.00    +0.000 NA
ATOM     36  C   UNL     1       5.773   1.547  11.363  0.00  0.00    +0.000 C 
ENDBRANCH  33  35
ENDBRANCH  32  33
ENDBRANCH  28  32
ENDBRANCH   1  29
TORSDOF 7
ENDMDL
MODEL 7
REMARK VINA RESULT:      -7.8      3.980     10.840
REMARK  Name = 
REMARK  9 active torsions:
REMARK  status: ('A' for Active; 'I' for Inactive)
REMARK    1  A    between atoms: C_1  and  N_2
REMARK    2  A    between atoms: N_2  and  C_3
REMARK    3  A    between atoms: N_2  and  C_4
REMARK    4  A    between atoms: C_4  and  C_5
REMARK    5  A    between atoms: C_5  and  N_6
REMARK    6  A    between atoms: C_7  and  C_9
REMARK    7  A    between atoms: C_11  and  C_12
REMARK    8  A    between atoms: C_19  and  N_20
REMARK    9  A    between atoms: N_23  and  C_24
REMARK                            x       y       z     vdW  Elec       q    Type
REMARK                         _______ _______ _______ _____ _____    ______ ____
ROOT
ATOM      1  C   UNL     1       1.156  11.975  19.197  0.00  0.00    +0.000 A 
ATOM      2  C   UNL     1       0.276  12.552  20.177  0.00  0.00    +0.000 A 
ATOM      3  C   UNL     1      -0.896  11.844  20.375  0.00  0.00    +0.000 A 
ATOM      4  S   UNL     1      -0.933  10.473  19.334  0.00  0.00    +0.000 S 
ATOM      5  C   UNL     1       0.632  10.782  18.738  0.00  0.00    +0.000 A 
ENDROOT
BRANCH   3   6
ATOM      6  C   UNL     1      -1.995  12.169  21.309  0.00  0.00    +0.000 A 
ATOM      7  C   UNL     1      -1.933  11.882  22.680  0.00  0.00    +0.000 A 
ATOM      8  C   UNL     1      -3.010  12.173  23.526  0.00  0.00    +0.000 A 
ATOM      9  C   UNL     1      -4.169  12.753  23.017  0.00  0.00    +0.000 A 
ATOM     10  C   UNL     1      -4.255  13.041  21.659  0.00  0.00    +0.000 A 
ATOM     11  C   UNL     1      -3.177  12.753  20.817  0.00  0.00    +0.000 A 
ENDBRANCH   3   6
BRANCH   5  12
ATOM     12  N   UNL     1       1.145   9.793  17.907  0.00  0.00    +0.000 N 
ATOM     13  C   UNL     1       1.836   8.740  18.504  0.00  0.00    +0.000 C 
ATOM     14  O   UNL     1       1.937   8.607  19.723  0.00  0.00    +0.000 OA
ATOM     15  N   UNL     1       2.339   7.849  17.563  0.00  0.00    +0.000 N 
ATOM     16  H   UNL     1       0.564   9.532  17.124  0.00  0.00    +0.000 HD
ATOM     17  H   UNL     1       2.543   8.248  16.657  0.00  0.00    +0.000 HD
BRANCH  15  18
ATOM     18  C   UNL     1       2.913   6.583  17.859  0.00  0.00    +0.000 A 
ATOM     19  C   UNL     1       4.294   6.410  18.026  0.00  0.00    +0.000 A 
ATOM     20  C   UNL     1       4.863   5.162  18.316  0.00  0.00    +0.000 A 
ATOM     21  C   UNL     1       3.991   4.084  18.446  0.00  0.00    +0.000 A 
ATOM     22  N   UNL     1       4.221   2.759  18.715  0.00  0.00    +0.000 N 
ATOM     23  N   UNL     1       3.106   2.012  18.764  0.00  0.00    +0.000 NA
ATOM     24  C   UNL     1       2.131   2.891  18.515  0.00  0.00    +0.000 A 
ATOM     25  C   UNL     1       2.614   4.206  18.311  0.00  0.00    +0.000 A 
ATOM     26  C   UNL     1       2.059   5.476  18.023  0.00  0.00    +0.000 A 
ATOM     27  H   UNL     1       5.114   2.306  18.875  0.00  0.00    +0.000 HD
ENDBRANCH  15  18
ENDBRANCH   5  12
BRANCH   1  29
ATOM     28  N   UNL     1       2.722  13.773  19.341  0.00  0.00    +0.000 N 
ATOM     29  C   UNL     1       2.370  12.609  18.688  0.00  0.00    +0.000 C 
ATOM     30  O   UNL     1       2.968  12.196  17.702  0.00  0.00    +0.000 OA
ATOM     31  H   UNL     1       2.464  13.863  20.318  0.00  0.00    +0.000 HD
BRANCH  28  32
ATOM     32  C   UNL     1       3.849  14.556  18.882  0.00  0.00    +0.000 C 
BRANCH  32  33
ATOM     33  C   UNL     1       3.425  15.739  17.991  0.00  0.00    +0.000 C 
BRANCH  33  35
ATOM     34  C   UNL     1       2.209  17.386  19.308  0.00  0.00    +0.000 C 
ATOM     35  N   UNL     1       3.482  17.060  18.655  0.00  0.00    +0.000 NA
ATOM     36  C   UNL     1       4.552  17.062  19.661  0.00  0.00    +0.000 C 
ENDBRANCH  33  35
ENDBRANCH  32  33
ENDBRANCH  28  32
ENDBRANCH   1  29
TORSDOF 7
ENDMDL
MODEL 8
REMARK VINA RESULT:      -7.7      4.064     10.938
REMARK  Name = 
REMARK  9 active torsions:
REMARK  status: ('A' for Active; 'I' for Inactive)
REMARK    1  A    between atoms: C_1  and  N_2
REMARK    2  A    between atoms: N_2  and  C_3
REMARK    3  A    between atoms: N_2  and  C_4
REMARK    4  A    between atoms: C_4  and  C_5
REMARK    5  A    between atoms: C_5  and  N_6
REMARK    6  A    between atoms: C_7  and  C_9
REMARK    7  A    between atoms: C_11  and  C_12
REMARK    8  A    between atoms: C_19  and  N_20
REMARK    9  A    between atoms: N_23  and  C_24
REMARK                            x       y       z     vdW  Elec       q    Type
REMARK                         _______ _______ _______ _____ _____    ______ ____
ROOT
ATOM      1  C   UNL     1       0.875  12.100  19.025  0.00  0.00    +0.000 A 
ATOM      2  C   UNL     1      -0.020  12.673  19.994  0.00  0.00    +0.000 A 
ATOM      3  C   UNL     1      -1.143  11.908  20.253  0.00  0.00    +0.000 A 
ATOM      4  S   UNL     1      -1.117  10.485  19.283  0.00  0.00    +0.000 S 
ATOM      5  C   UNL     1       0.415  10.856  18.638  0.00  0.00    +0.000 A 
ENDROOT
BRANCH   3   6
ATOM      6  C   UNL     1      -2.242  12.215  21.194  0.00  0.00    +0.000 A 
ATOM      7  C   UNL     1      -3.465  12.758  20.777  0.00  0.00    +0.000 A 
ATOM      8  C   UNL     1      -4.468  13.068  21.705  0.00  0.00    +0.000 A 
ATOM      9  C   UNL     1      -4.265  12.844  23.064  0.00  0.00    +0.000 A 
ATOM     10  C   UNL     1      -3.056  12.311  23.499  0.00  0.00    +0.000 A 
ATOM     11  C   UNL     1      -2.058  11.999  22.572  0.00  0.00    +0.000 A 
ENDBRANCH   3   6
BRANCH   5  12
ATOM     12  N   UNL     1       0.971   9.858  17.847  0.00  0.00    +0.000 N 
ATOM     13  C   UNL     1       1.844   8.959  18.458  0.00  0.00    +0.000 C 
ATOM     14  O   UNL     1       2.075   8.959  19.666  0.00  0.00    +0.000 OA
ATOM     15  N   UNL     1       2.367   8.045  17.550  0.00  0.00    +0.000 N 
ATOM     16  H   UNL     1       0.358   9.453  17.155  0.00  0.00    +0.000 HD
ATOM     17  H   UNL     1       2.433   8.373  16.596  0.00  0.00    +0.000 HD
BRANCH  15  18
ATOM     18  C   UNL     1       3.124   6.892  17.892  0.00  0.00    +0.000 A 
ATOM     19  C   UNL     1       4.483   6.769  17.573  0.00  0.00    +0.000 A 
ATOM     20  C   UNL     1       5.232   5.632  17.909  0.00  0.00    +0.000 A 
ATOM     21  C   UNL     1       4.568   4.616  18.592  0.00  0.00    +0.000 A 
ATOM     22  N   UNL     1       5.001   3.399  19.051  0.00  0.00    +0.000 N 
ATOM     23  N   UNL     1       4.051   2.683  19.676  0.00  0.00    +0.000 NA
ATOM     24  C   UNL     1       2.974   3.472  19.611  0.00  0.00    +0.000 A 
ATOM     25  C   UNL     1       3.228   4.698  18.951  0.00  0.00    +0.000 A 
ATOM     26  C   UNL     1       2.492   5.857  18.607  0.00  0.00    +0.000 A 
ATOM     27  H   UNL     1       5.931   3.001  18.969  0.00  0.00    +0.000 HD
ENDBRANCH  15  18
ENDBRANCH   5  12
BRANCH   1  29
ATOM     28  N   UNL     1       1.997  14.155  18.551  0.00  0.00    +0.000 N 
ATOM     29  C   UNL     1       2.038  12.778  18.459  0.00  0.00    +0.000 C 
ATOM     30  O   UNL     1       2.928  12.181  17.867  0.00  0.00    +0.000 OA
ATOM     31  H   UNL     1       1.492  14.561  19.331  0.00  0.00    +0.000 HD
BRANCH  28  32
ATOM     32  C   UNL     1       3.037  14.958  17.948  0.00  0.00    +0.000 C 
BRANCH  32  33
ATOM     33  C   UNL     1       2.750  16.469  18.041  0.00  0.00    +0.000 C 
BRANCH  33  35
ATOM     34  C   UNL     1       3.331  17.362  20.229  0.00  0.00    +0.000 C 
ATOM     35  N   UNL     1       3.742  17.237  18.826  0.00  0.00    +0.000 NA
ATOM     36  C   UNL     1       5.046  16.565  18.765  0.00  0.00    +0.000 C 
ENDBRANCH  33  35
ENDBRANCH  32  33
ENDBRANCH  28  32
ENDBRANCH   1  29
TORSDOF 7
ENDMDL
MODEL 9
REMARK VINA RESULT:      -7.7      3.934      9.957
REMARK  Name = 
REMARK  9 active torsions:
REMARK  status: ('A' for Active; 'I' for Inactive)
REMARK    1  A    between atoms: C_1  and  N_2
REMARK    2  A    between atoms: N_2  and  C_3
REMARK    3  A    between atoms: N_2  and  C_4
REMARK    4  A    between atoms: C_4  and  C_5
REMARK    5  A    between atoms: C_5  and  N_6
REMARK    6  A    between atoms: C_7  and  C_9
REMARK    7  A    between atoms: C_11  and  C_12
REMARK    8  A    between atoms: C_19  and  N_20
REMARK    9  A    between atoms: N_23  and  C_24
REMARK                            x       y       z     vdW  Elec       q    Type
REMARK                         _______ _______ _______ _____ _____    ______ ____
ROOT
ATOM      1  C   UNL     1      -0.664  11.757  18.355  0.00  0.00    +0.000 A 
ATOM      2  C   UNL     1      -0.492  13.176  18.188  0.00  0.00    +0.000 A 
ATOM      3  C   UNL     1       0.570  13.706  18.900  0.00  0.00    +0.000 A 
ATOM      4  S   UNL     1       1.350  12.464  19.801  0.00  0.00    +0.000 S 
ATOM      5  C   UNL     1       0.349  11.250  19.147  0.00  0.00    +0.000 A 
ENDROOT
BRANCH   3   6
ATOM      6  C   UNL     1       1.010  15.118  18.936  0.00  0.00    +0.000 A 
ATOM      7  C   UNL     1       0.139  16.175  19.230  0.00  0.00    +0.000 A 
ATOM      8  C   UNL     1       0.587  17.502  19.219  0.00  0.00    +0.000 A 
ATOM      9  C   UNL     1       1.913  17.795  18.911  0.00  0.00    +0.000 A 
ATOM     10  C   UNL     1       2.794  16.761  18.611  0.00  0.00    +0.000 A 
ATOM     11  C   UNL     1       2.346  15.438  18.626  0.00  0.00    +0.000 A 
ENDBRANCH   3   6
BRANCH   5  12
ATOM     12  N   UNL     1       0.707   9.953  19.489  0.00  0.00    +0.000 N 
ATOM     13  C   UNL     1       1.433   9.215  18.556  0.00  0.00    +0.000 C 
ATOM     14  O   UNL     1       1.837   9.684  17.493  0.00  0.00    +0.000 OA
ATOM     15  N   UNL     1       1.684   7.921  18.999  0.00  0.00    +0.000 N 
ATOM     16  H   UNL     1       0.980   9.810  20.450  0.00  0.00    +0.000 HD
ATOM     17  H   UNL     1       1.003   7.545  19.643  0.00  0.00    +0.000 HD
BRANCH  15  18
ATOM     18  C   UNL     1       2.560   6.995  18.369  0.00  0.00    +0.000 A 
ATOM     19  C   UNL     1       2.237   5.639  18.227  0.00  0.00    +0.000 A 
ATOM     20  C   UNL     1       3.099   4.723  17.609  0.00  0.00    +0.000 A 
ATOM     21  C   UNL     1       4.305   5.220  17.121  0.00  0.00    +0.000 A 
ATOM     22  N   UNL     1       5.349   4.602  16.482  0.00  0.00    +0.000 N 
ATOM     23  N   UNL     1       6.356   5.429  16.157  0.00  0.00    +0.000 NA
ATOM     24  C   UNL     1       5.940   6.617  16.607  0.00  0.00    +0.000 A 
ATOM     25  C   UNL     1       4.664   6.559  17.216  0.00  0.00    +0.000 A 
ATOM     26  C   UNL     1       3.776   7.468  17.841  0.00  0.00    +0.000 A 
ATOM     27  H   UNL     1       5.431   3.620  16.239  0.00  0.00    +0.000 HD
ENDBRANCH  15  18
ENDBRANCH   5  12
BRANCH   1  29
ATOM     28  N   UNL     1      -2.668  11.710  17.057  0.00  0.00    +0.000 N 
ATOM     29  C   UNL     1      -1.798  10.989  17.849  0.00  0.00    +0.000 C 
ATOM     30  O   UNL     1      -2.011   9.829  18.179  0.00  0.00    +0.000 OA
ATOM     31  H   UNL     1      -2.289  12.483  16.520  0.00  0.00    +0.000 HD
BRANCH  28  32
ATOM     32  C   UNL     1      -3.884  11.100  16.565  0.00  0.00    +0.000 C 
BRANCH  32  33
ATOM     33  C   UNL     1      -5.151  11.716  17.188  0.00  0.00    +0.000 C 
BRANCH  33  35
ATOM     34  C   UNL     1      -5.403  12.414  19.507  0.00  0.00    +0.000 C 
ATOM     35  N   UNL     1      -5.429  11.280  18.575  0.00  0.00    +0.000 NA
ATOM     36  C   UNL     1      -6.747  10.637  18.636  0.00  0.00    +0.000 C 
ENDBRANCH  33  35
ENDBRANCH  32  33
ENDBRANCH  28  32
ENDBRANCH   1  29
TORSDOF 7
ENDMDL
